REMARK  Name = ZINC35782669
REMARK  16 active torsions:
REMARK  status: ('A' for Active; 'I' for Inactive)
REMARK    1  A    between atoms: C_1  and  C_2
REMARK    2  A    between atoms: C_2  and  C_3
REMARK    3  A    between atoms: C_3  and  N_4
REMARK    4  A    between atoms: N_4  and  C_5
REMARK    5  A    between atoms: N_4  and  C_27
REMARK    6  A    between atoms: C_5  and  C_6
REMARK    7  A    between atoms: C_7  and  C_25
REMARK    8  A    between atoms: N_9  and  C_19
REMARK    9  A    between atoms: C_10  and  O_11
REMARK   10  A    between atoms: O_11  and  C_12
REMARK   11  A    between atoms: C_25  and  C_26
REMARK   12  A    between atoms: C_27  and  C_28
REMARK   13  A    between atoms: C_28  and  C_30
REMARK   14  A    between atoms: C_28  and  O_38
REMARK   15  A    between atoms: C_30  and  O_31
REMARK   16  A    between atoms: O_31  and  C_32
REMARK                            x       y       z     vdW  Elec       q    Type
REMARK                         _______ _______ _______ _____ _____    ______ ____
ROOT
ATOM      1  C   UNL     1       3.087  -1.719  -2.316  0.00  0.00    +0.021 A 
ATOM      2  C   UNL     1       3.992  -0.775  -2.810  0.00  0.00    +0.068 A 
ATOM      3  N   UNL     1       5.096  -0.856  -2.113  0.00  0.00    -0.168 NA
ATOM      4  N   UNL     1       4.936  -1.857  -1.146  0.00  0.00    -0.200 N 
ATOM      5  C   UNL     1       3.686  -2.373  -1.285  0.00  0.00    +0.225 A 
ENDROOT
BRANCH   4   6
ATOM      6  C   UNL     1       5.892  -2.252  -0.200  0.00  0.00    +0.069 A 
ATOM      7  C   UNL     1       5.495  -2.626   1.077  0.00  0.00    +0.028 A 
ATOM      8  C   UNL     1       6.439  -3.015   2.006  0.00  0.00    +0.002 A 
ATOM      9  C   UNL     1       7.779  -3.032   1.667  0.00  0.00    +0.000 A 
ATOM     10  C   UNL     1       8.179  -2.659   0.397  0.00  0.00    +0.002 A 
ATOM     11  C   UNL     1       7.239  -2.274  -0.539  0.00  0.00    +0.028 A 
ENDBRANCH   4   6
BRANCH   2  12
ATOM     12  C   UNL     1       3.739   0.174  -3.953  0.00  0.00    +0.054 C 
ATOM     13  C   UNL     1       3.182   1.491  -3.408  0.00  0.00    +0.010 C 
ENDBRANCH   2  12
BRANCH   1  14
ATOM     14  C   UNL     1       1.692  -1.964  -2.830  0.00  0.00    -0.036 C 
BRANCH  14  15
ATOM     15  N   UNL     1       0.743  -1.927  -1.710  0.00  0.00    +0.384 N 
ATOM     16  H   UNL     1       1.079  -2.518  -0.965  0.00  0.00    -0.081 HD
BRANCH  15  17
ATOM     17  C   UNL     1       0.617  -0.547  -1.220  0.00  0.00    -0.079 C 
BRANCH  17  19
ATOM     18  C   UNL     1       1.743   1.249   0.102  0.00  0.00    +0.002 C 
ATOM     19  C   UNL     1       1.926  -0.122  -0.552  0.00  0.00    -0.022 C 
ENDBRANCH  17  19
ENDBRANCH  15  17
BRANCH  15  20
ATOM     20  C   UNL     1      -0.570  -2.407  -2.163  0.00  0.00    -0.043 C 
BRANCH  20  21
ATOM     21  C   UNL     1      -1.498  -2.567  -0.957  0.00  0.00    +0.135 C 
BRANCH  21  22
ATOM     22  O   UNL     1      -1.824  -1.278  -0.433  0.00  0.00    -0.390 OA
ATOM     23  H   UNL     1      -2.206  -0.674  -1.085  0.00  0.00    +0.210 HD
ENDBRANCH  21  22
BRANCH  21  24
ATOM     24  C   UNL     1      -2.780  -3.280  -1.392  0.00  0.00    +0.258 C 
BRANCH  24  25
ATOM     25  O   UNL     1      -3.596  -3.533  -0.247  0.00  0.00    -0.489 OA
BRANCH  25  26
ATOM     26  C   UNL     1      -4.780  -4.165  -0.460  0.00  0.00    +0.121 A 
ATOM     27  C   UNL     1      -5.146  -4.539  -1.745  0.00  0.00    +0.045 A 
ATOM     28  C   UNL     1      -6.350  -5.182  -1.960  0.00  0.00    +0.004 A 
ATOM     29  C   UNL     1      -7.190  -5.452  -0.895  0.00  0.00    +0.000 A 
ATOM     30  C   UNL     1      -6.828  -5.080   0.386  0.00  0.00    +0.004 A 
ATOM     31  C   UNL     1      -5.622  -4.443   0.607  0.00  0.00    +0.045 A 
ENDBRANCH  25  26
ENDBRANCH  24  25
ENDBRANCH  21  24
ENDBRANCH  20  21
ENDBRANCH  15  20
ENDBRANCH  14  15
ENDBRANCH   1  14
BRANCH   5  32
ATOM     32  O   UNL     1       3.138  -3.362  -0.535  0.00  0.00    -0.438 OA
BRANCH  32  33
ATOM     33  C   UNL     1       3.411  -4.649  -0.877  0.00  0.00    +0.131 A 
ATOM     34  C   UNL     1       4.314  -4.920  -1.895  0.00  0.00    +0.049 A 
ATOM     35  C   UNL     1       4.592  -6.228  -2.240  0.00  0.00    +0.042 A 
ATOM     36  C   UNL     1       3.969  -7.269  -1.572  0.00  0.00    +0.124 A 
ATOM     37  C   UNL     1       3.067  -7.000  -0.556  0.00  0.00    +0.042 A 
ATOM     38  C   UNL     1       2.792  -5.692  -0.204  0.00  0.00    +0.049 A 
ATOM     39  F   UNL     1       4.242  -8.547  -1.912  0.00  0.00    -0.205 F 
ENDBRANCH  32  33
ENDBRANCH   5  32
TORSDOF 14
