REMARK  Name = ZINC09266900
REMARK  4 active torsions:
REMARK  status: ('A' for Active; 'I' for Inactive)
REMARK    1  A    between atoms: C_1  and  C_2
REMARK    2  A    between atoms: C_2  and  C_3
REMARK    3  A    between atoms: N_24  and  C_27
REMARK    4  A    between atoms: C_32  and  C_33
REMARK                            x       y       z     vdW  Elec       q    Type
REMARK                         _______ _______ _______ _____ _____    ______ ____
ROOT
ATOM      1  C   UNL     1      -5.988   3.483  -4.798  0.00  0.00    -0.026 A 
ATOM      2  C   UNL     1      -5.034   2.543  -5.133  0.00  0.00    +0.005 A 
ATOM      3  C   UNL     1      -4.145   2.081  -4.181  0.00  0.00    +0.001 A 
ATOM      4  C   UNL     1      -4.210   2.564  -2.886  0.00  0.00    +0.004 A 
ATOM      5  C   UNL     1      -5.160   3.501  -2.548  0.00  0.00    -0.027 A 
ATOM      6  C   UNL     1      -6.061   3.974  -3.497  0.00  0.00    +0.039 A 
ATOM      7  N   UNL     1      -6.922   4.911  -2.921  0.00  0.00    -0.286 N 
ATOM      8  C   UNL     1      -6.657   5.109  -1.616  0.00  0.00    +0.212 C 
ATOM      9  O   UNL     1      -7.241   5.861  -0.865  0.00  0.00    -0.277 OA
ATOM     10  C   UNL     1      -5.498   4.215  -1.268  0.00  0.00    +0.053 C 
ATOM     11  C   UNL     1      -4.304   5.023  -0.749  0.00  0.00    +0.089 C 
ATOM     12  C   UNL     1      -4.370   4.904   0.798  0.00  0.00    +0.074 C 
ATOM     13  C   UNL     1      -5.616   4.015   1.067  0.00  0.00    -0.054 C 
ATOM     14  C   UNL     1      -4.868   2.154  -0.171  0.00  0.00    -0.076 C 
ATOM     15  C   UNL     1      -4.798   1.715   1.305  0.00  0.00    -0.020 C 
ATOM     16  C   UNL     1      -5.267   2.941   2.113  0.00  0.00    -0.016 C 
ATOM     17  C   UNL     1      -3.118   4.128   1.142  0.00  0.00    +0.228 C 
ATOM     18  O   UNL     1      -2.780   3.803   2.260  0.00  0.00    -0.275 OA
ATOM     19  N   UNL     1      -2.440   3.860   0.021  0.00  0.00    -0.210 N 
ATOM     20  C   UNL     1      -3.015   4.313  -1.099  0.00  0.00    +0.229 C 
ATOM     21  O   UNL     1      -2.574   4.176  -2.219  0.00  0.00    -0.275 OA
ATOM     22  H   UNL     1      -7.628   5.367  -3.406  0.00  0.00    +0.155 HD
ATOM     23  N   UNL     1      -5.809   3.293  -0.171  0.00  0.00    +0.395 N 
ATOM     24  H   UNL     1      -6.775   2.956  -0.252  0.00  0.00    -0.079 HD
ENDROOT
BRANCH  19  25
ATOM     25  C   UNL     1      -1.227   3.155   0.018  0.00  0.00    +0.048 A 
ATOM     26  C   UNL     1      -1.229   1.768  -0.013  0.00  0.00    +0.044 A 
ATOM     27  C   UNL     1      -0.032   1.076  -0.015  0.00  0.00    +0.043 A 
ATOM     28  C   UNL     1       1.167   1.767   0.014  0.00  0.00    +0.020 A 
ATOM     29  C   UNL     1       1.171   3.149   0.044  0.00  0.00    +0.006 A 
ATOM     30  C   UNL     1      -0.023   3.845   0.052  0.00  0.00    -0.029 A 
ATOM     31  C   UNL     1      -0.017   5.351   0.091  0.00  0.00    +0.045 C 
ATOM     32 CL   UNL     1      -0.033  -0.659  -0.053  0.00  0.00    -0.083 Cl
ENDBRANCH  19  25
BRANCH   1  34
ATOM     33  C   UNL     1      -6.417   5.275  -6.458  0.00  0.00    +0.009 C 
ATOM     34  C   UNL     1      -6.952   3.980  -5.844  0.00  0.00    +0.033 C 
ENDBRANCH   1  34
TORSDOF 2
