REMARK  Name = ZINC40983861
REMARK  14 active torsions:
REMARK  status: ('A' for Active; 'I' for Inactive)
REMARK    1  A    between atoms: C_1  and  C_2
REMARK    2  A    between atoms: C_2  and  O_3
REMARK    3  A    between atoms: O_3  and  C_4
REMARK    4  A    between atoms: C_7  and  C_12
REMARK    5  A    between atoms: C_9  and  O_10
REMARK    6  A    between atoms: O_10  and  C_11
REMARK    7  A    between atoms: C_14  and  C_18
REMARK    8  A    between atoms: C_15  and  C_17
REMARK    9  A    between atoms: C_18  and  N_19
REMARK   10  A    between atoms: C_22  and  C_25
REMARK   11  A    between atoms: N_30  and  C_33
REMARK   12  A    between atoms: C_33  and  C_34
REMARK   13  A    between atoms: C_34  and  C_35
REMARK   14  A    between atoms: C_34  and  C_36
REMARK                            x       y       z     vdW  Elec       q    Type
REMARK                         _______ _______ _______ _____ _____    ______ ____
ROOT
ATOM      1  N   UNL     1       1.699 -10.806  -0.359  0.00  0.00    +0.383 N 
ATOM      2  C   UNL     1       1.760  -9.739  -1.366  0.00  0.00    -0.078 C 
ATOM      3  C   UNL     1       2.965  -9.965  -2.281  0.00  0.00    -0.006 C 
ATOM      4  C   UNL     1       2.822 -11.321  -2.979  0.00  0.00    +0.072 C 
ATOM      5  C   UNL     1       2.685 -12.418  -1.919  0.00  0.00    -0.006 C 
ATOM      6  C   UNL     1       1.490 -12.101  -1.018  0.00  0.00    -0.078 C 
ATOM      7  H   UNL     1       2.566 -10.828   0.157  0.00  0.00    -0.081 HD
ENDROOT
BRANCH   4   8
ATOM      8  C   UNL     1       4.043 -11.585  -3.822  0.00  0.00    +0.219 C 
ATOM      9  O   UNL     1       5.027 -12.089  -3.324  0.00  0.00    -0.275 OA
ATOM     10  N   UNL     1       4.042 -11.260  -5.130  0.00  0.00    -0.299 N 
ATOM     11  C   UNL     1       2.904 -10.546  -5.730  0.00  0.00    +0.123 C 
ATOM     12  C   UNL     1       3.440  -9.329  -6.492  0.00  0.00    +0.103 C 
ATOM     13  N   UNL     1       4.470  -9.766  -7.443  0.00  0.00    -0.299 NA
ATOM     14  C   UNL     1       5.624 -10.351  -6.747  0.00  0.00    +0.103 C 
ATOM     15  C   UNL     1       5.181 -11.605  -5.995  0.00  0.00    +0.123 C 
BRANCH  13  16
ATOM     16  C   UNL     1       4.887  -8.657  -8.312  0.00  0.00    +0.087 C 
BRANCH  16  17
ATOM     17  C   UNL     1       3.721  -8.252  -9.216  0.00  0.00    -0.003 C 
ATOM     18  C   UNL     1       4.128  -7.045 -10.063  0.00  0.00    +0.008 C 
ATOM     19  C   UNL     1       3.357  -9.420 -10.134  0.00  0.00    +0.008 C 
ENDBRANCH  16  17
ENDBRANCH  13  16
ENDBRANCH   4   8
BRANCH   1  20
ATOM     20  C   UNL     1       0.587 -10.543   0.564  0.00  0.00    -0.019 C 
BRANCH  20  23
ATOM     21  C   UNL     1       0.909  -7.189   1.879  0.00  0.00    +0.228 A 
ATOM     22  N   UNL     1       0.499  -8.035   0.963  0.00  0.00    -0.216 NA
ATOM     23  C   UNL     1       0.860  -9.274   1.331  0.00  0.00    +0.066 A 
ATOM     24  C   UNL     1       1.509  -9.183   2.506  0.00  0.00    +0.124 A 
ATOM     25  O   UNL     1       1.543  -7.878   2.844  0.00  0.00    -0.440 OA
ATOM     26  C   UNL     1       2.094 -10.326   3.295  0.00  0.00    +0.088 C 
BRANCH  21  30
ATOM     27  C   UNL     1       0.338  -2.977   1.795  0.00  0.00    +0.162 A 
ATOM     28  C   UNL     1      -0.150  -3.764   0.762  0.00  0.00    +0.050 A 
ATOM     29  C   UNL     1       0.034  -5.130   0.786  0.00  0.00    +0.017 A 
ATOM     30  C   UNL     1       0.712  -5.725   1.851  0.00  0.00    +0.041 A 
ATOM     31  C   UNL     1       1.204  -4.934   2.891  0.00  0.00    +0.062 A 
ATOM     32  C   UNL     1       1.022  -3.563   2.858  0.00  0.00    +0.162 A 
BRANCH  32  33
ATOM     33  O   UNL     1       1.505  -2.789   3.866  0.00  0.00    -0.491 OA
ATOM     34  C   UNL     1       2.195  -3.457   4.924  0.00  0.00    +0.277 C 
ENDBRANCH  32  33
BRANCH  27  35
ATOM     35  O   UNL     1       0.155  -1.631   1.767  0.00  0.00    -0.489 OA
BRANCH  35  37
ATOM     36  C   UNL     1      -0.661   0.424   0.791  0.00  0.00    +0.048 C 
ATOM     37  C   UNL     1      -0.554  -1.096   0.648  0.00  0.00    +0.226 C 
ENDBRANCH  35  37
ENDBRANCH  27  35
ENDBRANCH  21  30
ENDBRANCH  20  23
ENDBRANCH   1  20
TORSDOF 9
