REMARK  Name = ZINC17198447
REMARK  5 active torsions:
REMARK  status: ('A' for Active; 'I' for Inactive)
REMARK    1  A    between atoms: C_5  and  N_7
REMARK    2  A    between atoms: C_11  and  N_25
REMARK    3  A    between atoms: C_12  and  N_22
REMARK    4  A    between atoms: N_15  and  C_16
REMARK    5  A    between atoms: C_16  and  C_17
REMARK                            x       y       z     vdW  Elec       q    Type
REMARK                         _______ _______ _______ _____ _____    ______ ____
ROOT
ATOM      1  N   UNL     1       1.359  -2.028   0.001  0.00  0.00    -0.323 N 
ATOM      2  C   UNL     1       0.227  -2.751   0.098  0.00  0.00    +0.209 A 
ATOM      3  N   UNL     1      -0.978  -2.109   0.099  0.00  0.00    -0.312 N 
ATOM      4  H   UNL     1      -1.011  -1.142   0.030  0.00  0.00    +0.170 HD
ATOM      5  C   UNL     1      -2.124  -2.819   0.195  0.00  0.00    +0.131 A 
ATOM      6  C   UNL     1      -2.048  -4.215   0.294  0.00  0.00    +0.203 A 
ATOM      7  C   UNL     1      -0.791  -4.819   0.289  0.00  0.00    +0.157 A 
ATOM      8  N   UNL     1       0.306  -4.066   0.186  0.00  0.00    -0.197 NA
ATOM      9  N   UNL     1      -0.682  -6.190   0.385  0.00  0.00    -0.320 N 
ATOM     10  H   UNL     1      -1.481  -6.741   0.390  0.00  0.00    +0.148 HD
ATOM     11  H   UNL     1       2.214  -2.476  -0.096  0.00  0.00    +0.169 HD
ENDROOT
BRANCH   1  16
ATOM     12  C   UNL     1       1.581   1.450  -1.067  0.00  0.00    +0.002 A 
ATOM     13  C   UNL     1       1.193   2.087   0.111  0.00  0.00    +0.003 A 
ATOM     14  C   UNL     1       0.860   1.379   1.252  0.00  0.00    +0.040 A 
ATOM     15  C   UNL     1       0.900   0.001   1.264  0.00  0.00    +0.147 A 
ATOM     16  C   UNL     1       1.305  -0.706   0.037  0.00  0.00    +0.077 A 
ATOM     17  C   UNL     1       1.649   0.096  -1.145  0.00  0.00    +0.028 A 
ATOM     18  F   UNL     1       0.575  -0.688   2.380  0.00  0.00    -0.203 F 
ENDBRANCH   1  16
BRANCH   6  19
ATOM     19  N   UNL     1      -3.278  -5.033   0.401  0.00  0.00    +0.063 N 
ATOM     20  O   UNL     1      -3.923  -5.398  -0.687  0.00  0.00    -0.126 OA
ATOM     21  O   UNL     1      -3.726  -5.395   1.586  0.00  0.00    -0.126 OA
ENDBRANCH   6  19
BRANCH   5  22
ATOM     22  N   UNL     1      -3.335  -2.188   0.196  0.00  0.00    -0.343 N 
ATOM     23  H   UNL     1      -3.382  -1.229   0.055  0.00  0.00    +0.144 HD
ATOM     24  H   UNL     1      -4.148  -2.697   0.339  0.00  0.00    +0.144 HD
ENDBRANCH   5  22
BRANCH   9  25
ATOM     25  C   UNL     1       0.639  -6.815   0.478  0.00  0.00    +0.177 C 
BRANCH  25  26
ATOM     26  C   UNL     1       0.482  -8.311   0.572  0.00  0.00    +0.122 A 
ATOM     27  C   UNL     1       0.448  -9.165  -0.466  0.00  0.00    +0.046 A 
ATOM     28  C   UNL     1       0.288 -10.461   0.075  0.00  0.00    +0.041 A 
ATOM     29  C   UNL     1       0.234 -10.322   1.411  0.00  0.00    +0.195 A 
ATOM     30  O   UNL     1       0.358  -9.018   1.707  0.00  0.00    -0.466 OA
ENDBRANCH  25  26
ENDBRANCH   9  25
TORSDOF 5
