REMARK  Name = ZINC34791816
REMARK  9 active torsions:
REMARK  status: ('A' for Active; 'I' for Inactive)
REMARK    1  A    between atoms: C_1  and  C_2
REMARK    2  A    between atoms: C_2  and  N_3
REMARK    3  A    between atoms: C_6  and  C_11
REMARK    4  A    between atoms: C_14  and  C_18
REMARK    5  A    between atoms: C_16  and  C_17
REMARK    6  A    between atoms: N_21  and  C_23
REMARK    7  A    between atoms: C_23  and  C_25
REMARK    8  A    between atoms: C_23  and  C_32
REMARK    9  A    between atoms: C_25  and  C_26
REMARK                            x       y       z     vdW  Elec       q    Type
REMARK                         _______ _______ _______ _____ _____    ______ ____
ROOT
ATOM      1  N   UNL     1      -0.766  -0.853   1.082  0.00  0.00    -0.257 N 
ATOM      2  C   UNL     1      -1.563  -1.137   2.154  0.00  0.00    +0.042 C 
ATOM      3  C   UNL     1      -2.818  -1.603   1.988  0.00  0.00    +0.058 C 
ATOM      4  C   UNL     1      -3.314  -1.800   0.570  0.00  0.00    +0.142 C 
ATOM      5  N   UNL     1      -2.378  -1.466  -0.517  0.00  0.00    -0.288 N 
ATOM      6  C   UNL     1      -1.154  -1.004  -0.191  0.00  0.00    +0.307 C 
ATOM      7  O   UNL     1      -0.376  -0.721  -1.081  0.00  0.00    -0.252 OA
ATOM      8  C   UNL     1      -3.430  -1.817   3.239  0.00  0.00    +0.247 C 
ATOM      9  O   UNL     1      -4.564  -2.235   3.387  0.00  0.00    -0.270 OA
ATOM     10  N   UNL     1      -2.599  -1.500   4.248  0.00  0.00    -0.280 N 
ATOM     11  C   UNL     1      -1.339  -1.040   3.646  0.00  0.00    +0.160 C 
ATOM     12  H   UNL     1      -2.638  -1.571  -1.446  0.00  0.00    +0.151 HD
ENDROOT
BRANCH   4  13
ATOM     13  C   UNL     1      -4.553  -0.962   0.390  0.00  0.00    -0.020 A 
ATOM     14  C   UNL     1      -4.806   0.091   1.249  0.00  0.00    +0.006 A 
ATOM     15  C   UNL     1      -5.942   0.860   1.084  0.00  0.00    +0.004 A 
ATOM     16  C   UNL     1      -6.826   0.577   0.059  0.00  0.00    -0.050 A 
ATOM     17  C   UNL     1      -6.573  -0.475  -0.800  0.00  0.00    +0.007 A 
ATOM     18  C   UNL     1      -5.434  -1.242  -0.638  0.00  0.00    -0.045 A 
ATOM     19  C   UNL     1      -5.155  -2.386  -1.578  0.00  0.00    +0.044 C 
ATOM     20  C   UNL     1      -8.066   1.415  -0.120  0.00  0.00    +0.044 C 
ENDBRANCH   4  13
BRANCH   1  22
ATOM     21  C   UNL     1       0.555   1.177   1.420  0.00  0.00    +0.025 C 
ATOM     22  C   UNL     1       0.586  -0.350   1.338  0.00  0.00    +0.111 C 
ENDBRANCH   1  22
BRANCH  10  23
ATOM     23  C   UNL     1      -2.894  -1.595   5.680  0.00  0.00    +0.167 C 
BRANCH  23  24
ATOM     24  C   UNL     1      -4.073  -0.715   6.009  0.00  0.00    +0.236 C 
ATOM     25  O   UNL     1      -4.782  -0.293   5.120  0.00  0.00    -0.274 OA
ATOM     26  N   UNL     1      -4.340  -0.398   7.291  0.00  0.00    -0.300 N 
ATOM     27  C   UNL     1      -3.427  -0.804   8.368  0.00  0.00    +0.108 C 
ATOM     28  C   UNL     1      -3.045   0.436   9.184  0.00  0.00    +0.019 C 
ATOM     29  C   UNL     1      -4.317   1.135   9.668  0.00  0.00    +0.003 C 
ATOM     30  C   UNL     1      -5.144   1.586   8.462  0.00  0.00    +0.019 C 
ATOM     31  C   UNL     1      -5.547   0.365   7.638  0.00  0.00    +0.108 C 
ENDBRANCH  23  24
BRANCH  23  32
ATOM     32  C   UNL     1      -3.224  -3.045   6.038  0.00  0.00    +0.067 C 
BRANCH  32  33
ATOM     33  C   UNL     1      -2.002  -3.903   5.835  0.00  0.00    -0.045 A 
ATOM     34  C   UNL     1      -1.769  -4.496   4.609  0.00  0.00    +0.004 A 
ATOM     35  C   UNL     1      -0.648  -5.283   4.423  0.00  0.00    +0.000 A 
ATOM     36  C   UNL     1       0.240  -5.476   5.464  0.00  0.00    +0.000 A 
ATOM     37  C   UNL     1       0.008  -4.883   6.690  0.00  0.00    +0.000 A 
ATOM     38  C   UNL     1      -1.111  -4.093   6.875  0.00  0.00    +0.004 A 
ENDBRANCH  32  33
ENDBRANCH  23  32
ENDBRANCH  10  23
TORSDOF 6
