REMARK  Name = ZINC32911841
REMARK  8 active torsions:
REMARK  status: ('A' for Active; 'I' for Inactive)
REMARK    1  A    between atoms: C_1  and  C_2
REMARK    2  A    between atoms: C_2  and  C_3
REMARK    3  A    between atoms: C_3  and  N_4
REMARK    4  A    between atoms: C_8  and  C_10
REMARK    5  A    between atoms: C_10  and  N_11
REMARK    6  A    between atoms: N_11  and  C_12
REMARK    7  A    between atoms: N_11  and  C_13
REMARK    8  A    between atoms: C_22  and  O_24
REMARK                            x       y       z     vdW  Elec       q    Type
REMARK                         _______ _______ _______ _____ _____    ______ ____
ROOT
ATOM      1  N   UNL     1       2.263  -4.193  -0.042  0.00  0.00    +0.390 N 
ATOM      2  C   UNL     1       1.702  -4.535   1.272  0.00  0.00    -0.095 C 
ATOM      3  H   UNL     1       1.639  -4.672  -0.811  0.00  0.00    -0.081 HD
ENDROOT
BRANCH   1   4
ATOM      4  C   UNL     1       3.630  -4.712  -0.182  0.00  0.00    -0.008 C 
ATOM      5  C   UNL     1       3.653  -6.206   0.061  0.00  0.00    -0.052 A 
ATOM      6  C   UNL     1       3.620  -6.922   1.246  0.00  0.00    +0.022 A 
ATOM      7  C   UNL     1       3.650  -8.304   1.225  0.00  0.00    +0.043 A 
ATOM      8  C   UNL     1       3.713  -8.974   0.017  0.00  0.00    +0.040 A 
ATOM      9  C   UNL     1       3.746  -8.261  -1.167  0.00  0.00    +0.046 A 
ATOM     10  C   UNL     1       3.715  -6.875  -1.146  0.00  0.00    -0.025 A 
ATOM     11  C   UNL     1       3.739  -5.877  -2.284  0.00  0.00    +0.066 C 
ATOM     12  C   UNL     1       4.126  -4.529  -1.633  0.00  0.00    +0.110 C 
ATOM     13 CL   UNL     1       3.824  -9.102  -2.683  0.00  0.00    -0.083 Cl
ATOM     14 CL   UNL     1       3.610  -9.197   2.713  0.00  0.00    -0.083 Cl
BRANCH  12  15
ATOM     15  O   UNL     1       5.541  -4.336  -1.665  0.00  0.00    -0.393 OA
ATOM     16  H   UNL     1       6.055  -4.190  -2.627  0.00  0.00    +0.210 HD
ENDBRANCH  12  15
ENDBRANCH   1   4
BRANCH   1  17
ATOM     17  C   UNL     1       2.224  -2.742  -0.269  0.00  0.00    +0.020 C 
BRANCH  17  22
ATOM     18  N   UNL     1      -1.052   0.726  -0.858  0.00  0.00    -0.299 N 
ATOM     19  C   UNL     1      -0.772  -0.576  -0.650  0.00  0.00    +0.306 C 
ATOM     20  O   UNL     1      -1.674  -1.382  -0.538  0.00  0.00    -0.252 OA
ATOM     21  N   UNL     1       0.510  -0.984  -0.568  0.00  0.00    -0.242 N 
ATOM     22  C   UNL     1       0.791  -2.286  -0.361  0.00  0.00    +0.204 C 
ATOM     23  O   UNL     1      -0.109  -3.090  -0.248  0.00  0.00    -0.277 OA
ATOM     24  H   UNL     1      -0.235   1.456  -0.955  0.00  0.00    +0.150 HD
ATOM     25  H   UNL     1       1.327  -0.255  -0.670  0.00  0.00    +0.159 HD
BRANCH  18  26
ATOM     26  C   UNL     1      -2.446   1.168  -0.953  0.00  0.00    +0.105 C 
BRANCH  26  28
ATOM     27  C   UNL     1      -3.941   3.142  -1.288  0.00  0.00    +0.005 C 
ATOM     28  C   UNL     1      -2.486   2.680  -1.188  0.00  0.00    +0.015 C 
ENDBRANCH  26  28
ENDBRANCH  18  26
ENDBRANCH  17  22
ENDBRANCH   1  17
TORSDOF 6
