REMARK  Name = ZINC35573825
REMARK  12 active torsions:
REMARK  status: ('A' for Active; 'I' for Inactive)
REMARK    1  A    between atoms: C_1  and  C_2
REMARK    2  A    between atoms: C_2  and  C_3
REMARK    3  A    between atoms: C_2  and  C_4
REMARK    4  A    between atoms: C_4  and  C_6
REMARK    5  A    between atoms: C_4  and  O_34
REMARK    6  A    between atoms: C_6  and  N_7
REMARK    7  A    between atoms: N_7  and  C_8
REMARK    8  A    between atoms: N_7  and  C_9
REMARK    9  A    between atoms: C_9  and  C_10
REMARK   10  A    between atoms: N_13  and  C_15
REMARK   11  A    between atoms: N_24  and  C_26
REMARK   12  A    between atoms: C_26  and  C_27
REMARK                            x       y       z     vdW  Elec       q    Type
REMARK                         _______ _______ _______ _____ _____    ______ ____
ROOT
ATOM      1  C   UNL     1      -4.029  -4.721   0.255  0.00  0.00    +0.052 A 
ATOM      2  C   UNL     1      -4.681  -5.064   1.435  0.00  0.00    +0.009 A 
ATOM      3  C   UNL     1      -5.830  -5.712   1.106  0.00  0.00    +0.051 A 
ATOM      4  N   UNL     1      -5.902  -5.771  -0.234  0.00  0.00    -0.236 N 
ATOM      5  N   UNL     1      -4.761  -5.138  -0.751  0.00  0.00    -0.173 NA
ATOM      6  C   UNL     1      -6.801  -6.242   2.132  0.00  0.00    +0.071 C 
ATOM      7  C   UNL     1      -6.080  -6.277   3.487  0.00  0.00    +0.091 C 
ATOM      8  N   UNL     1      -5.425  -4.985   3.732  0.00  0.00    -0.294 NA
ATOM      9  C   UNL     1      -4.254  -4.800   2.857  0.00  0.00    +0.123 C 
ENDROOT
BRANCH   4  10
ATOM     10  C   UNL     1      -6.934  -6.356  -0.981  0.00  0.00    +0.066 A 
ATOM     11  C   UNL     1      -8.257  -6.165  -0.607  0.00  0.00    +0.029 A 
ATOM     12  C   UNL     1      -9.272  -6.742  -1.345  0.00  0.00    +0.022 A 
ATOM     13  C   UNL     1      -8.970  -7.510  -2.457  0.00  0.00    +0.041 A 
ATOM     14  C   UNL     1      -7.652  -7.701  -2.831  0.00  0.00    +0.022 A 
ATOM     15  C   UNL     1      -6.634  -7.121  -2.100  0.00  0.00    +0.029 A 
ATOM     16 CL   UNL     1     -10.248  -8.235  -3.382  0.00  0.00    -0.084 Cl
ENDBRANCH   4  10
BRANCH   1  17
ATOM     17  C   UNL     1      -2.715  -3.990   0.150  0.00  0.00    -0.021 C 
BRANCH  17  18
ATOM     18  N   UNL     1      -2.962  -2.543   0.102  0.00  0.00    +0.383 N 
ATOM     19  C   UNL     1      -3.691  -2.210  -1.129  0.00  0.00    -0.096 C 
ATOM     20  H   UNL     1      -3.511  -2.269   0.903  0.00  0.00    -0.082 HD
BRANCH  18  21
ATOM     21  C   UNL     1      -1.679  -1.827   0.121  0.00  0.00    -0.047 C 
BRANCH  21  22
ATOM     22  C   UNL     1      -0.987  -2.055   1.466  0.00  0.00    +0.101 C 
BRANCH  22  24
ATOM     23  C   UNL     1       1.035  -1.526   2.836  0.00  0.00    +0.010 C 
ATOM     24  C   UNL     1       0.342  -1.297   1.491  0.00  0.00    +0.010 C 
ATOM     25  C   UNL     1       1.241  -1.806   0.362  0.00  0.00    +0.010 C 
ENDBRANCH  22  24
BRANCH  22  26
ATOM     26  O   UNL     1      -1.826  -1.580   2.521  0.00  0.00    -0.393 OA
ATOM     27  H   UNL     1      -2.034  -0.638   2.463  0.00  0.00    +0.210 HD
ENDBRANCH  22  26
ENDBRANCH  21  22
ENDBRANCH  18  21
ENDBRANCH  17  18
ENDBRANCH   1  17
BRANCH   8  28
ATOM     28  C   UNL     1      -5.053  -4.842   5.146  0.00  0.00    +0.120 C 
BRANCH  28  29
ATOM     29  C   UNL     1      -6.301  -4.777   5.989  0.00  0.00    -0.032 A 
ATOM     30  C   UNL     1      -6.892  -3.555   6.255  0.00  0.00    +0.005 A 
ATOM     31  C   UNL     1      -8.036  -3.494   7.028  0.00  0.00    +0.002 A 
ATOM     32  C   UNL     1      -8.590  -4.655   7.536  0.00  0.00    +0.020 A 
ATOM     33  C   UNL     1      -7.999  -5.877   7.270  0.00  0.00    +0.041 A 
ATOM     34  C   UNL     1      -6.857  -5.938   6.491  0.00  0.00    +0.025 A 
ATOM     35 CL   UNL     1      -8.694  -7.334   7.908  0.00  0.00    -0.084 Cl
ENDBRANCH  28  29
ENDBRANCH   8  28
TORSDOF 9
