REMARK  Name = ZINC39699627
REMARK  6 active torsions:
REMARK  status: ('A' for Active; 'I' for Inactive)
REMARK    1  A    between atoms: C_4  and  C_7
REMARK    2  A    between atoms: C_11  and  C_13
REMARK    3  A    between atoms: N_14  and  N_15
REMARK    4  A    between atoms: C_16  and  C_18
REMARK    5  A    between atoms: C_21  and  C_22
REMARK    6  A    between atoms: C_21  and  C_28
REMARK                            x       y       z     vdW  Elec       q    Type
REMARK                         _______ _______ _______ _____ _____    ______ ____
ROOT
ATOM      1  N   UNL     1       2.005  -5.489  -1.832  0.00  0.00    -0.207 N 
ATOM      2  C   UNL     1       0.789  -5.096  -2.263  0.00  0.00    +0.236 C 
ATOM      3  O   UNL     1       0.188  -4.226  -1.670  0.00  0.00    -0.274 OA
ATOM      4  H   UNL     1       2.486  -6.185  -2.307  0.00  0.00    +0.177 HD
ENDROOT
BRANCH   2   5
ATOM      5  C   UNL     1       0.178  -5.738  -3.482  0.00  0.00    +0.093 C 
ATOM      6  C   UNL     1      -1.327  -5.563  -3.693  0.00  0.00    +0.031 C 
ATOM      7  C   UNL     1      -0.767  -6.920  -3.259  0.00  0.00    +0.033 C 
BRANCH   7   8
ATOM      8  C   UNL     1      -0.752  -8.026  -4.283  0.00  0.00    -0.036 A 
ATOM      9  C   UNL     1       0.210  -8.035  -5.276  0.00  0.00    +0.004 A 
ATOM     10  C   UNL     1       0.224  -9.050  -6.215  0.00  0.00    +0.000 A 
ATOM     11  C   UNL     1      -0.724 -10.055  -6.161  0.00  0.00    +0.000 A 
ATOM     12  C   UNL     1      -1.685 -10.046  -5.167  0.00  0.00    +0.000 A 
ATOM     13  C   UNL     1      -1.696  -9.034  -4.226  0.00  0.00    +0.004 A 
ENDBRANCH   7   8
BRANCH   7  14
ATOM     14  C   UNL     1      -1.016  -7.354  -1.838  0.00  0.00    -0.036 A 
ATOM     15  C   UNL     1      -2.308  -7.417  -1.351  0.00  0.00    +0.004 A 
ATOM     16  C   UNL     1      -2.537  -7.814  -0.047  0.00  0.00    +0.000 A 
ATOM     17  C   UNL     1      -1.473  -8.149   0.770  0.00  0.00    +0.000 A 
ATOM     18  C   UNL     1      -0.181  -8.087   0.283  0.00  0.00    +0.000 A 
ATOM     19  C   UNL     1       0.047  -7.693  -1.022  0.00  0.00    +0.004 A 
ENDBRANCH   7  14
ENDBRANCH   2   5
BRANCH   1  21
ATOM     20  C   UNL     1       3.727  -5.266  -0.290  0.00  0.00    +0.118 C 
ATOM     21  N   UNL     1       2.573  -4.893  -0.699  0.00  0.00    -0.192 NA
BRANCH  20  26
ATOM     22  C   UNL     1       5.654  -3.958   0.580  0.00  0.00    +0.084 C 
ATOM     23  N   UNL     1       6.560  -4.564   1.297  0.00  0.00    -0.153 NA
ATOM     24  N   UNL     1       6.016  -5.568   2.091  0.00  0.00    -0.161 NA
ATOM     25  C   UNL     1       4.735  -5.678   1.942  0.00  0.00    +0.123 C 
ATOM     26  C   UNL     1       4.338  -4.624   0.929  0.00  0.00    +0.125 C 
BRANCH  22  30
ATOM     27  C   UNL     1       6.265  -0.773  -2.154  0.00  0.00    +0.000 A 
ATOM     28  C   UNL     1       7.343  -1.311  -1.472  0.00  0.00    +0.001 A 
ATOM     29  C   UNL     1       7.152  -2.347  -0.582  0.00  0.00    +0.010 A 
ATOM     30  C   UNL     1       5.866  -2.853  -0.369  0.00  0.00    -0.001 A 
ATOM     31  C   UNL     1       4.783  -2.304  -1.061  0.00  0.00    +0.010 A 
ATOM     32  C   UNL     1       4.990  -1.269  -1.949  0.00  0.00    +0.001 A 
ENDBRANCH  22  30
ENDBRANCH  20  26
ENDBRANCH   1  21
TORSDOF 6
