REMARK  Name = ZINC49534172
REMARK  5 active torsions:
REMARK  status: ('A' for Active; 'I' for Inactive)
REMARK    1  A    between atoms: C_1  and  C_2
REMARK    2  A    between atoms: C_3  and  C_8
REMARK    3  A    between atoms: C_5  and  C_7
REMARK    4  A    between atoms: C_8  and  C_10
REMARK    5  A    between atoms: C_8  and  N_11
REMARK                            x       y       z     vdW  Elec       q    Type
REMARK                         _______ _______ _______ _____ _____    ______ ____
ROOT
ATOM      1  N   UNL     1      -1.142  -0.819  -3.288  0.00  0.00    -0.304 N 
ATOM      2  C   UNL     1      -1.410  -2.173  -3.405  0.00  0.00    +0.071 A 
ATOM      3  C   UNL     1      -0.790  -3.320  -2.932  0.00  0.00    +0.029 A 
ATOM      4  C   UNL     1      -1.317  -4.559  -3.230  0.00  0.00    +0.017 A 
ATOM      5  C   UNL     1      -2.466  -4.666  -4.002  0.00  0.00    +0.020 A 
ATOM      6  C   UNL     1      -3.095  -3.538  -4.480  0.00  0.00    +0.045 A 
ATOM      7  C   UNL     1      -2.573  -2.276  -4.185  0.00  0.00    +0.092 A 
ATOM      8  N   UNL     1      -2.954  -1.010  -4.503  0.00  0.00    -0.215 NA
ATOM      9  C   UNL     1      -2.118  -0.153  -3.972  0.00  0.00    +0.195 A 
ATOM     10  N   UNL     1      -2.208   1.218  -4.090  0.00  0.00    -0.329 N 
ATOM     11 BR   UNL     1      -3.173  -6.374  -4.400  0.00  0.00    -0.050 Br
ATOM     12  H   UNL     1      -1.502   1.783  -3.739  0.00  0.00    +0.145 HD
ATOM     13  H   UNL     1      -2.977   1.618  -4.525  0.00  0.00    +0.145 HD
ENDROOT
BRANCH   1  14
ATOM     14  C   UNL     1      -0.023  -0.214  -2.561  0.00  0.00    +0.126 C 
ATOM     15  C   UNL     1       1.293  -0.816  -3.056  0.00  0.00    +0.036 C 
BRANCH  14  18
ATOM     16  C   UNL     1      -0.580   1.856  -0.306  0.00  0.00    +0.066 C 
ATOM     17  C   UNL     1      -0.419   0.377  -0.066  0.00  0.00    +0.051 A 
ATOM     18  C   UNL     1      -0.177  -0.485  -1.086  0.00  0.00    +0.035 A 
ATOM     19  S   UNL     1      -0.090  -2.031  -0.197  0.00  0.00    -0.075 S 
ATOM     20  C   UNL     1      -0.367  -1.424   1.349  0.00  0.00    +0.076 A 
ATOM     21  N   UNL     1      -0.502  -0.138   1.144  0.00  0.00    -0.249 NA
ATOM     22  C   UNL     1      -0.436  -2.178   2.652  0.00  0.00    +0.073 C 
ENDBRANCH  14  18
ENDBRANCH   1  14
TORSDOF 2
