REMARK  Name = ZINC39934982
REMARK  7 active torsions:
REMARK  status: ('A' for Active; 'I' for Inactive)
REMARK    1  A    between atoms: C_1  and  O_2
REMARK    2  A    between atoms: O_2  and  C_3
REMARK    3  A    between atoms: C_8  and  C_13
REMARK    4  A    between atoms: C_13  and  C_30
REMARK    5  A    between atoms: C_14  and  C_15
REMARK    6  A    between atoms: C_18  and  C_20
REMARK    7  A    between atoms: C_22  and  C_27
REMARK                            x       y       z     vdW  Elec       q    Type
REMARK                         _______ _______ _______ _____ _____    ______ ____
ROOT
ATOM      1  C   UNL     1      -4.780  -4.766  -1.201  0.00  0.00    +0.075 C 
ATOM      2  C   UNL     1      -5.522  -5.896  -1.077  0.00  0.00    +0.064 C 
ENDROOT
BRANCH   1   8
ATOM      3  C   UNL     1      -1.198  -0.636   0.010  0.00  0.00    +0.122 A 
ATOM      4  C   UNL     1      -2.418   0.160   0.020  0.00  0.00    +0.048 A 
ATOM      5  C   UNL     1      -3.638  -0.408   0.029  0.00  0.00    +0.031 A 
ATOM      6  C   UNL     1      -3.762  -1.873   0.028  0.00  0.00    +0.061 A 
ATOM      7  N   UNL     1      -4.795  -2.665   0.036  0.00  0.00    -0.359 N 
ATOM      8  C   UNL     1      -4.295  -4.045   0.030  0.00  0.00    +0.216 C 
ATOM      9  N   UNL     1      -2.830  -3.955   0.019  0.00  0.00    -0.359 N 
ATOM     10  C   UNL     1      -2.517  -2.688   0.017  0.00  0.00    +0.064 A 
ATOM     11  C   UNL     1      -1.229  -1.991   0.003  0.00  0.00    +0.073 A 
ATOM     12  H   UNL     1      -5.726  -2.393   0.044  0.00  0.00    +0.162 HD
ATOM     13  H   UNL     1      -2.209  -4.700   0.013  0.00  0.00    +0.162 HD
BRANCH   3  15
ATOM     14  C   UNL     1      -0.017   1.425   0.010  0.00  0.00    +0.277 C 
ATOM     15  O   UNL     1       0.002  -0.004   0.002  0.00  0.00    -0.495 OA
ENDBRANCH   3  15
ENDBRANCH   1   8
BRANCH   2  16
ATOM     16  C   UNL     1      -5.978  -6.573  -2.233  0.00  0.00    +0.130 A 
ATOM     17  C   UNL     1      -6.742  -7.724  -2.252  0.00  0.00    +0.050 A 
ATOM     18  C   UNL     1      -6.959  -8.041  -3.596  0.00  0.00    +0.050 A 
ATOM     19  C   UNL     1      -6.329  -7.087  -4.342  0.00  0.00    +0.137 A 
ATOM     20  O   UNL     1      -5.746  -6.204  -3.511  0.00  0.00    -0.455 OA
BRANCH  19  21
ATOM     21  C   UNL     1      -6.298  -7.029  -5.817  0.00  0.00    +0.036 A 
ATOM     22  C   UNL     1      -6.619  -5.845  -6.477  0.00  0.00    +0.028 A 
ATOM     23  C   UNL     1      -6.587  -5.800  -7.870  0.00  0.00    +0.064 A 
ATOM     24  C   UNL     1      -6.232  -6.942  -8.596  0.00  0.00    +0.016 A 
ATOM     25  C   UNL     1      -5.915  -8.112  -7.937  0.00  0.00    +0.021 A 
ATOM     26  C   UNL     1      -5.940  -8.163  -6.555  0.00  0.00    +0.052 A 
ATOM     27 CL   UNL     1      -5.533  -9.638  -5.735  0.00  0.00    -0.083 Cl
BRANCH  23  28
ATOM     28  C   UNL     1      -6.926  -4.551  -8.578  0.00  0.00    +0.387 C 
ATOM     29  O   UNL     1      -7.236  -3.553  -7.942  0.00  0.00    -0.241 OA
ATOM     30  O   UNL     1      -6.896  -4.513  -9.800  0.00  0.00    -0.241 OA
ENDBRANCH  23  28
ENDBRANCH  19  21
ENDBRANCH   2  16
BRANCH   1  31
ATOM     31  C   UNL     1      -4.458  -4.260  -2.501  0.00  0.00    +0.099 C 
ATOM     32  N   UNL     1      -4.202  -3.858  -3.532  0.00  0.00    -0.191 NA
ENDBRANCH   1  31
TORSDOF 6
