REMARK  Name = ZINC33539366
REMARK  9 active torsions:
REMARK  status: ('A' for Active; 'I' for Inactive)
REMARK    1  A    between atoms: C_1  and  C_2
REMARK    2  A    between atoms: C_2  and  C_3
REMARK    3  A    between atoms: C_2  and  C_4
REMARK    4  A    between atoms: C_4  and  C_6
REMARK    5  A    between atoms: C_4  and  N_19
REMARK    6  A    between atoms: N_8  and  C_9
REMARK    7  A    between atoms: C_12  and  O_18
REMARK    8  A    between atoms: C_13  and  C_15
REMARK    9  A    between atoms: C_23  and  C_24
REMARK                            x       y       z     vdW  Elec       q    Type
REMARK                         _______ _______ _______ _____ _____    ______ ____
ROOT
ATOM      1  C   UNL     1      -1.839  -0.130   0.684  0.00  0.00    +0.171 C 
ENDROOT
BRANCH   1   2
ATOM      2  N   UNL     1      -3.115   0.569   0.513  0.00  0.00    -0.243 N 
ATOM      3  C   UNL     1      -3.457   1.512   1.375  0.00  0.00    +0.259 C 
ATOM      4  O   UNL     1      -2.736   1.815   2.309  0.00  0.00    -0.269 OA
ATOM      5  C   UNL     1      -4.751   2.179   1.150  0.00  0.00    +0.080 C 
ATOM      6  C   UNL     1      -5.353   3.171   1.865  0.00  0.00    +0.066 C 
ATOM      7  S   UNL     1      -5.315   1.328  -0.318  0.00  0.00    -0.061 S 
ATOM      8  C   UNL     1      -3.914   0.241  -0.523  0.00  0.00    +0.121 C 
ATOM      9  S   UNL     1      -3.649  -0.935  -1.739  0.00  0.00    -0.027 S 
BRANCH   6  10
ATOM     10  C   UNL     1      -6.614   3.668   1.462  0.00  0.00    +0.129 A 
ATOM     11  C   UNL     1      -7.331   4.669   2.085  0.00  0.00    +0.049 A 
ATOM     12  C   UNL     1      -8.514   4.831   1.348  0.00  0.00    +0.042 A 
ATOM     13  C   UNL     1      -8.474   3.945   0.328  0.00  0.00    +0.195 A 
ATOM     14  O   UNL     1      -7.329   3.251   0.396  0.00  0.00    -0.463 OA
ENDBRANCH   6  10
ENDBRANCH   1   2
BRANCH   1  15
ATOM     15  C   UNL     1      -2.095  -1.605   0.862  0.00  0.00    +0.238 C 
ATOM     16  O   UNL     1      -3.104  -2.104   0.412  0.00  0.00    -0.273 OA
ATOM     17  N   UNL     1      -1.201  -2.368   1.521  0.00  0.00    -0.284 N 
ATOM     18  H   UNL     1      -0.355  -1.988   1.807  0.00  0.00    +0.155 HD
BRANCH  17  19
ATOM     19  C   UNL     1      -1.493  -3.712   1.792  0.00  0.00    +0.034 A 
ATOM     20  C   UNL     1      -2.220  -4.463   0.874  0.00  0.00    +0.027 A 
ATOM     21  C   UNL     1      -2.512  -5.787   1.132  0.00  0.00    +0.048 A 
ATOM     22  C   UNL     1      -2.083  -6.379   2.311  0.00  0.00    +0.131 A 
ATOM     23  C   UNL     1      -1.350  -5.628   3.242  0.00  0.00    +0.106 A 
ATOM     24  C   UNL     1      -1.053  -4.289   2.970  0.00  0.00    +0.042 A 
BRANCH  23  25
ATOM     25  C   UNL     1      -0.891  -6.248   4.495  0.00  0.00    +0.390 C 
ATOM     26  O   UNL     1      -0.252  -5.590   5.305  0.00  0.00    -0.240 OA
ATOM     27  O   UNL     1      -1.149  -7.421   4.728  0.00  0.00    -0.240 OA
ENDBRANCH  23  25
BRANCH  22  28
ATOM     28  O   UNL     1      -2.372  -7.680   2.563  0.00  0.00    -0.506 OA
ATOM     29  H   UNL     1      -1.705  -8.301   2.241  0.00  0.00    +0.292 HD
ENDBRANCH  22  28
ENDBRANCH  17  19
ENDBRANCH   1  15
BRANCH   1  31
ATOM     30  C   UNL     1      -0.825   1.592  -0.815  0.00  0.00    +0.009 C 
ATOM     31  C   UNL     1      -0.967   0.091  -0.553  0.00  0.00    +0.013 C 
ATOM     32  C   UNL     1       0.416  -0.519  -0.317  0.00  0.00    +0.009 C 
ENDBRANCH   1  31
TORSDOF 7
