REMARK  Name = ZINC39678309
REMARK  6 active torsions:
REMARK  status: ('A' for Active; 'I' for Inactive)
REMARK    1  A    between atoms: C_1  and  C_2
REMARK    2  A    between atoms: C_7  and  C_10
REMARK    3  A    between atoms: C_14  and  C_23
REMARK    4  A    between atoms: N_25  and  C_26
REMARK    5  A    between atoms: C_26  and  C_27
REMARK    6  A    between atoms: C_32  and  N_33
REMARK                            x       y       z     vdW  Elec       q    Type
REMARK                         _______ _______ _______ _____ _____    ______ ____
ROOT
ATOM      1  C   UNL     1      -3.052  -2.185  -3.688  0.00  0.00    +0.219 C 
ATOM      2  O   UNL     1      -2.294  -1.750  -2.847  0.00  0.00    -0.275 OA
ATOM      3  N   UNL     1      -2.969  -3.476  -4.066  0.00  0.00    -0.300 N 
ATOM      4  C   UNL     1      -1.974  -4.487  -3.636  0.00  0.00    +0.121 C 
ATOM      5  C   UNL     1      -2.787  -5.790  -3.472  0.00  0.00    +0.100 C 
ATOM      6  C   UNL     1      -4.019  -5.601  -4.373  0.00  0.00    -0.004 C 
ATOM      7  C   UNL     1      -3.858  -4.208  -4.999  0.00  0.00    +0.115 C 
ATOM      8  C   UNL     1      -5.296  -5.655  -3.540  0.00  0.00    -0.010 C 
ATOM      9  C   UNL     1      -6.509  -5.522  -4.465  0.00  0.00    -0.082 C 
ATOM     10  N   UNL     1      -6.497  -6.610  -5.451  0.00  0.00    +0.379 N 
ATOM     11  C   UNL     1      -5.311  -6.496  -6.308  0.00  0.00    -0.082 C 
ATOM     12  C   UNL     1      -4.047  -6.670  -5.461  0.00  0.00    -0.010 C 
ATOM     13  H   UNL     1      -6.479  -7.497  -4.970  0.00  0.00    -0.086 HD
ATOM     14  H   UNL     1      -7.328  -6.556  -6.020  0.00  0.00    -0.086 HD
ENDROOT
BRANCH   1  21
ATOM     15  C   UNL     1      -4.633   2.798  -7.214  0.00  0.00    +0.109 C 
ATOM     16  C   UNL     1      -4.938   2.459  -5.777  0.00  0.00    +0.212 C 
ATOM     17  O   UNL     1      -5.131   3.346  -4.973  0.00  0.00    -0.276 OA
ATOM     18  N   UNL     1      -4.995   1.171  -5.386  0.00  0.00    -0.302 N 
ATOM     19  C   UNL     1      -5.401   0.821  -4.018  0.00  0.00    +0.108 C 
ATOM     20  C   UNL     1      -4.325  -0.077  -3.399  0.00  0.00    +0.032 C 
ATOM     21  C   UNL     1      -4.085  -1.282  -4.311  0.00  0.00    +0.078 C 
ATOM     22  C   UNL     1      -3.586  -0.800  -5.675  0.00  0.00    +0.032 C 
ATOM     23  C   UNL     1      -4.659   0.089  -6.322  0.00  0.00    +0.108 C 
ENDBRANCH   1  21
BRANCH   5  24
ATOM     24  C   UNL     1      -3.207  -5.969  -2.035  0.00  0.00    +0.218 C 
ATOM     25  O   UNL     1      -3.397  -4.998  -1.334  0.00  0.00    -0.275 OA
ATOM     26  N   UNL     1      -3.371  -7.207  -1.530  0.00  0.00    -0.311 N 
ATOM     27  H   UNL     1      -3.147  -7.984  -2.067  0.00  0.00    +0.149 HD
BRANCH  26  28
ATOM     28  C   UNL     1      -3.887  -7.381  -0.170  0.00  0.00    +0.141 C 
BRANCH  28  29
ATOM     29  C   UNL     1      -3.862  -8.844   0.193  0.00  0.00    -0.009 A 
ATOM     30  C   UNL     1      -5.006  -9.607   0.067  0.00  0.00    +0.007 A 
ATOM     31  C   UNL     1      -4.984 -10.949   0.401  0.00  0.00    +0.000 A 
ATOM     32  C   UNL     1      -3.817 -11.531   0.862  0.00  0.00    +0.002 A 
ATOM     33  C   UNL     1      -2.670 -10.774   0.990  0.00  0.00    +0.023 A 
ATOM     34  C   UNL     1      -2.687  -9.427   0.650  0.00  0.00    +0.034 A 
BRANCH  34  35
ATOM     35  N   UNL     1      -1.527  -8.659   0.774  0.00  0.00    -0.330 N 
ATOM     36  C   UNL     1      -1.214  -7.971   2.034  0.00  0.00    +0.105 C 
ATOM     37  C   UNL     1       0.197  -8.371   2.477  0.00  0.00    +0.019 C 
ATOM     38  C   UNL     1       1.183  -8.083   1.343  0.00  0.00    +0.003 C 
ATOM     39  C   UNL     1       0.809  -8.915   0.115  0.00  0.00    +0.019 C 
ATOM     40  C   UNL     1      -0.593  -8.527  -0.353  0.00  0.00    +0.105 C 
ENDBRANCH  34  35
ENDBRANCH  28  29
ENDBRANCH  26  28
ENDBRANCH   5  24
TORSDOF 5
