REMARK  Name = ZINC12496064
REMARK  12 active torsions:
REMARK  status: ('A' for Active; 'I' for Inactive)
REMARK    1  A    between atoms: C_1  and  C_2
REMARK    2  A    between atoms: C_2  and  N_3
REMARK    3  A    between atoms: C_8  and  C_27
REMARK    4  A    between atoms: C_10  and  C_15
REMARK    5  A    between atoms: C_10  and  C_22
REMARK    6  A    between atoms: C_15  and  C_16
REMARK    7  A    between atoms: C_22  and  O_24
REMARK    8  A    between atoms: O_24  and  C_25
REMARK    9  A    between atoms: C_25  and  C_26
REMARK   10  A    between atoms: C_30  and  O_35
REMARK   11  A    between atoms: C_31  and  O_33
REMARK   12  A    between atoms: O_33  and  C_34
REMARK                            x       y       z     vdW  Elec       q    Type
REMARK                         _______ _______ _______ _____ _____    ______ ____
ROOT
ATOM      1  N   UNL     1      -1.346  -4.262  -1.440  0.00  0.00    -0.242 N 
ATOM      2  C   UNL     1      -2.473  -3.642  -1.904  0.00  0.00    +0.224 C 
ATOM      3  O   UNL     1      -3.152  -3.975  -2.851  0.00  0.00    -0.275 OA
ATOM      4  C   UNL     1      -2.696  -2.470  -1.002  0.00  0.00    +0.077 C 
ATOM      5  C   UNL     1      -3.117  -1.115  -1.546  0.00  0.00    -0.027 C 
ATOM      6  C   UNL     1      -1.277  -0.863   0.009  0.00  0.00    +0.048 C 
ATOM      7  C   UNL     1      -1.182  -2.145  -0.711  0.00  0.00    +0.086 C 
ATOM      8  C   UNL     1      -0.623  -3.473  -0.580  0.00  0.00    +0.225 C 
ATOM      9  O   UNL     1       0.285  -3.815   0.147  0.00  0.00    -0.275 OA
ATOM     10  N   UNL     1      -2.293  -0.124  -0.804  0.00  0.00    +0.396 N 
ATOM     11  H   UNL     1      -2.894   0.432  -0.184  0.00  0.00    -0.083 HD
ATOM     12  H   UNL     1      -1.819   0.498  -1.469  0.00  0.00    -0.083 HD
ENDROOT
BRANCH   5  13
ATOM     13  C   UNL     1      -2.830  -1.035  -3.023  0.00  0.00    -0.057 A 
ATOM     14  C   UNL     1      -3.833  -1.304  -3.936  0.00  0.00    +0.006 A 
ATOM     15  C   UNL     1      -3.575  -1.232  -5.292  0.00  0.00    +0.049 A 
ATOM     16  C   UNL     1      -2.308  -0.889  -5.739  0.00  0.00    +0.158 A 
ATOM     17  C   UNL     1      -1.299  -0.618  -4.820  0.00  0.00    +0.161 A 
ATOM     18  C   UNL     1      -1.566  -0.687  -3.462  0.00  0.00    +0.051 A 
BRANCH  17  19
ATOM     19  O   UNL     1      -0.055  -0.281  -5.254  0.00  0.00    -0.491 OA
ATOM     20  C   UNL     1       0.931  -0.017  -4.254  0.00  0.00    +0.277 C 
ENDBRANCH  17  19
BRANCH  16  21
ATOM     21  O   UNL     1      -2.053  -0.817  -7.073  0.00  0.00    -0.503 OA
ATOM     22  H   UNL     1      -2.209   0.057  -7.457  0.00  0.00    +0.292 HD
ENDBRANCH  16  21
ENDBRANCH   5  13
BRANCH   1  24
ATOM     23  C   UNL     1      -0.067  -5.566  -3.067  0.00  0.00    +0.025 C 
ATOM     24  C   UNL     1      -0.953  -5.621  -1.821  0.00  0.00    +0.113 C 
ENDBRANCH   1  24
BRANCH   6  25
ATOM     25  C   UNL     1       0.048  -0.146   0.003  0.00  0.00    +0.297 C 
ATOM     26  O   UNL     1       1.078  -0.779  -0.017  0.00  0.00    -0.252 OA
BRANCH  25  27
ATOM     27  O   UNL     1       0.086   1.196   0.021  0.00  0.00    -0.466 OA
BRANCH  27  28
ATOM     28  C   UNL     1       1.397   1.819   0.015  0.00  0.00    +0.228 C 
ATOM     29  C   UNL     1       1.239   3.340   0.038  0.00  0.00    +0.048 C 
ENDBRANCH  27  28
ENDBRANCH  25  27
ENDBRANCH   6  25
BRANCH   6  30
ATOM     30  C   UNL     1      -1.773  -1.074   1.440  0.00  0.00    +0.034 C 
BRANCH  30  31
ATOM     31  C   UNL     1      -2.041   0.263   2.081  0.00  0.00    -0.048 A 
ATOM     32  C   UNL     1      -1.037   0.911   2.776  0.00  0.00    +0.003 A 
ATOM     33  C   UNL     1      -1.282   2.140   3.360  0.00  0.00    +0.000 A 
ATOM     34  C   UNL     1      -2.534   2.717   3.257  0.00  0.00    +0.000 A 
ATOM     35  C   UNL     1      -3.539   2.067   2.566  0.00  0.00    +0.000 A 
ATOM     36  C   UNL     1      -3.293   0.841   1.978  0.00  0.00    +0.003 A 
ENDBRANCH  30  31
ENDBRANCH   6  30
TORSDOF 9
