REMARK  Name = ZINC40740046
REMARK  12 active torsions:
REMARK  status: ('A' for Active; 'I' for Inactive)
REMARK    1  A    between atoms: C_1  and  C_2
REMARK    2  A    between atoms: C_2  and  O_3
REMARK    3  A    between atoms: O_3  and  C_4
REMARK    4  A    between atoms: C_6  and  C_20
REMARK    5  A    between atoms: C_9  and  O_10
REMARK    6  A    between atoms: O_10  and  C_11
REMARK    7  A    between atoms: C_11  and  C_12
REMARK    8  A    between atoms: C_16  and  C_18
REMARK    9  A    between atoms: C_20  and  N_21
REMARK   10  A    between atoms: N_21  and  C_22
REMARK   11  A    between atoms: C_26  and  C_33
REMARK   12  A    between atoms: C_29  and  C_32
REMARK                            x       y       z     vdW  Elec       q    Type
REMARK                         _______ _______ _______ _____ _____    ______ ____
ROOT
ATOM      1  C   UNL     1       0.802  -1.825   1.306  0.00  0.00    +0.163 A 
ATOM      2  C   UNL     1       0.260  -2.673   0.352  0.00  0.00    +0.051 A 
ATOM      3  C   UNL     1       0.371  -4.043   0.502  0.00  0.00    -0.060 A 
ATOM      4  C   UNL     1       1.022  -4.571   1.602  0.00  0.00    +0.021 A 
ATOM      5  C   UNL     1       1.565  -3.730   2.557  0.00  0.00    +0.063 A 
ATOM      6  C   UNL     1       1.462  -2.356   2.409  0.00  0.00    +0.176 A 
ATOM      7 BR   UNL     1       2.453  -4.456   4.061  0.00  0.00    -0.046 Br
ENDROOT
BRANCH   1   8
ATOM      8  O   UNL     1       0.693  -0.477   1.160  0.00  0.00    -0.489 OA
BRANCH   8  10
ATOM      9  C   UNL     1      -0.019   1.526   0.010  0.00  0.00    +0.048 C 
ATOM     10  C   UNL     1       0.002  -0.004   0.002  0.00  0.00    +0.226 C 
ENDBRANCH   8  10
ENDBRANCH   1   8
BRANCH   6  11
ATOM     11  O   UNL     1       2.000  -1.528   3.345  0.00  0.00    -0.483 OA
BRANCH  11  12
ATOM     12  C   UNL     1       1.161  -1.151   4.438  0.00  0.00    +0.264 C 
BRANCH  12  13
ATOM     13  C   UNL     1       1.922  -0.238   5.365  0.00  0.00    -0.010 A 
ATOM     14  C   UNL     1       2.658  -0.770   6.408  0.00  0.00    +0.007 A 
ATOM     15  C   UNL     1       3.356   0.067   7.258  0.00  0.00    +0.001 A 
ATOM     16  C   UNL     1       3.318   1.435   7.065  0.00  0.00    +0.003 A 
ATOM     17  C   UNL     1       2.583   1.967   6.022  0.00  0.00    -0.050 A 
ATOM     18  C   UNL     1       1.888   1.129   5.169  0.00  0.00    +0.010 A 
ATOM     19  C   UNL     1       2.542   3.458   5.813  0.00  0.00    +0.044 C 
ENDBRANCH  12  13
ENDBRANCH  11  12
ENDBRANCH   6  11
BRANCH   3  20
ATOM     20  C   UNL     1      -0.219  -4.963  -0.535  0.00  0.00    -0.046 C 
BRANCH  20  21
ATOM     21  N   UNL     1       0.785  -5.241  -1.571  0.00  0.00    +0.385 N 
ATOM     22  H   UNL     1       1.066  -4.376  -2.008  0.00  0.00    -0.085 HD
ATOM     23  H   UNL     1       1.589  -5.681  -1.149  0.00  0.00    -0.085 HD
BRANCH  21  24
ATOM     24  C   UNL     1       0.210  -6.138  -2.582  0.00  0.00    -0.067 C 
ATOM     25  C   UNL     1      -1.010  -5.470  -3.221  0.00  0.00    -0.009 C 
ATOM     26  C   UNL     1      -1.609  -6.404  -4.274  0.00  0.00    -0.011 C 
ATOM     27  C   UNL     1      -0.563  -6.694  -5.353  0.00  0.00    +0.010 C 
ATOM     28  C   UNL     1       0.656  -7.362  -4.714  0.00  0.00    -0.033 C 
ATOM     29  C   UNL     1       1.256  -6.428  -3.660  0.00  0.00    -0.006 C 
ATOM     30  C   UNL     1       0.231  -8.673  -4.050  0.00  0.00    +0.013 C 
ATOM     31  C   UNL     1      -0.815  -8.383  -2.972  0.00  0.00    -0.033 C 
ATOM     32  C   UNL     1      -2.034  -7.715  -3.610  0.00  0.00    +0.010 C 
ATOM     33  C   UNL     1      -0.215  -7.449  -1.918  0.00  0.00    -0.006 C 
ATOM     34  C   UNL     1      -1.240  -9.694  -2.308  0.00  0.00    +0.011 C 
ATOM     35  C   UNL     1       1.702  -7.652  -5.792  0.00  0.00    +0.011 C 
ENDBRANCH  21  24
ENDBRANCH  20  21
ENDBRANCH   3  20
TORSDOF 8
