REMARK  Name = ZINC13221292
REMARK  12 active torsions:
REMARK  status: ('A' for Active; 'I' for Inactive)
REMARK    1  A    between atoms: C_1  and  C_2
REMARK    2  A    between atoms: C_2  and  C_3
REMARK    3  A    between atoms: C_8  and  N_9
REMARK    4  A    between atoms: C_10  and  C_12
REMARK    5  A    between atoms: C_12  and  N_13
REMARK    6  A    between atoms: N_13  and  C_14
REMARK    7  A    between atoms: C_15  and  C_17
REMARK    8  A    between atoms: C_17  and  S_18
REMARK    9  A    between atoms: S_18  and  C_19
REMARK   10  A    between atoms: N_29  and  C_30
REMARK   11  A    between atoms: C_30  and  C_31
REMARK   12  A    between atoms: C_31  and  C_32
REMARK                            x       y       z     vdW  Elec       q    Type
REMARK                         _______ _______ _______ _____ _____    ______ ____
ROOT
ATOM      1  C   UNL     1      -1.702  -2.461   3.340  0.00  0.00    +0.173 C 
ENDROOT
BRANCH   1   4
ATOM      2  N   UNL     1      -2.985  -4.564   3.562  0.00  0.00    -0.295 N 
ATOM      3  C   UNL     1      -2.178  -4.877   4.743  0.00  0.00    +0.132 C 
ATOM      4  C   UNL     1      -2.772  -3.419   2.883  0.00  0.00    +0.226 C 
ATOM      5  O   UNL     1      -3.441  -3.160   1.905  0.00  0.00    -0.275 OA
BRANCH   2   6
ATOM      6  C   UNL     1      -4.025  -5.496   3.117  0.00  0.00    +0.203 C 
BRANCH   6   8
ATOM      7  N   UNL     1      -4.210  -7.438   1.597  0.00  0.00    -0.284 N 
ATOM      8  C   UNL     1      -3.434  -6.480   2.141  0.00  0.00    +0.235 C 
ATOM      9  O   UNL     1      -2.260  -6.410   1.846  0.00  0.00    -0.274 OA
ATOM     10  H   UNL     1      -5.128  -7.545   1.892  0.00  0.00    +0.155 HD
BRANCH   7  16
ATOM     11  C   UNL     1      -4.244  -9.535   0.400  0.00  0.00    -0.026 A 
ATOM     12  C   UNL     1      -3.731 -10.363  -0.580  0.00  0.00    +0.005 A 
ATOM     13  C   UNL     1      -2.668  -9.940  -1.357  0.00  0.00    +0.000 A 
ATOM     14  C   UNL     1      -2.116  -8.687  -1.155  0.00  0.00    +0.002 A 
ATOM     15  C   UNL     1      -2.628  -7.854  -0.181  0.00  0.00    +0.023 A 
ATOM     16  C   UNL     1      -3.692  -8.278   0.605  0.00  0.00    +0.037 A 
BRANCH  11  18
ATOM     17  C   UNL     1      -6.712  -9.485   0.640  0.00  0.00    +0.009 C 
ATOM     18  C   UNL     1      -5.403  -9.997   1.246  0.00  0.00    +0.033 C 
ENDBRANCH  11  18
ENDBRANCH   7  16
ENDBRANCH   6   8
ENDBRANCH   2   6
ENDBRANCH   1   4
BRANCH   1  19
ATOM     19  S   UNL     1      -1.661  -1.030   2.233  0.00  0.00    -0.078 S 
BRANCH  19  20
ATOM     20  C   UNL     1      -0.362  -0.103   2.979  0.00  0.00    +0.173 A 
ATOM     21  N   UNL     1       0.225  -0.594   4.042  0.00  0.00    -0.223 NA
ATOM     22  C   UNL     1       1.223   0.064   4.666  0.00  0.00    +0.079 A 
ATOM     23  C   UNL     1       1.845  -0.458   5.804  0.00  0.00    +0.028 A 
ATOM     24  C   UNL     1       2.851   0.243   6.406  0.00  0.00    +0.002 A 
ATOM     25  C   UNL     1       3.267   1.470   5.904  0.00  0.00    +0.001 A 
ATOM     26  C   UNL     1       2.678   2.007   4.793  0.00  0.00    +0.015 A 
ATOM     27  C   UNL     1       1.649   1.312   4.159  0.00  0.00    +0.065 A 
ATOM     28  C   UNL     1       0.978   1.840   2.962  0.00  0.00    +0.262 A 
ATOM     29  O   UNL     1       1.301   2.909   2.478  0.00  0.00    -0.267 OA
ATOM     30  N   UNL     1      -0.011   1.093   2.419  0.00  0.00    -0.287 N 
BRANCH  30  31
ATOM     31  C   UNL     1      -0.713   1.571   1.226  0.00  0.00    +0.138 C 
BRANCH  31  32
ATOM     32  C   UNL     1       0.009   1.069  -0.026  0.00  0.00    +0.147 C 
BRANCH  32  33
ATOM     33  C   UNL     1      -0.714   1.561  -1.254  0.00  0.00    +0.358 C 
ATOM     34  O   UNL     1      -1.704   2.244  -1.139  0.00  0.00    -0.246 OA
ATOM     35  O   UNL     1      -0.257   1.241  -2.475  0.00  0.00    -0.246 OA
ENDBRANCH  32  33
ENDBRANCH  31  32
ENDBRANCH  30  31
ENDBRANCH  19  20
ENDBRANCH   1  19
TORSDOF 10
