REMARK  Name = ZINC36208010
REMARK  13 active torsions:
REMARK  status: ('A' for Active; 'I' for Inactive)
REMARK    1  A    between atoms: C_1  and  C_2
REMARK    2  A    between atoms: C_15  and  C_17
REMARK    3  A    between atoms: C_17  and  N_18
REMARK    4  A    between atoms: N_18  and  C_19
REMARK    5  A    between atoms: N_18  and  C_23
REMARK    6  A    between atoms: C_19  and  C_20
REMARK    7  A    between atoms: C_20  and  O_21
REMARK    8  A    between atoms: O_21  and  C_22
REMARK    9  A    between atoms: C_23  and  C_24
REMARK   10  A    between atoms: C_24  and  C_26
REMARK   11  A    between atoms: C_24  and  O_35
REMARK   12  A    between atoms: C_26  and  O_27
REMARK   13  A    between atoms: O_27  and  C_28
REMARK                            x       y       z     vdW  Elec       q    Type
REMARK                         _______ _______ _______ _____ _____    ______ ____
ROOT
ATOM      1  N   UNL     1       1.251  -8.410   3.353  0.00  0.00    +0.388 N 
ATOM      2  H   UNL     1       2.245  -8.316   3.208  0.00  0.00    -0.081 HD
ENDROOT
BRANCH   1   3
ATOM      3  C   UNL     1       0.533  -7.871   2.190  0.00  0.00    -0.003 C 
BRANCH   3  17
ATOM      4  C   UNL     1       4.287   1.284   1.075  0.00  0.00    +0.008 C 
ATOM      5  C   UNL     1       3.832  -0.168   0.909  0.00  0.00    -0.009 C 
ATOM      6  C   UNL     1       2.341  -0.202   0.560  0.00  0.00    +0.008 C 
ATOM      7  C   UNL     1       1.937  -1.619   0.151  0.00  0.00    +0.037 C 
ATOM      8  C   UNL     1       2.376  -2.592   1.242  0.00  0.00    -0.023 A 
ATOM      9  C   UNL     1       3.321  -2.235   2.143  0.00  0.00    -0.004 A 
ATOM     10  S   UNL     1       3.512  -3.648   3.201  0.00  0.00    -0.073 S 
ATOM     11  C   UNL     1       2.329  -4.710   2.436  0.00  0.00    +0.116 A 
ATOM     12  C   UNL     1       1.820  -3.927   1.376  0.00  0.00    +0.075 A 
ATOM     13  C   UNL     1       0.814  -4.527   0.546  0.00  0.00    +0.260 A 
ATOM     14  O   UNL     1       0.311  -3.936  -0.394  0.00  0.00    -0.267 OA
ATOM     15  N   UNL     1       0.459  -5.792   0.876  0.00  0.00    -0.312 N 
ATOM     16  H   UNL     1      -0.218  -6.236   0.342  0.00  0.00    +0.170 HD
ATOM     17  C   UNL     1       1.005  -6.466   1.916  0.00  0.00    +0.094 A 
ATOM     18  N   UNL     1       1.929  -5.951   2.698  0.00  0.00    -0.229 NA
ATOM     19  C   UNL     1       4.050  -0.929   2.225  0.00  0.00    +0.046 C 
ENDBRANCH   3  17
ENDBRANCH   1   3
BRANCH   1  20
ATOM     20  C   UNL     1       0.859  -7.668   4.558  0.00  0.00    -0.050 C 
BRANCH  20  21
ATOM     21  C   UNL     1       1.694  -8.148   5.747  0.00  0.00    +0.141 C 
BRANCH  21  22
ATOM     22  O   UNL     1       3.070  -7.835   5.519  0.00  0.00    -0.385 OA
ATOM     23  C   UNL     1       3.941  -8.243   6.576  0.00  0.00    +0.193 C 
ENDBRANCH  21  22
ENDBRANCH  20  21
ENDBRANCH   1  20
BRANCH   1  24
ATOM     24  C   UNL     1       0.913  -9.830   3.521  0.00  0.00    -0.043 C 
BRANCH  24  25
ATOM     25  C   UNL     1       1.499 -10.635   2.359  0.00  0.00    +0.135 C 
BRANCH  25  26
ATOM     26  O   UNL     1       0.776 -10.340   1.163  0.00  0.00    -0.390 OA
ATOM     27  H   UNL     1      -0.166 -10.552   1.210  0.00  0.00    +0.210 HD
ENDBRANCH  25  26
BRANCH  25  28
ATOM     28  C   UNL     1       1.388 -12.130   2.667  0.00  0.00    +0.258 C 
BRANCH  28  29
ATOM     29  O   UNL     1       2.039 -12.877   1.638  0.00  0.00    -0.489 OA
BRANCH  29  30
ATOM     30  C   UNL     1       2.032 -14.231   1.760  0.00  0.00    +0.121 A 
ATOM     31  C   UNL     1       1.406 -14.827   2.845  0.00  0.00    +0.047 A 
ATOM     32  C   UNL     1       1.400 -16.203   2.968  0.00  0.00    +0.023 A 
ATOM     33  C   UNL     1       2.018 -16.987   2.009  0.00  0.00    +0.041 A 
ATOM     34  C   UNL     1       2.643 -16.394   0.926  0.00  0.00    +0.023 A 
ATOM     35  C   UNL     1       2.645 -15.019   0.797  0.00  0.00    +0.047 A 
ATOM     36 CL   UNL     1       2.009 -18.715   2.166  0.00  0.00    -0.084 Cl
ENDBRANCH  29  30
ENDBRANCH  28  29
ENDBRANCH  25  28
ENDBRANCH  24  25
ENDBRANCH   1  24
TORSDOF 11
