REMARK  Name = ZINC03372867
REMARK  7 active torsions:
REMARK  status: ('A' for Active; 'I' for Inactive)
REMARK    1  A    between atoms: C_7  and  C_11
REMARK    2  A    between atoms: C_11  and  C_13
REMARK    3  A    between atoms: C_13  and  O_14
REMARK    4  A    between atoms: O_14  and  C_15
REMARK    5  A    between atoms: C_15  and  C_17
REMARK    6  A    between atoms: N_25  and  C_28
REMARK    7  A    between atoms: C_28  and  C_29
REMARK                            x       y       z     vdW  Elec       q    Type
REMARK                         _______ _______ _______ _____ _____    ______ ____
ROOT
ATOM      1  C   UNL     1      -1.245   3.147   0.029  0.00  0.00    +0.060 A 
ATOM      2  C   UNL     1      -1.220   1.753   0.017  0.00  0.00    +0.016 A 
ATOM      3  C   UNL     1      -0.013   1.076   0.008  0.00  0.00    +0.014 A 
ATOM      4  C   UNL     1       1.177   1.786   0.000  0.00  0.00    +0.049 A 
ATOM      5  C   UNL     1       1.159   3.196   0.008  0.00  0.00    +0.050 A 
ATOM      6  C   UNL     1      -0.049   3.871   0.022  0.00  0.00    +0.028 A 
ATOM      7  C   UNL     1       2.575   3.619  -0.003  0.00  0.00    +0.254 C 
ATOM      8  O   UNL     1       2.972   4.767  -0.001  0.00  0.00    -0.270 OA
ATOM      9  N   UNL     1       3.352   2.521  -0.016  0.00  0.00    -0.227 N 
ATOM     10  C   UNL     1       2.607   1.401  -0.015  0.00  0.00    +0.254 C 
ATOM     11  O   UNL     1       3.035   0.265  -0.025  0.00  0.00    -0.270 OA
ENDROOT
BRANCH   1  12
ATOM     12  C   UNL     1      -2.540   3.862   0.044  0.00  0.00    +0.340 C 
ATOM     13  O   UNL     1      -2.563   5.076   0.050  0.00  0.00    -0.245 OA
BRANCH  12  14
ATOM     14  O   UNL     1      -3.693   3.166   0.051  0.00  0.00    -0.453 OA
BRANCH  14  15
ATOM     15  C   UNL     1      -4.926   3.933   0.065  0.00  0.00    +0.312 C 
BRANCH  15  16
ATOM     16  C   UNL     1      -6.103   2.993   0.071  0.00  0.00    +0.202 C 
ATOM     17  O   UNL     1      -5.921   1.792   0.064  0.00  0.00    -0.288 OA
BRANCH  16  24
ATOM     18  C   UNL     1     -10.290   0.961   0.098  0.00  0.00    +0.001 A 
ATOM     19  C   UNL     1     -11.315   1.895   0.111  0.00  0.00    +0.002 A 
ATOM     20  C   UNL     1     -11.036   3.244   0.115  0.00  0.00    +0.026 A 
ATOM     21  C   UNL     1      -9.714   3.680   0.106  0.00  0.00    +0.047 A 
ATOM     22  C   UNL     1      -8.679   2.733   0.093  0.00  0.00    +0.010 A 
ATOM     23  C   UNL     1      -8.975   1.373   0.088  0.00  0.00    +0.011 A 
ATOM     24  C   UNL     1      -7.423   3.509   0.085  0.00  0.00    +0.046 A 
ATOM     25  C   UNL     1      -7.792   4.837   0.101  0.00  0.00    +0.095 A 
ATOM     26  N   UNL     1      -9.136   4.933   0.107  0.00  0.00    -0.360 N 
ATOM     27  H   UNL     1      -9.629   5.768   0.116  0.00  0.00    +0.165 HD
ENDBRANCH  16  24
ENDBRANCH  15  16
ENDBRANCH  14  15
ENDBRANCH  12  14
ENDBRANCH   1  12
BRANCH   9  28
ATOM     28  C   UNL     1       4.817   2.542  -0.029  0.00  0.00    +0.191 C 
BRANCH  28  29
ATOM     29  C   UNL     1       5.332   2.542   1.387  0.00  0.00    +0.123 A 
ATOM     30  C   UNL     1       5.611   1.450   2.122  0.00  0.00    +0.046 A 
ATOM     31  C   UNL     1       6.066   1.909   3.380  0.00  0.00    +0.041 A 
ATOM     32  C   UNL     1       6.030   3.253   3.340  0.00  0.00    +0.195 A 
ATOM     33  O   UNL     1       5.584   3.631   2.131  0.00  0.00    -0.466 OA
ENDBRANCH  28  29
ENDBRANCH   9  28
TORSDOF 7
