REMARK  Name = ZINC22851979
REMARK  6 active torsions:
REMARK  status: ('A' for Active; 'I' for Inactive)
REMARK    1  A    between atoms: C_5  and  N_7
REMARK    2  A    between atoms: N_10  and  C_13
REMARK    3  A    between atoms: C_13  and  C_15
REMARK    4  A    between atoms: C_13  and  C_22
REMARK    5  A    between atoms: C_23  and  O_35
REMARK    6  A    between atoms: C_28  and  C_30
REMARK                            x       y       z     vdW  Elec       q    Type
REMARK                         _______ _______ _______ _____ _____    ______ ____
ROOT
ATOM      1  C   UNL     1       2.490   1.047  -0.016  0.00  0.00    +0.129 C 
ENDROOT
BRANCH   1   2
ATOM      2  C   UNL     1       2.797   0.985  -1.490  0.00  0.00    +0.076 A 
ATOM      3  C   UNL     1       2.659  -0.040  -2.339  0.00  0.00    +0.228 A 
ATOM      4  N   UNL     1       2.995   0.096  -3.664  0.00  0.00    -0.173 N 
ATOM      5  C   UNL     1       3.471   1.315  -4.064  0.00  0.00    +0.200 A 
ATOM      6  S   UNL     1       3.434   2.264  -2.563  0.00  0.00    -0.047 S 
ATOM      7  N   UNL     1       3.743   1.284  -5.338  0.00  0.00    -0.197 NA
ATOM      8  C   UNL     1       3.463   0.066  -5.822  0.00  0.00    +0.218 A 
ATOM      9  N   UNL     1       3.007  -0.689  -4.846  0.00  0.00    -0.138 NA
BRANCH   8  10
ATOM     10  C   UNL     1       3.638  -0.361  -7.226  0.00  0.00    +0.173 A 
ATOM     11  C   UNL     1       4.108   0.411  -8.242  0.00  0.00    +0.053 A 
ATOM     12  C   UNL     1       4.108  -0.396  -9.397  0.00  0.00    +0.042 A 
ATOM     13  C   UNL     1       3.644  -1.607  -9.034  0.00  0.00    +0.196 A 
ATOM     14  O   UNL     1       3.365  -1.584  -7.720  0.00  0.00    -0.460 OA
ENDBRANCH   8  10
BRANCH   3  15
ATOM     15  O   UNL     1       2.180  -1.229  -1.885  0.00  0.00    -0.492 OA
ATOM     16  H   UNL     1       2.063  -2.076  -2.577  0.00  0.00    +0.294 HD
ENDBRANCH   3  15
ENDBRANCH   1   2
BRANCH   1  17
ATOM     17  C   UNL     1       1.240   1.860   0.203  0.00  0.00    -0.025 A 
ATOM     18  C   UNL     1       0.056   1.230   0.536  0.00  0.00    +0.007 A 
ATOM     19  C   UNL     1      -1.092   1.974   0.732  0.00  0.00    +0.020 A 
ATOM     20  C   UNL     1      -1.054   3.351   0.605  0.00  0.00    +0.041 A 
ATOM     21  C   UNL     1       0.132   3.981   0.271  0.00  0.00    +0.020 A 
ATOM     22  C   UNL     1       1.278   3.235   0.070  0.00  0.00    +0.007 A 
ATOM     23 CL   UNL     1      -2.494   4.287   0.856  0.00  0.00    -0.084 Cl
ENDBRANCH   1  17
BRANCH   1  27
ATOM     24  N   UNL     1       5.753   1.771   2.568  0.00  0.00    -0.325 N 
ATOM     25  C   UNL     1       4.499   2.494   2.823  0.00  0.00    +0.120 C 
ATOM     26  C   UNL     1       3.343   1.764   2.134  0.00  0.00    +0.104 C 
ATOM     27  N   UNL     1       3.613   1.675   0.692  0.00  0.00    -0.288 NA
ATOM     28  C   UNL     1       4.867   0.952   0.438  0.00  0.00    +0.104 C 
ATOM     29  C   UNL     1       6.022   1.682   1.127  0.00  0.00    +0.120 C 
BRANCH  24  34
ATOM     30  C   UNL     1       7.856   3.069   5.290  0.00  0.00    +0.002 A 
ATOM     31  C   UNL     1       8.937   3.554   4.578  0.00  0.00    +0.003 A 
ATOM     32  C   UNL     1       8.965   3.450   3.199  0.00  0.00    +0.040 A 
ATOM     33  C   UNL     1       7.910   2.858   2.528  0.00  0.00    +0.144 A 
ATOM     34  C   UNL     1       6.822   2.369   3.243  0.00  0.00    +0.065 A 
ATOM     35  C   UNL     1       6.797   2.481   4.626  0.00  0.00    +0.026 A 
ATOM     36  F   UNL     1       7.936   2.757   1.181  0.00  0.00    -0.204 F 
ENDBRANCH  24  34
ENDBRANCH   1  27
TORSDOF 6
