REMARK  Name = ZINC13223182
REMARK  10 active torsions:
REMARK  status: ('A' for Active; 'I' for Inactive)
REMARK    1  A    between atoms: C_1  and  C_2
REMARK    2  A    between atoms: C_4  and  C_17
REMARK    3  A    between atoms: C_5  and  C_16
REMARK    4  A    between atoms: N_6  and  C_7
REMARK    5  A    between atoms: C_11  and  N_13
REMARK    6  A    between atoms: C_17  and  C_19
REMARK    7  A    between atoms: C_19  and  S_20
REMARK    8  A    between atoms: S_20  and  C_21
REMARK    9  A    between atoms: N_31  and  C_32
REMARK   10  A    between atoms: C_32  and  C_33
REMARK                            x       y       z     vdW  Elec       q    Type
REMARK                         _______ _______ _______ _____ _____    ______ ____
ROOT
ATOM      1  C   UNL     1      -0.767   8.501   1.481  0.00  0.00    +0.175 C 
ATOM      2  O   UNL     1      -1.264   8.355   2.578  0.00  0.00    -0.291 OA
ENDROOT
BRANCH   1   6
ATOM      3  C   UNL     1       0.979   5.541  -2.281  0.00  0.00    +0.064 C 
ATOM      4  C   UNL     1       0.385   6.036  -0.988  0.00  0.00    +0.022 A 
ATOM      5  C   UNL     1       0.216   7.325  -0.651  0.00  0.00    +0.034 A 
ATOM      6  C   UNL     1      -0.392   7.330   0.686  0.00  0.00    +0.039 A 
ATOM      7  C   UNL     1      -0.542   6.001   1.038  0.00  0.00    +0.031 A 
ATOM      8  N   UNL     1      -0.069   5.244   0.030  0.00  0.00    -0.317 N 
ATOM      9  C   UNL     1      -1.131   5.489   2.328  0.00  0.00    +0.064 C 
BRANCH   8  10
ATOM     10  C   UNL     1      -0.050   3.842   0.023  0.00  0.00    +0.049 A 
ATOM     11  C   UNL     1      -1.242   3.130   0.030  0.00  0.00    +0.026 A 
ATOM     12  C   UNL     1      -1.220   1.750   0.017  0.00  0.00    +0.004 A 
ATOM     13  C   UNL     1      -0.013   1.076   0.008  0.00  0.00    +0.033 A 
ATOM     14  C   UNL     1       1.176   1.782   0.000  0.00  0.00    +0.128 A 
ATOM     15  C   UNL     1       1.161   3.163   0.008  0.00  0.00    +0.058 A 
BRANCH  14  16
ATOM     16  N   UNL     1       2.466   1.057  -0.015  0.00  0.00    +0.056 N 
ATOM     17  O   UNL     1       2.481  -0.161  -0.022  0.00  0.00    -0.126 OA
ATOM     18  O   UNL     1       3.514   1.679  -0.022  0.00  0.00    -0.126 OA
ENDBRANCH  14  16
ENDBRANCH   8  10
ENDBRANCH   1   6
BRANCH   1  19
ATOM     19  C   UNL     1      -0.535   9.886   0.936  0.00  0.00    +0.157 C 
BRANCH  19  20
ATOM     20  S   UNL     1      -1.098  11.111   2.144  0.00  0.00    -0.080 S 
BRANCH  20  21
ATOM     21  C   UNL     1      -0.719  12.596   1.274  0.00  0.00    +0.173 A 
ATOM     22  N   UNL     1      -0.173  12.502   0.087  0.00  0.00    -0.223 NA
ATOM     23  C   UNL     1       0.139  13.596  -0.637  0.00  0.00    +0.079 A 
ATOM     24  C   UNL     1       0.718  13.495  -1.905  0.00  0.00    +0.028 A 
ATOM     25  C   UNL     1       1.022  14.631  -2.602  0.00  0.00    +0.002 A 
ATOM     26  C   UNL     1       0.765  15.887  -2.068  0.00  0.00    +0.001 A 
ATOM     27  C   UNL     1       0.199  16.018  -0.830  0.00  0.00    +0.015 A 
ATOM     28  C   UNL     1      -0.122  14.876  -0.097  0.00  0.00    +0.065 A 
ATOM     29  C   UNL     1      -0.730  14.956   1.238  0.00  0.00    +0.263 A 
ATOM     30  O   UNL     1      -0.978  16.029   1.756  0.00  0.00    -0.267 OA
ATOM     31  N   UNL     1      -1.004  13.791   1.870  0.00  0.00    -0.276 N 
BRANCH  31  32
ATOM     32  C   UNL     1      -1.611  13.812   3.203  0.00  0.00    +0.252 C 
BRANCH  32  33
ATOM     33  C   UNL     1      -0.526  13.834   4.249  0.00  0.00    +0.375 C 
ATOM     34  O   UNL     1       0.635  13.832   3.915  0.00  0.00    -0.244 OA
ATOM     35  O   UNL     1      -0.849  13.856   5.551  0.00  0.00    -0.244 OA
ENDBRANCH  32  33
ENDBRANCH  31  32
ENDBRANCH  20  21
ENDBRANCH  19  20
ENDBRANCH   1  19
TORSDOF 8
