REMARK  Name = ZINC12140826
REMARK  14 active torsions:
REMARK  status: ('A' for Active; 'I' for Inactive)
REMARK    1  A    between atoms: C_1  and  C_2
REMARK    2  A    between atoms: C_7  and  C_8
REMARK    3  A    between atoms: N_12  and  C_13
REMARK    4  A    between atoms: C_13  and  C_14
REMARK    5  A    between atoms: C_14  and  N_67
REMARK    6  A    between atoms: C_15  and  N_67
REMARK    7  A    between atoms: C_16  and  N_67
REMARK    8  A    between atoms: C_17  and  C_19
REMARK    9  A    between atoms: C_22  and  S_25
REMARK   10  A    between atoms: S_25  and  N_28
REMARK   11  A    between atoms: N_28  and  C_29
REMARK   12  A    between atoms: N_28  and  C_32
REMARK   13  A    between atoms: C_29  and  C_30
REMARK   14  A    between atoms: C_32  and  C_33
REMARK                            x       y       z     vdW  Elec       q    Type
REMARK                         _______ _______ _______ _____ _____    ______ ____
ROOT
ATOM      1  C   UNL     1      -0.359  -9.559  -0.702  0.00  0.00    +0.044 C 
ATOM      2  C   UNL     1       0.800  -8.631  -0.445  0.00  0.00    -0.045 A 
ATOM      3  C   UNL     1       2.069  -9.164  -0.270  0.00  0.00    +0.005 A 
ATOM      4  C   UNL     1       3.134  -8.314  -0.034  0.00  0.00    +0.017 A 
ATOM      5  C   UNL     1       2.920  -6.960   0.024  0.00  0.00    +0.041 A 
ATOM      6  C   UNL     1       1.642  -6.381  -0.149  0.00  0.00    +0.083 A 
ATOM      7  C   UNL     1       0.577  -7.280  -0.389  0.00  0.00    -0.021 A 
ATOM      8  C   UNL     1      -0.819  -6.747  -0.585  0.00  0.00    +0.046 C 
ATOM      9  N   UNL     1       1.592  -5.035  -0.059  0.00  0.00    -0.224 NA
ATOM     10  C   UNL     1       2.659  -4.302   0.164  0.00  0.00    +0.168 A 
ATOM     11  S   UNL     1       3.947  -5.535   0.293  0.00  0.00    -0.052 S 
ATOM     12  N   UNL     1       2.760  -2.926   0.276  0.00  0.00    -0.248 N 
ATOM     13  C   UNL     1       1.661  -2.157   0.146  0.00  0.00    +0.252 C 
ATOM     14  O   UNL     1       0.565  -2.675   0.050  0.00  0.00    -0.270 OA
ENDROOT
BRANCH  13  15
ATOM     15  C   UNL     1       1.787  -0.685   0.121  0.00  0.00    +0.037 A 
ATOM     16  C   UNL     1       0.875   0.085  -0.602  0.00  0.00    +0.015 A 
ATOM     17  C   UNL     1       1.000   1.459  -0.621  0.00  0.00    +0.029 A 
ATOM     18  C   UNL     1       2.026   2.074   0.074  0.00  0.00    +0.106 A 
ATOM     19  C   UNL     1       2.933   1.316   0.793  0.00  0.00    +0.029 A 
ATOM     20  C   UNL     1       2.820  -0.058   0.821  0.00  0.00    +0.015 A 
BRANCH  18  21
ATOM     21  S   UNL     1       2.177   3.829   0.044  0.00  0.00    +0.061 S 
ATOM     22  O   UNL     1       3.538   4.124   0.326  0.00  0.00    -0.153 OA
ATOM     23  O   UNL     1       1.532   4.272  -1.142  0.00  0.00    -0.153 OA
BRANCH  21  24
ATOM     24  N   UNL     1       1.292   4.419   1.313  0.00  0.00    -0.169 NA
BRANCH  24  25
ATOM     25  C   UNL     1       1.923   4.604   2.622  0.00  0.00    +0.136 C 
BRANCH  25  26
ATOM     26  C   UNL     1       2.394   6.029   2.756  0.00  0.00    -0.018 C 
ATOM     27  C   UNL     1       2.001   6.756   3.772  0.00  0.00    +0.005 C 
ENDBRANCH  25  26
ENDBRANCH  24  25
BRANCH  24  28
ATOM     28  C   UNL     1      -0.121   4.755   1.127  0.00  0.00    +0.136 C 
BRANCH  28  29
ATOM     29  C   UNL     1      -0.975   3.585   1.543  0.00  0.00    -0.018 C 
ATOM     30  C   UNL     1      -1.917   3.747   2.439  0.00  0.00    +0.005 C 
ENDBRANCH  28  29
ENDBRANCH  24  28
ENDBRANCH  21  24
ENDBRANCH  18  21
ENDBRANCH  13  15
BRANCH  12  31
ATOM     31  C   UNL     1       4.061  -2.306   0.536  0.00  0.00    +0.097 C 
BRANCH  31  32
ATOM     32  C   UNL     1       4.382  -2.399   2.029  0.00  0.00    -0.060 C 
BRANCH  32  35
ATOM     33  C   UNL     1       5.924  -1.635   3.732  0.00  0.00    -0.097 C 
ATOM     34  C   UNL     1       6.770  -2.538   1.651  0.00  0.00    -0.097 C 
ATOM     35  N   UNL     1       5.687  -1.751   2.277  0.00  0.00    +0.377 N 
ATOM     36  H   UNL     1       5.676  -0.811   1.865  0.00  0.00    -0.083 HD
ENDBRANCH  32  35
ENDBRANCH  31  32
ENDBRANCH  12  31
TORSDOF 10
