REMARK  Name = ZINC37857930
REMARK  18 active torsions:
REMARK  status: ('A' for Active; 'I' for Inactive)
REMARK    1  A    between atoms: C_1  and  C_2
REMARK    2  A    between atoms: C_2  and  C_3
REMARK    3  A    between atoms: C_2  and  C_4
REMARK    4  A    between atoms: C_4  and  N_5
REMARK    5  A    between atoms: N_5  and  C_6
REMARK    6  A    between atoms: N_5  and  C_31
REMARK    7  A    between atoms: C_6  and  C_7
REMARK    8  A    between atoms: C_8  and  O_30
REMARK    9  A    between atoms: C_15  and  C_16
REMARK   10  A    between atoms: C_19  and  O_26
REMARK   11  A    between atoms: C_20  and  O_24
REMARK   12  A    between atoms: C_21  and  O_22
REMARK   13  A    between atoms: O_22  and  C_23
REMARK   14  A    between atoms: O_24  and  C_25
REMARK   15  A    between atoms: O_26  and  C_27
REMARK   16  A    between atoms: C_31  and  C_32
REMARK   17  A    between atoms: C_32  and  C_33
REMARK   18  A    between atoms: C_32  and  C_34
REMARK                            x       y       z     vdW  Elec       q    Type
REMARK                         _______ _______ _______ _____ _____    ______ ____
ROOT
ATOM      1  C   UNL     1       0.843  -1.428   1.829  0.00  0.00    +0.020 A 
ATOM      2  C   UNL     1       1.999  -2.049   1.384  0.00  0.00    +0.122 A 
ATOM      3  C   UNL     1       3.245  -1.467   1.603  0.00  0.00    +0.046 A 
ATOM      4  C   UNL     1       3.339  -0.274   2.264  0.00  0.00    +0.019 A 
ATOM      5  C   UNL     1       2.183   0.362   2.718  0.00  0.00    +0.068 A 
ATOM      6  C   UNL     1       0.921  -0.212   2.497  0.00  0.00    +0.144 A 
ATOM      7  O   UNL     1      -0.038   0.584   3.017  0.00  0.00    -0.451 OA
ATOM      8  C   UNL     1       0.486   1.694   3.590  0.00  0.00    +0.176 C 
ATOM      9  C   UNL     1      -0.212   2.689   4.199  0.00  0.00    +0.062 C 
ATOM     10  C   UNL     1       1.945   1.622   3.445  0.00  0.00    +0.231 C 
ATOM     11  O   UNL     1       2.773   2.430   3.828  0.00  0.00    -0.283 OA
ENDROOT
BRANCH   9  12
ATOM     12  C   UNL     1       0.476   3.909   4.630  0.00  0.00    +0.024 A 
ATOM     13  C   UNL     1       1.442   4.502   3.805  0.00  0.00    +0.015 A 
ATOM     14  C   UNL     1       2.085   5.647   4.213  0.00  0.00    +0.050 A 
ATOM     15  C   UNL     1       1.783   6.222   5.443  0.00  0.00    +0.165 A 
ATOM     16  C   UNL     1       0.827   5.644   6.272  0.00  0.00    +0.204 A 
ATOM     17  C   UNL     1       0.166   4.493   5.870  0.00  0.00    +0.172 A 
BRANCH  17  18
ATOM     18  O   UNL     1      -0.772   3.929   6.675  0.00  0.00    -0.491 OA
ATOM     19  C   UNL     1      -0.319   2.955   7.616  0.00  0.00    +0.277 C 
ENDBRANCH  17  18
BRANCH  16  20
ATOM     20  O   UNL     1       0.536   6.212   7.474  0.00  0.00    -0.488 OA
ATOM     21  C   UNL     1      -0.507   7.188   7.496  0.00  0.00    +0.277 C 
ENDBRANCH  16  20
BRANCH  15  22
ATOM     22  O   UNL     1       2.424   7.353   5.837  0.00  0.00    -0.491 OA
ATOM     23  C   UNL     1       3.395   7.894   4.938  0.00  0.00    +0.277 C 
ENDBRANCH  15  22
ENDBRANCH   9  12
BRANCH   2  24
ATOM     24  O   UNL     1       1.916  -3.234   0.727  0.00  0.00    -0.506 OA
ATOM     25  H   UNL     1       1.827  -3.147  -0.232  0.00  0.00    +0.292 HD
ENDBRANCH   2  24
BRANCH   1  26
ATOM     26  C   UNL     1      -0.498  -2.069   1.584  0.00  0.00    -0.036 C 
BRANCH  26  27
ATOM     27  N   UNL     1      -0.962  -1.733   0.231  0.00  0.00    +0.383 N 
ATOM     28  H   UNL     1      -0.254  -1.990  -0.440  0.00  0.00    -0.081 HD
BRANCH  27  29
ATOM     29  C   UNL     1      -1.218  -0.289   0.146  0.00  0.00    -0.075 C 
BRANCH  29  31
ATOM     30  C   UNL     1      -1.909   1.571  -1.373  0.00  0.00    +0.005 C 
ATOM     31  C   UNL     1      -1.548   0.086  -1.300  0.00  0.00    -0.034 C 
ATOM     32  C   UNL     1      -0.333  -0.188  -2.189  0.00  0.00    +0.005 C 
ENDBRANCH  29  31
ENDBRANCH  27  29
BRANCH  27  33
ATOM     33  C   UNL     1      -2.201  -2.468  -0.059  0.00  0.00    -0.075 C 
BRANCH  33  34
ATOM     34  C   UNL     1      -1.901  -3.967  -0.122  0.00  0.00    -0.034 C 
ATOM     35  C   UNL     1      -3.206  -4.739  -0.329  0.00  0.00    +0.005 C 
ATOM     36  C   UNL     1      -0.953  -4.248  -1.289  0.00  0.00    +0.005 C 
ENDBRANCH  33  34
ENDBRANCH  27  33
ENDBRANCH  26  27
ENDBRANCH   1  26
TORSDOF 11
