REMARK  Name = ZINC48149532
REMARK  12 active torsions:
REMARK  status: ('A' for Active; 'I' for Inactive)
REMARK    1  A    between atoms: C_1  and  C_2
REMARK    2  A    between atoms: C_2  and  C_3
REMARK    3  A    between atoms: C_6  and  C_9
REMARK    4  A    between atoms: C_9  and  C_11
REMARK    5  A    between atoms: C_9  and  N_28
REMARK    6  A    between atoms: C_11  and  N_12
REMARK    7  A    between atoms: N_15  and  C_16
REMARK    8  A    between atoms: C_19  and  C_22
REMARK    9  A    between atoms: N_24  and  C_25
REMARK   10  A    between atoms: C_25  and  C_26
REMARK   11  A    between atoms: N_28  and  C_29
REMARK   12  A    between atoms: N_28  and  C_30
REMARK                            x       y       z     vdW  Elec       q    Type
REMARK                         _______ _______ _______ _____ _____    ______ ____
ROOT
ATOM      1  N   UNL     1      -7.544  -1.745  -0.283  0.00  0.00    -0.300 N 
ATOM      2  C   UNL     1      -8.602  -0.979  -0.615  0.00  0.00    +0.304 C 
ATOM      3  O   UNL     1      -8.462   0.219  -0.767  0.00  0.00    -0.253 OA
ATOM      4  N   UNL     1      -9.817  -1.541  -0.777  0.00  0.00    -0.269 N 
ATOM      5  H   UNL     1      -7.657  -2.700  -0.161  0.00  0.00    +0.150 HD
ATOM      6  H   UNL     1      -9.916  -2.504  -0.723  0.00  0.00    +0.156 HD
ENDROOT
BRANCH   4   7
ATOM      7  C   UNL     1     -10.930  -0.737  -1.022  0.00  0.00    +0.035 A 
ATOM      8  C   UNL     1     -10.800   0.410  -1.798  0.00  0.00    +0.024 A 
ATOM      9  C   UNL     1     -11.897   1.206  -2.042  0.00  0.00    +0.015 A 
ATOM     10  C   UNL     1     -13.142   0.859  -1.509  0.00  0.00    +0.037 A 
ATOM     11  C   UNL     1     -13.268  -0.294  -0.730  0.00  0.00    +0.015 A 
ATOM     12  C   UNL     1     -12.168  -1.088  -0.494  0.00  0.00    +0.024 A 
BRANCH  10  13
ATOM     13  C   UNL     1     -14.319   1.710  -1.768  0.00  0.00    +0.244 C 
ATOM     14  O   UNL     1     -14.208   2.713  -2.445  0.00  0.00    -0.270 OA
ATOM     15  N   UNL     1     -15.519   1.374  -1.254  0.00  0.00    -0.308 N 
ATOM     16  H   UNL     1     -15.608   0.574  -0.713  0.00  0.00    +0.149 HD
BRANCH  15  17
ATOM     17  C   UNL     1     -16.689   2.219  -1.511  0.00  0.00    +0.131 C 
BRANCH  17  18
ATOM     18  C   UNL     1     -17.895   1.627  -0.829  0.00  0.00    -0.016 C 
ATOM     19  C   UNL     1     -18.597   2.352   0.006  0.00  0.00    +0.005 C 
ENDBRANCH  17  18
ENDBRANCH  15  17
ENDBRANCH  10  13
ENDBRANCH   4   7
BRANCH   1  20
ATOM     20  C   UNL     1      -6.224  -1.134  -0.107  0.00  0.00    +0.095 C 
BRANCH  20  21
ATOM     21  C   UNL     1      -5.185  -2.229   0.143  0.00  0.00    -0.021 C 
BRANCH  21  25
ATOM     22  C   UNL     1      -6.076  -4.230   3.810  0.00  0.00    -0.048 A 
ATOM     23  C   UNL     1      -6.440  -4.801   2.605  0.00  0.00    +0.004 A 
ATOM     24  C   UNL     1      -6.152  -4.153   1.419  0.00  0.00    +0.002 A 
ATOM     25  C   UNL     1      -5.500  -2.934   1.437  0.00  0.00    -0.059 A 
ATOM     26  C   UNL     1      -5.137  -2.363   2.642  0.00  0.00    +0.002 A 
ATOM     27  C   UNL     1      -5.429  -3.009   3.829  0.00  0.00    +0.004 A 
BRANCH  22  29
ATOM     28  C   UNL     1      -7.770  -4.501   5.601  0.00  0.00    +0.009 C 
ATOM     29  C   UNL     1      -6.390  -4.936   5.104  0.00  0.00    +0.032 C 
ENDBRANCH  22  29
ENDBRANCH  21  25
BRANCH  21  30
ATOM     30  N   UNL     1      -3.849  -1.625   0.228  0.00  0.00    +0.382 N 
ATOM     31  C   UNL     1      -2.841  -2.684   0.375  0.00  0.00    -0.096 C 
ATOM     32  C   UNL     1      -3.579  -0.860  -0.997  0.00  0.00    -0.096 C 
ATOM     33  H   UNL     1      -3.808  -1.008   1.025  0.00  0.00    -0.082 HD
ENDBRANCH  21  30
ENDBRANCH  20  21
ENDBRANCH   1  20
TORSDOF 9
