REMARK  Name = ZINC39439983
REMARK  6 active torsions:
REMARK  status: ('A' for Active; 'I' for Inactive)
REMARK    1  A    between atoms: C_4  and  C_7
REMARK    2  A    between atoms: C_7  and  C_8
REMARK    3  A    between atoms: C_14  and  C_16
REMARK    4  A    between atoms: C_16  and  S_17
REMARK    5  A    between atoms: S_17  and  C_18
REMARK    6  A    between atoms: C_22  and  C_24
REMARK                            x       y       z     vdW  Elec       q    Type
REMARK                         _______ _______ _______ _____ _____    ______ ____
ROOT
ATOM      1  S   UNL     1       6.925  -5.763   5.109  0.00  0.00    -0.087 S 
ENDROOT
BRANCH   1   2
ATOM      2  C   UNL     1       8.684  -6.192   5.001  0.00  0.00    +0.339 C 
ATOM      3  N   UNL     1       9.092  -6.335   3.593  0.00  0.00    -0.219 N 
ATOM      4  N   UNL     1      10.081  -5.362   3.388  0.00  0.00    -0.145 NA
ATOM      5  C   UNL     1      10.285  -4.689   4.489  0.00  0.00    +0.238 C 
ATOM      6  O   UNL     1       9.493  -5.120   5.505  0.00  0.00    -0.443 OA
ATOM      7  H   UNL     1       8.750  -6.970   2.944  0.00  0.00    +0.173 HD
BRANCH   5   8
ATOM      8  C   UNL     1      11.213  -3.646   4.610  0.00  0.00    +0.043 C 
ATOM      9  C   UNL     1      12.055  -3.146   3.615  0.00  0.00    +0.008 A 
ATOM     10  C   UNL     1      12.241  -3.495   2.260  0.00  0.00    +0.010 A 
ATOM     11  C   UNL     1      13.151  -2.822   1.510  0.00  0.00    +0.001 A 
ATOM     12  C   UNL     1      13.916  -1.784   2.046  0.00  0.00    +0.002 A 
ATOM     13  C   UNL     1      13.790  -1.397   3.340  0.00  0.00    +0.026 A 
ATOM     14  C   UNL     1      12.859  -2.053   4.185  0.00  0.00    +0.043 A 
ATOM     15  N   UNL     1      12.552  -1.869   5.454  0.00  0.00    -0.380 N 
ATOM     16  C   UNL     1      11.508  -2.822   5.843  0.00  0.00    +0.154 C 
ATOM     17  H   UNL     1      12.951  -1.204   6.037  0.00  0.00    +0.160 HD
ENDBRANCH   5   8
ENDBRANCH   1   2
BRANCH   1  18
ATOM     18  C   UNL     1       6.791  -4.218   4.167  0.00  0.00    +0.170 C 
BRANCH  18  25
ATOM     19  C   UNL     1       4.171  -0.963   1.399  0.00  0.00    -0.004 C 
ATOM     20  C   UNL     1       3.186  -1.909   2.089  0.00  0.00    +0.023 C 
ATOM     21  C   UNL     1       3.631  -2.136   3.537  0.00  0.00    +0.108 C 
ATOM     22  N   UNL     1       5.021  -2.610   3.536  0.00  0.00    -0.301 N 
ATOM     23  C   UNL     1       6.036  -1.821   2.823  0.00  0.00    +0.108 C 
ATOM     24  C   UNL     1       5.564  -1.598   1.383  0.00  0.00    +0.023 C 
ATOM     25  C   UNL     1       5.360  -3.745   4.177  0.00  0.00    +0.226 C 
ATOM     26  O   UNL     1       4.514  -4.387   4.763  0.00  0.00    -0.275 OA
BRANCH  19  27
ATOM     27  C   UNL     1       3.711  -0.707  -0.038  0.00  0.00    +0.038 C 
BRANCH  27  31
ATOM     28  C   UNL     1      -0.017   1.378   0.010  0.00  0.00    +0.000 A 
ATOM     29  C   UNL     1       1.171   2.086   0.002  0.00  0.00    +0.000 A 
ATOM     30  C   UNL     1       2.377   1.411  -0.013  0.00  0.00    +0.003 A 
ATOM     31  C   UNL     1       2.396   0.029  -0.020  0.00  0.00    -0.047 A 
ATOM     32  C   UNL     1       1.208  -0.679  -0.012  0.00  0.00    +0.003 A 
ATOM     33  C   UNL     1       0.002  -0.004   0.002  0.00  0.00    +0.000 A 
ENDBRANCH  27  31
ENDBRANCH  19  27
ENDBRANCH  18  25
ENDBRANCH   1  18
TORSDOF 6
