REMARK  Name = ZINC63362549
REMARK  6 active torsions:
REMARK  status: ('A' for Active; 'I' for Inactive)
REMARK    1  A    between atoms: C_1  and  C_2
REMARK    2  A    between atoms: C_8  and  O_13
REMARK    3  A    between atoms: O_13  and  C_14
REMARK    4  A    between atoms: N_20  and  C_23
REMARK    5  A    between atoms: C_26  and  C_29
REMARK    6  A    between atoms: N_31  and  C_32
REMARK                            x       y       z     vdW  Elec       q    Type
REMARK                         _______ _______ _______ _____ _____    ______ ____
ROOT
ATOM      1  C   UNL     1      -0.027   1.515  -0.022  0.00  0.00    +0.044 C 
ATOM      2  C   UNL     1       0.005  -0.015  -0.005  0.00  0.00    +0.137 C 
ATOM      3  C   UNL     1       0.746  -0.584  -1.221  0.00  0.00    +0.139 C 
ATOM      4  C   UNL     1       2.233  -0.382  -0.954  0.00  0.00    -0.034 C 
ATOM      5  C   UNL     1       2.701   0.336  -1.969  0.00  0.00    +0.003 A 
ATOM      6  C   UNL     1       4.059   0.795  -2.301  0.00  0.00    +0.055 A 
ATOM      7  C   UNL     1       4.192   1.536  -3.435  0.00  0.00    +0.121 A 
ATOM      8  C   UNL     1       3.126   1.874  -4.281  0.00  0.00    +0.047 A 
ATOM      9  C   UNL     1       1.837   1.501  -4.072  0.00  0.00    +0.029 A 
ATOM     10  C   UNL     1       1.566   0.690  -2.876  0.00  0.00    +0.043 A 
ATOM     11  N   UNL     1       0.443   0.179  -2.435  0.00  0.00    -0.375 N 
ATOM     12  C   UNL     1       2.925  -0.883   0.291  0.00  0.00    +0.052 C 
ATOM     13  C   UNL     1       2.113  -0.374   1.499  0.00  0.00    +0.115 C 
ATOM     14  N   UNL     1       0.688  -0.542   1.198  0.00  0.00    -0.268 N 
ATOM     15  C   UNL     1      -0.236  -1.199   1.910  0.00  0.00    +0.316 C 
ATOM     16  O   UNL     1      -0.030  -1.680   3.007  0.00  0.00    -0.252 OA
ATOM     17  N   UNL     1      -1.415  -1.264   1.276  0.00  0.00    -0.192 N 
ATOM     18  C   UNL     1      -1.383  -0.608   0.098  0.00  0.00    +0.253 C 
ATOM     19  O   UNL     1      -2.281  -0.513  -0.711  0.00  0.00    -0.272 OA
ATOM     20  H   UNL     1      -0.435   0.286  -2.834  0.00  0.00    +0.160 HD
ENDROOT
BRANCH  17  21
ATOM     21  C   UNL     1      -2.538  -1.931   1.774  0.00  0.00    +0.045 A 
ATOM     22  C   UNL     1      -3.752  -1.840   1.102  0.00  0.00    +0.025 A 
ATOM     23  C   UNL     1      -4.861  -2.495   1.589  0.00  0.00    +0.015 A 
ATOM     24  C   UNL     1      -4.766  -3.251   2.761  0.00  0.00    +0.037 A 
ATOM     25  C   UNL     1      -3.544  -3.340   3.433  0.00  0.00    +0.015 A 
ATOM     26  C   UNL     1      -2.438  -2.687   2.937  0.00  0.00    +0.025 A 
BRANCH  24  27
ATOM     27  C   UNL     1      -5.952  -3.954   3.287  0.00  0.00    +0.244 C 
ATOM     28  O   UNL     1      -7.015  -3.875   2.701  0.00  0.00    -0.270 OA
ATOM     29  N   UNL     1      -5.858  -4.683   4.416  0.00  0.00    -0.308 N 
ATOM     30  H   UNL     1      -5.011  -4.745   4.884  0.00  0.00    +0.149 HD
BRANCH  29  31
ATOM     31  C   UNL     1      -7.036  -5.380   4.938  0.00  0.00    +0.073 C 
ATOM     32  C   UNL     1      -7.891  -4.382   5.745  0.00  0.00    +0.022 C 
ATOM     33  C   UNL     1      -9.293  -4.921   5.839  0.00  0.00    +0.002 C 
ATOM     34  C   UNL     1      -9.530  -5.726   7.131  0.00  0.00    +0.000 C 
ATOM     35  C   UNL     1      -8.346  -6.646   7.486  0.00  0.00    +0.000 C 
ATOM     36  C   UNL     1      -7.777  -7.344   6.280  0.00  0.00    +0.002 C 
ATOM     37  C   UNL     1      -6.596  -6.511   5.743  0.00  0.00    +0.022 C 
ENDBRANCH  29  31
ENDBRANCH  24  27
ENDBRANCH  17  21
BRANCH   7  38
ATOM     38  O   UNL     1       5.435   1.976  -3.768  0.00  0.00    -0.495 OA
ATOM     39  C   UNL     1       5.550   2.751  -4.962  0.00  0.00    +0.277 C 
ENDBRANCH   7  38
TORSDOF 4
