REMARK  Name = ZINC33767180
REMARK  4 active torsions:
REMARK  status: ('A' for Active; 'I' for Inactive)
REMARK    1  A    between atoms: C_1  and  C_2
REMARK    2  A    between atoms: C_7  and  N_8
REMARK    3  A    between atoms: C_17  and  C_31
REMARK    4  A    between atoms: C_31  and  C_33
REMARK                            x       y       z     vdW  Elec       q    Type
REMARK                         _______ _______ _______ _____ _____    ______ ____
ROOT
ATOM      1  N   UNL     1       0.026  -0.012   2.419  0.00  0.00    -0.210 N 
ATOM      2  C   UNL     1      -1.115   0.342   3.092  0.00  0.00    +0.231 C 
ATOM      3  O   UNL     1      -2.220  -0.150   3.010  0.00  0.00    -0.274 OA
ATOM      4  C   UNL     1      -0.657   1.512   3.976  0.00  0.00    +0.101 C 
ATOM      5  C   UNL     1       0.662   0.763   4.395  0.00  0.00    +0.111 C 
ATOM      6  C   UNL     1       1.173   0.379   3.069  0.00  0.00    +0.232 C 
ATOM      7  O   UNL     1       2.312   0.403   2.657  0.00  0.00    -0.274 OA
ATOM      8  C   UNL     1       1.403   1.537   5.484  0.00  0.00    +0.091 C 
ATOM      9  C   UNL     1       0.634   0.745   6.597  0.00  0.00    -0.025 A 
ATOM     10  C   UNL     1       1.248   0.164   7.659  0.00  0.00    +0.005 A 
ATOM     11  C   UNL     1       0.469  -0.594   8.529  0.00  0.00    +0.000 A 
ATOM     12  C   UNL     1      -0.884  -0.743   8.284  0.00  0.00    +0.000 A 
ATOM     13  C   UNL     1      -1.493  -0.114   7.210  0.00  0.00    +0.004 A 
ATOM     14  C   UNL     1      -0.729   0.679   6.379  0.00  0.00    -0.035 A 
ATOM     15  C   UNL     1      -1.425   1.598   5.347  0.00  0.00    +0.062 C 
ATOM     16  C   UNL     1      -0.720   2.930   5.730  0.00  0.00    -0.035 A 
ATOM     17  C   UNL     1       0.683   2.892   5.697  0.00  0.00    -0.025 A 
ATOM     18  C   UNL     1       1.409   4.045   5.888  0.00  0.00    +0.005 A 
ATOM     19  C   UNL     1       0.730   5.224   6.157  0.00  0.00    +0.000 A 
ATOM     20  C   UNL     1      -0.650   5.247   6.241  0.00  0.00    +0.000 A 
ATOM     21  C   UNL     1      -1.403   4.073   6.021  0.00  0.00    +0.004 A 
ENDROOT
BRANCH   1  28
ATOM     22  C   UNL     1      -0.018   1.503   0.010  0.00  0.00    +0.046 C 
ATOM     23  C   UNL     1       0.002  -0.004   0.002  0.00  0.00    -0.028 A 
ATOM     24  C   UNL     1       0.006  -0.689  -1.198  0.00  0.00    +0.020 A 
ATOM     25  C   UNL     1       0.024  -2.072  -1.206  0.00  0.00    +0.018 A 
ATOM     26  C   UNL     1       0.039  -2.773  -0.013  0.00  0.00    +0.017 A 
ATOM     27  C   UNL     1       0.035  -2.093   1.189  0.00  0.00    +0.025 A 
ATOM     28  C   UNL     1       0.023  -0.705   1.200  0.00  0.00    +0.047 A 
ATOM     29 BR   UNL     1       0.029  -3.006  -2.850  0.00  0.00    -0.050 Br
ENDBRANCH   1  28
BRANCH   8  30
ATOM     30  C   UNL     1       2.909   1.541   5.452  0.00  0.00    +0.146 C 
ATOM     31  O   UNL     1       3.497   0.944   4.582  0.00  0.00    -0.296 OA
ATOM     32  C   UNL     1       3.683   2.291   6.506  0.00  0.00    +0.087 C 
ENDBRANCH   8  30
TORSDOF 2
