REMARK  Name = ZINC63589378
REMARK  9 active torsions:
REMARK  status: ('A' for Active; 'I' for Inactive)
REMARK    1  A    between atoms: C_1  and  C_2
REMARK    2  A    between atoms: C_6  and  N_9
REMARK    3  A    between atoms: C_7  and  C_8
REMARK    4  A    between atoms: N_11  and  C_12
REMARK    5  A    between atoms: C_12  and  C_13
REMARK    6  A    between atoms: C_13  and  C_14
REMARK    7  A    between atoms: N_23  and  C_24
REMARK    8  A    between atoms: C_24  and  C_26
REMARK    9  A    between atoms: C_29  and  C_33
REMARK                            x       y       z     vdW  Elec       q    Type
REMARK                         _______ _______ _______ _____ _____    ______ ____
ROOT
ATOM      1  N   UNL     1      -1.053  -3.828   2.212  0.00  0.00    -0.328 N 
ATOM      2  C   UNL     1      -0.203  -4.862   2.481  0.00  0.00    +0.194 C 
ATOM      3  N   UNL     1       0.270  -5.045   3.747  0.00  0.00    -0.357 N 
ATOM      4  N   UNL     1       0.163  -5.688   1.512  0.00  0.00    -0.143 NA
ATOM      5  H   UNL     1       0.917  -5.744   3.927  0.00  0.00    +0.162 HD
ATOM      6  H   UNL     1      -1.990  -4.004   2.035  0.00  0.00    +0.169 HD
ENDROOT
BRANCH   1  12
ATOM      7  C   UNL     1      -1.938   0.998   1.907  0.00  0.00    +0.044 C 
ATOM      8  C   UNL     1      -0.979  -0.157   2.044  0.00  0.00    -0.046 A 
ATOM      9  C   UNL     1       0.380   0.083   2.150  0.00  0.00    +0.004 A 
ATOM     10  C   UNL     1       1.263  -0.974   2.276  0.00  0.00    +0.002 A 
ATOM     11  C   UNL     1       0.791  -2.272   2.296  0.00  0.00    +0.026 A 
ATOM     12  C   UNL     1      -0.572  -2.515   2.191  0.00  0.00    +0.045 A 
ATOM     13  C   UNL     1      -1.457  -1.452   2.070  0.00  0.00    -0.024 A 
ATOM     14  C   UNL     1      -2.938  -1.711   1.961  0.00  0.00    +0.046 C 
ENDBRANCH   1  12
BRANCH   4  15
ATOM     15  C   UNL     1      -0.151  -5.409   0.240  0.00  0.00    +0.270 C 
ATOM     16  O   UNL     1      -0.663  -4.340  -0.041  0.00  0.00    -0.268 OA
BRANCH  15  17
ATOM     17  C   UNL     1       0.126  -6.400  -0.826  0.00  0.00    +0.042 A 
ATOM     18  C   UNL     1       0.601  -7.669  -0.495  0.00  0.00    +0.013 A 
ATOM     19  C   UNL     1       0.857  -8.589  -1.491  0.00  0.00    +0.007 A 
ATOM     20  C   UNL     1       0.642  -8.256  -2.816  0.00  0.00    -0.015 A 
ATOM     21  C   UNL     1       0.170  -6.998  -3.152  0.00  0.00    +0.127 A 
ATOM     22  C   UNL     1      -0.095  -6.070  -2.162  0.00  0.00    +0.051 A 
ATOM     23  F   UNL     1      -0.038  -6.679  -4.449  0.00  0.00    -0.205 F 
ATOM     24  C   UNL     1       0.924  -9.266  -3.899  0.00  0.00    +0.047 C 
ENDBRANCH  15  17
ENDBRANCH   4  15
BRANCH   3  25
ATOM     25  C   UNL     1      -0.202  -4.185   4.836  0.00  0.00    +0.120 C 
BRANCH  25  26
ATOM     26  C   UNL     1       0.521  -4.561   6.131  0.00  0.00    +0.054 C 
BRANCH  26  27
ATOM     27  C   UNL     1      -0.047  -3.759   7.274  0.00  0.00    -0.040 C 
ATOM     28  C   UNL     1      -1.158  -4.040   7.992  0.00  0.00    -0.001 A 
ATOM     29  C   UNL     1      -2.133  -5.136   7.927  0.00  0.00    +0.010 A 
ATOM     30  C   UNL     1      -3.166  -5.147   8.800  0.00  0.00    +0.001 A 
ATOM     31  C   UNL     1      -3.328  -4.142   9.763  0.00  0.00    +0.002 A 
ATOM     32  C   UNL     1      -2.474  -3.103   9.884  0.00  0.00    +0.026 A 
ATOM     33  C   UNL     1      -1.352  -2.991   9.018  0.00  0.00    +0.043 A 
ATOM     34  N   UNL     1      -0.398  -2.095   8.937  0.00  0.00    -0.380 N 
ATOM     35  C   UNL     1       0.513  -2.479   7.853  0.00  0.00    +0.144 C 
ATOM     36  H   UNL     1      -0.308  -1.312   9.502  0.00  0.00    +0.160 HD
ENDBRANCH  26  27
ENDBRANCH  25  26
ENDBRANCH   3  25
TORSDOF 6
