REMARK  Name = ZINC13128891
REMARK  10 active torsions:
REMARK  status: ('A' for Active; 'I' for Inactive)
REMARK    1  A    between atoms: C_1  and  C_2
REMARK    2  A    between atoms: C_5  and  O_9
REMARK    3  A    between atoms: C_6  and  C_8
REMARK    4  A    between atoms: O_9  and  C_10
REMARK    5  A    between atoms: C_10  and  C_11
REMARK    6  A    between atoms: C_14  and  S_17
REMARK    7  A    between atoms: N_15  and  N_16
REMARK    8  A    between atoms: S_17  and  C_18
REMARK    9  A    between atoms: C_18  and  C_19
REMARK   10  A    between atoms: C_24  and  C_33
REMARK                            x       y       z     vdW  Elec       q    Type
REMARK                         _______ _______ _______ _____ _____    ______ ____
ROOT
ATOM      1  C   UNL     1       3.714  -0.858  -0.037  0.00  0.00    +0.189 A 
ATOM      2  N   UNL     1       4.420  -1.142  -1.094  0.00  0.00    -0.128 NA
ATOM      3  N   UNL     1       5.572  -1.593  -0.748  0.00  0.00    -0.121 NA
ATOM      4  C   UNL     1       5.661  -1.630   0.562  0.00  0.00    +0.209 A 
ATOM      5  N   UNL     1       4.478  -1.162   1.056  0.00  0.00    -0.225 N 
ENDROOT
BRANCH   5   6
ATOM      6  N   UNL     1       4.129  -1.026   2.370  0.00  0.00    -0.295 N 
ATOM      7  H   UNL     1       3.689  -1.865   2.716  0.00  0.00    +0.163 HD
ATOM      8  H   UNL     1       4.929  -0.778   2.933  0.00  0.00    +0.163 HD
ENDBRANCH   5   6
BRANCH   1   9
ATOM      9  C   UNL     1       2.313  -0.303  -0.021  0.00  0.00    +0.306 C 
BRANCH   9  10
ATOM     10  O   UNL     1       2.366   1.125  -0.014  0.00  0.00    -0.484 OA
BRANCH  10  15
ATOM     11  C   UNL     1      -2.553   3.867   0.046  0.00  0.00    +0.044 C 
ATOM     12  C   UNL     1      -1.237   3.133   0.030  0.00  0.00    -0.050 A 
ATOM     13  C   UNL     1      -1.218   1.751   0.017  0.00  0.00    +0.007 A 
ATOM     14  C   UNL     1      -0.013   1.076   0.008  0.00  0.00    +0.046 A 
ATOM     15  C   UNL     1       1.179   1.786   0.000  0.00  0.00    +0.124 A 
ATOM     16  C   UNL     1       1.157   3.173   0.008  0.00  0.00    -0.009 A 
ATOM     17  C   UNL     1      -0.051   3.844   0.023  0.00  0.00    +0.010 A 
ATOM     18  C   UNL     1       2.449   3.948   0.000  0.00  0.00    +0.047 C 
ENDBRANCH  10  15
ENDBRANCH   9  10
ENDBRANCH   1   9
BRANCH   4  19
ATOM     19  S   UNL     1       7.046  -2.179   1.503  0.00  0.00    -0.075 S 
BRANCH  19  20
ATOM     20  C   UNL     1       8.178  -2.627   0.164  0.00  0.00    +0.173 C 
BRANCH  20  21
ATOM     21  C   UNL     1       9.470  -3.139   0.748  0.00  0.00    +0.230 C 
ATOM     22  O   UNL     1       9.610  -3.196   1.951  0.00  0.00    -0.274 OA
ATOM     23  N   UNL     1      10.468  -3.533  -0.067  0.00  0.00    -0.270 N 
ATOM     24  C   UNL     1      11.738  -4.030   0.484  0.00  0.00    +0.115 C 
ATOM     25  C   UNL     1      11.691  -5.525   0.701  0.00  0.00    +0.033 C 
ATOM     26  C   UNL     1      11.626  -6.367  -0.565  0.00  0.00    +0.050 C 
ATOM     27  S   UNL     1      10.002  -6.175  -1.359  0.00  0.00    -0.120 S 
ATOM     28  C   UNL     1      10.167  -4.628  -2.216  0.00  0.00    +0.030 A 
ATOM     29  C   UNL     1      10.324  -3.475  -1.460  0.00  0.00    +0.050 A 
ATOM     30  C   UNL     1      10.348  -2.243  -2.104  0.00  0.00    +0.024 A 
ATOM     31  C   UNL     1      10.252  -2.188  -3.482  0.00  0.00    +0.002 A 
ATOM     32  C   UNL     1      10.138  -3.346  -4.229  0.00  0.00    +0.001 A 
ATOM     33  C   UNL     1      10.096  -4.578  -3.595  0.00  0.00    +0.016 A 
ATOM     34  C   UNL     1      11.846  -7.838  -0.208  0.00  0.00    +0.019 C 
ENDBRANCH  20  21
ENDBRANCH  19  20
ENDBRANCH   4  19
TORSDOF 7
