REMARK  Name = ZINC12980773
REMARK  8 active torsions:
REMARK  status: ('A' for Active; 'I' for Inactive)
REMARK    1  A    between atoms: C_1  and  C_2
REMARK    2  A    between atoms: C_2  and  C_4
REMARK    3  A    between atoms: C_2  and  N_11
REMARK    4  A    between atoms: C_12  and  C_14
REMARK    5  A    between atoms: C_14  and  C_16
REMARK    6  A    between atoms: C_14  and  S_17
REMARK    7  A    between atoms: S_17  and  C_18
REMARK    8  A    between atoms: C_24  and  C_28
REMARK                            x       y       z     vdW  Elec       q    Type
REMARK                         _______ _______ _______ _____ _____    ______ ____
ROOT
ATOM      1  C   UNL     1      -0.019   1.526   0.010  0.00  0.00    +0.137 C 
ATOM      2  C   UNL     1       0.002  -0.004   0.002  0.00  0.00    +0.029 C 
ENDROOT
BRANCH   1   4
ATOM      3  N   UNL     1      -2.091   2.135  -1.195  0.00  0.00    -0.308 N 
ATOM      4  C   UNL     1      -0.748   2.025  -1.210  0.00  0.00    +0.227 C 
ATOM      5  O   UNL     1      -0.126   2.327  -2.207  0.00  0.00    -0.275 OA
ATOM      6  H   UNL     1      -2.588   1.894  -0.399  0.00  0.00    +0.149 HD
BRANCH   3   8
ATOM      7  C   UNL     1      -2.820   4.151  -2.374  0.00  0.00    +0.033 C 
ATOM      8  C   UNL     1      -2.799   2.621  -2.382  0.00  0.00    +0.100 C 
BRANCH   8   9
ATOM      9  C   UNL     1      -4.213   2.099  -2.371  0.00  0.00    -0.027 A 
ATOM     10  C   UNL     1      -4.920   2.043  -1.185  0.00  0.00    +0.008 A 
ATOM     11  C   UNL     1      -6.218   1.571  -1.175  0.00  0.00    +0.038 A 
ATOM     12  C   UNL     1      -6.807   1.141  -2.352  0.00  0.00    +0.123 A 
ATOM     13  C   UNL     1      -6.097   1.192  -3.539  0.00  0.00    +0.038 A 
ATOM     14  C   UNL     1      -4.800   1.671  -3.547  0.00  0.00    +0.008 A 
ATOM     15  F   UNL     1      -8.075   0.673  -2.342  0.00  0.00    -0.205 F 
ENDBRANCH   8   9
ENDBRANCH   3   8
ENDBRANCH   1   4
BRANCH   1  16
ATOM     16  S   UNL     1       1.683   2.154  -0.002  0.00  0.00    -0.073 S 
BRANCH  16  17
ATOM     17  C   UNL     1       2.348   1.615   1.538  0.00  0.00    +0.197 A 
ATOM     18  N   UNL     1       1.716   0.923   2.460  0.00  0.00    -0.122 NA
ATOM     19  N   UNL     1       2.494   0.696   3.458  0.00  0.00    -0.127 NA
ATOM     20  C   UNL     1       3.676   1.240   3.235  0.00  0.00    +0.180 A 
ATOM     21  N   UNL     1       3.611   1.843   1.997  0.00  0.00    -0.276 N 
ATOM     22  C   UNL     1       4.699   2.498   1.488  0.00  0.00    +0.107 A 
ATOM     23  C   UNL     1       5.848   2.562   2.190  0.00  0.00    +0.073 A 
ATOM     24  C   UNL     1       5.945   1.956   3.456  0.00  0.00    +0.037 A 
ATOM     25  C   UNL     1       4.873   1.301   3.978  0.00  0.00    +0.086 A 
ATOM     26 CL   UNL     1       4.978   0.549   5.539  0.00  0.00    -0.080 Cl
BRANCH  23  27
ATOM     27  C   UNL     1       7.037   3.287   1.614  0.00  0.00    +0.419 C 
ATOM     28  F   UNL     1       6.997   4.631   2.002  0.00  0.00    -0.166 F 
ATOM     29  F   UNL     1       8.216   2.700   2.087  0.00  0.00    -0.166 F 
ATOM     30  F   UNL     1       7.003   3.204   0.218  0.00  0.00    -0.166 F 
ENDBRANCH  23  27
ENDBRANCH  16  17
ENDBRANCH   1  16
TORSDOF 6
