REMARK  Name = ZINC60382464
REMARK  9 active torsions:
REMARK  status: ('A' for Active; 'I' for Inactive)
REMARK    1  A    between atoms: C_1  and  C_2
REMARK    2  A    between atoms: C_7  and  C_8
REMARK    3  A    between atoms: C_7  and  C_9
REMARK    4  A    between atoms: N_12  and  N_13
REMARK    5  A    between atoms: C_14  and  C_16
REMARK    6  A    between atoms: C_16  and  O_17
REMARK    7  A    between atoms: O_17  and  C_18
REMARK    8  A    between atoms: C_18  and  C_20
REMARK    9  A    between atoms: C_25  and  N_26
REMARK                            x       y       z     vdW  Elec       q    Type
REMARK                         _______ _______ _______ _____ _____    ______ ____
ROOT
ATOM      1  N   UNL     1       1.374   2.706  -1.789  0.00  0.00    -0.204 N 
ATOM      2  C   UNL     1       1.393   2.987  -3.107  0.00  0.00    +0.270 C 
ATOM      3  O   UNL     1       1.974   2.251  -3.876  0.00  0.00    -0.270 OA
ATOM      4  H   UNL     1       0.909   3.295  -1.174  0.00  0.00    +0.177 HD
ENDROOT
BRANCH   1  15
ATOM      5  C   UNL     1       1.388   3.741   0.697  0.00  0.00    +0.018 C 
ATOM      6  C   UNL     1       1.620   2.278   1.081  0.00  0.00    +0.013 C 
ATOM      7  C   UNL     1       0.400   1.538   1.708  0.00  0.00    +0.013 C 
ATOM      8  C   UNL     1       1.016   0.331   2.451  0.00  0.00    +0.005 C 
ATOM      9  C   UNL     1       2.549   0.455   2.191  0.00  0.00    +0.001 C 
ATOM     10  C   UNL     1       2.714   2.016   2.175  0.00  0.00    -0.021 C 
ATOM     11  C   UNL     1       4.107   2.443   1.709  0.00  0.00    +0.012 C 
ATOM     12  C   UNL     1       2.346   2.647   3.519  0.00  0.00    +0.012 C 
ATOM     13  C   UNL     1       2.712   0.123   0.676  0.00  0.00    +0.057 C 
ATOM     14  C   UNL     1       2.114   1.361  -0.047  0.00  0.00    +0.044 C 
ATOM     15  N   UNL     1       2.025   1.563  -1.307  0.00  0.00    -0.189 NA
ENDBRANCH   1  15
BRANCH   2  16
ATOM     16  C   UNL     1       0.692   4.217  -3.625  0.00  0.00    +0.329 C 
BRANCH  16  17
ATOM     17  O   UNL     1       0.854   4.295  -5.043  0.00  0.00    -0.452 OA
BRANCH  17  18
ATOM     18  C   UNL     1       0.283   5.344  -5.667  0.00  0.00    +0.342 C 
ATOM     19  O   UNL     1      -0.335   6.170  -5.024  0.00  0.00    -0.245 OA
BRANCH  18  20
ATOM     20  C   UNL     1       0.409   5.491  -7.131  0.00  0.00    +0.090 A 
ATOM     21  C   UNL     1       1.668   5.462  -7.733  0.00  0.00    +0.037 A 
ATOM     22  C   UNL     1       1.778   5.599  -9.102  0.00  0.00    +0.042 A 
ATOM     23  C   UNL     1       0.643   5.766  -9.878  0.00  0.00    +0.022 A 
ATOM     24  C   UNL     1      -0.607   5.796  -9.287  0.00  0.00    +0.035 A 
ATOM     25  C   UNL     1      -0.732   5.653  -7.920  0.00  0.00    +0.140 A 
ATOM     26 CL   UNL     1       3.343   5.564  -9.853  0.00  0.00    -0.084 Cl
BRANCH  25  27
ATOM     27  N   UNL     1      -2.071   5.679  -7.291  0.00  0.00    +0.057 N 
ATOM     28  O   UNL     1      -3.045   5.949  -7.954  0.00  0.00    -0.126 OA
ATOM     29  O   UNL     1      -2.191   5.431  -6.114  0.00  0.00    -0.126 OA
ENDBRANCH  25  27
ENDBRANCH  18  20
ENDBRANCH  17  18
ENDBRANCH  16  17
ENDBRANCH   2  16
TORSDOF 6
