REMARK  Name = ZINC58733080
REMARK  5 active torsions:
REMARK  status: ('A' for Active; 'I' for Inactive)
REMARK    1  A    between atoms: C_4  and  S_23
REMARK    2  A    between atoms: C_5  and  N_7
REMARK    3  A    between atoms: N_10  and  C_13
REMARK    4  A    between atoms: C_13  and  C_14
REMARK    5  A    between atoms: S_23  and  C_26
REMARK                            x       y       z     vdW  Elec       q    Type
REMARK                         _______ _______ _______ _____ _____    ______ ____
ROOT
ATOM      1  N   UNL     1       1.625  -1.674   1.460  0.00  0.00    -0.326 N 
ATOM      2  C   UNL     1       1.161  -1.676   2.855  0.00  0.00    +0.120 C 
ATOM      3  C   UNL     1       2.299  -2.185   3.746  0.00  0.00    +0.103 C 
ATOM      4  N   UNL     1       2.765  -3.485   3.245  0.00  0.00    -0.294 NA
ATOM      5  C   UNL     1       3.328  -3.364   1.893  0.00  0.00    +0.103 C 
ATOM      6  C   UNL     1       2.226  -2.905   0.925  0.00  0.00    +0.120 C 
ENDROOT
BRANCH   1  11
ATOM      7  C   UNL     1       2.336   1.577  -0.099  0.00  0.00    +0.002 A 
ATOM      8  C   UNL     1       1.232   1.721  -0.919  0.00  0.00    +0.002 A 
ATOM      9  C   UNL     1       0.258   0.740  -0.951  0.00  0.00    +0.029 A 
ATOM     10  C   UNL     1       0.386  -0.388  -0.163  0.00  0.00    +0.118 A 
ATOM     11  C   UNL     1       1.493  -0.535   0.661  0.00  0.00    +0.055 A 
ATOM     12  C   UNL     1       2.470   0.453   0.691  0.00  0.00    +0.025 A 
BRANCH  10  13
ATOM     13  S   UNL     1      -0.856  -1.637  -0.204  0.00  0.00    +0.093 S 
ATOM     14  O   UNL     1      -0.546  -2.493   0.887  0.00  0.00    -0.161 OA
ATOM     15  O   UNL     1      -2.086  -0.925  -0.239  0.00  0.00    -0.161 OA
BRANCH  13  16
ATOM     16  C   UNL     1      -0.593  -2.505  -1.775  0.00  0.00    +0.526 C 
ATOM     17  F   UNL     1       0.681  -3.083  -1.780  0.00  0.00    -0.150 F 
ATOM     18  F   UNL     1      -1.559  -3.506  -1.923  0.00  0.00    -0.150 F 
ATOM     19  F   UNL     1      -0.697  -1.597  -2.833  0.00  0.00    -0.150 F 
ENDBRANCH  13  16
ENDBRANCH  10  13
ENDBRANCH   1  11
BRANCH   4  20
ATOM     20  C   UNL     1       3.736  -4.088   4.168  0.00  0.00    +0.139 C 
BRANCH  20  21
ATOM     21  C   UNL     1       4.004  -5.512   3.755  0.00  0.00    +0.048 A 
ATOM     22  C   UNL     1       3.383  -6.606   4.247  0.00  0.00    +0.115 A 
ATOM     23  N   UNL     1       3.915  -7.694   3.610  0.00  0.00    -0.308 N 
ATOM     24  C   UNL     1       3.669  -9.033   3.708  0.00  0.00    +0.092 A 
ATOM     25  C   UNL     1       4.351  -9.914   2.947  0.00  0.00    +0.018 A 
ATOM     26  C   UNL     1       5.325  -9.463   2.041  0.00  0.00    +0.005 A 
ATOM     27  C   UNL     1       5.580  -8.132   1.933  0.00  0.00    +0.045 A 
ATOM     28  C   UNL     1       4.860  -7.224   2.735  0.00  0.00    +0.115 A 
ATOM     29  N   UNL     1       4.892  -5.902   2.837  0.00  0.00    -0.342 N 
ATOM     30  H   UNL     1       5.470  -5.313   2.327  0.00  0.00    +0.167 HD
ENDBRANCH  20  21
ENDBRANCH   4  20
TORSDOF 5
