REMARK  Name = ZINC12152476
REMARK  12 active torsions:
REMARK  status: ('A' for Active; 'I' for Inactive)
REMARK    1  A    between atoms: C_1  and  C_2
REMARK    2  A    between atoms: C_3  and  C_7
REMARK    3  A    between atoms: C_7  and  N_57
REMARK    4  A    between atoms: C_8  and  N_57
REMARK    5  A    between atoms: C_9  and  C_10
REMARK    6  A    between atoms: C_9  and  N_57
REMARK    7  A    between atoms: C_14  and  N_23
REMARK    8  A    between atoms: C_15  and  C_19
REMARK    9  A    between atoms: C_19  and  O_21
REMARK   10  A    between atoms: O_21  and  C_22
REMARK   11  A    between atoms: C_24  and  C_26
REMARK   12  A    between atoms: C_27  and  C_28
REMARK                            x       y       z     vdW  Elec       q    Type
REMARK                         _______ _______ _______ _____ _____    ______ ____
ROOT
ATOM      1  C   UNL     1      11.050   2.597  -1.071  0.00  0.00    +0.026 A 
ATOM      2  C   UNL     1      10.006   3.509  -1.014  0.00  0.00    +0.022 A 
ATOM      3  C   UNL     1       8.732   3.089  -0.717  0.00  0.00    +0.014 A 
ATOM      4  C   UNL     1       8.502   1.712  -0.471  0.00  0.00    +0.030 A 
ATOM      5  C   UNL     1       7.252   1.045  -0.142  0.00  0.00    +0.064 A 
ATOM      6  C   UNL     1       7.272  -0.318   0.062  0.00  0.00    +0.120 A 
ATOM      7  S   UNL     1       8.982  -0.748  -0.195  0.00  0.00    -0.060 S 
ATOM      8  C   UNL     1       9.631   0.866  -0.553  0.00  0.00    +0.111 A 
ATOM      9  N   UNL     1      10.833   1.317  -0.842  0.00  0.00    -0.246 NA
ENDROOT
BRANCH   5  10
ATOM     10  N   UNL     1       6.068   1.764  -0.030  0.00  0.00    -0.280 N 
ATOM     11  C   UNL     1       5.735   2.665  -0.976  0.00  0.00    +0.241 C 
ATOM     12  O   UNL     1       6.515   2.921  -1.874  0.00  0.00    -0.270 OA
ATOM     13  H   UNL     1       5.482   1.619   0.729  0.00  0.00    +0.155 HD
BRANCH  11  14
ATOM     14  C   UNL     1       4.435   3.334  -0.923  0.00  0.00    +0.068 C 
ATOM     15  C   UNL     1       4.101   4.235  -1.869  0.00  0.00    +0.013 C 
BRANCH  15  16
ATOM     16  C   UNL     1       2.793   4.909  -1.816  0.00  0.00    -0.022 A 
ATOM     17  C   UNL     1       1.894   4.617  -0.785  0.00  0.00    +0.008 A 
ATOM     18  C   UNL     1       0.670   5.250  -0.741  0.00  0.00    +0.003 A 
ATOM     19  C   UNL     1       0.330   6.175  -1.713  0.00  0.00    +0.038 A 
ATOM     20  C   UNL     1       1.217   6.474  -2.735  0.00  0.00    +0.124 A 
ATOM     21  C   UNL     1       2.444   5.843  -2.795  0.00  0.00    +0.046 A 
ATOM     22  F   UNL     1       0.879   7.382  -3.677  0.00  0.00    -0.205 F 
ENDBRANCH  15  16
ENDBRANCH  11  14
ENDBRANCH   5  10
BRANCH   6  23
ATOM     23  C   UNL     1       6.192  -1.172   0.395  0.00  0.00    +0.348 C 
ATOM     24  O   UNL     1       5.059  -0.732   0.438  0.00  0.00    -0.244 OA
BRANCH  23  25
ATOM     25  O   UNL     1       6.420  -2.475   0.663  0.00  0.00    -0.464 OA
ATOM     26  C   UNL     1       5.285  -3.279   0.991  0.00  0.00    +0.280 C 
ENDBRANCH  23  25
ENDBRANCH   6  23
BRANCH   1  27
ATOM     27  C   UNL     1      12.442   3.073  -1.398  0.00  0.00    -0.022 C 
BRANCH  27  29
ATOM     28  C   UNL     1      12.599   4.432   0.600  0.00  0.00    -0.095 C 
ATOM     29  N   UNL     1      13.181   3.290  -0.136  0.00  0.00    +0.385 N 
ATOM     30  H   UNL     1      13.105   2.446   0.444  0.00  0.00    -0.081 HD
BRANCH  29  31
ATOM     31  C   UNL     1      14.607   3.548  -0.424  0.00  0.00    -0.017 C 
BRANCH  31  34
ATOM     32  C   UNL     1      15.907   1.012   0.920  0.00  0.00    +0.071 C 
ATOM     33  C   UNL     1      15.954   2.412   1.475  0.00  0.00    +0.103 A 
ATOM     34  C   UNL     1      15.373   3.546   0.874  0.00  0.00    +0.091 A 
ATOM     35  N   UNL     1      15.605   4.591   1.611  0.00  0.00    -0.056 NA
ATOM     36  O   UNL     1      16.350   4.159   2.738  0.00  0.00    -0.242 OA
ATOM     37  N   UNL     1      16.538   2.761   2.582  0.00  0.00    -0.054 NA
ENDBRANCH  31  34
ENDBRANCH  29  31
ENDBRANCH  27  29
ENDBRANCH   1  27
TORSDOF 9
