REMARK  Name = ZINC44077844
REMARK  6 active torsions:
REMARK  status: ('A' for Active; 'I' for Inactive)
REMARK    1  A    between atoms: C_1  and  C_2
REMARK    2  A    between atoms: C_2  and  C_4
REMARK    3  A    between atoms: C_2  and  N_14
REMARK    4  A    between atoms: N_17  and  C_18
REMARK    5  A    between atoms: C_20  and  N_25
REMARK    6  A    between atoms: C_26  and  C_28
REMARK                            x       y       z     vdW  Elec       q    Type
REMARK                         _______ _______ _______ _____ _____    ______ ____
ROOT
ATOM      1  N   UNL     1       0.893   0.109   1.112  0.00  0.00    -0.293 N 
ATOM      2  C   UNL     1       2.212  -0.168   1.119  0.00  0.00    +0.304 C 
ATOM      3  O   UNL     1       2.882   0.041   0.126  0.00  0.00    -0.252 OA
ATOM      4  N   UNL     1       2.788  -0.675   2.226  0.00  0.00    -0.267 N 
ATOM      5  H   UNL     1       0.358  -0.057   1.904  0.00  0.00    +0.151 HD
ATOM      6  H   UNL     1       2.274  -0.763   3.044  0.00  0.00    +0.156 HD
ENDROOT
BRANCH   4   7
ATOM      7  C   UNL     1       4.130  -1.076   2.197  0.00  0.00    +0.072 A 
ATOM      8  C   UNL     1       4.749  -1.341   0.984  0.00  0.00    +0.049 A 
ATOM      9  C   UNL     1       6.079  -1.737   0.959  0.00  0.00    +0.035 A 
ATOM     10  C   UNL     1       6.786  -1.868   2.147  0.00  0.00    +0.026 A 
ATOM     11  C   UNL     1       6.168  -1.604   3.354  0.00  0.00    +0.042 A 
ATOM     12  C   UNL     1       4.845  -1.204   3.383  0.00  0.00    +0.145 A 
ATOM     13  F   UNL     1       4.244  -0.942   4.565  0.00  0.00    -0.204 F 
BRANCH   9  14
ATOM     14  N   UNL     1       6.706  -2.005  -0.264  0.00  0.00    -0.286 N 
ATOM     15  C   UNL     1       8.013  -1.720  -0.427  0.00  0.00    +0.214 C 
ATOM     16  O   UNL     1       8.624  -1.149   0.452  0.00  0.00    -0.276 OA
ATOM     17  C   UNL     1       8.716  -2.111  -1.701  0.00  0.00    +0.109 C 
ATOM     18  H   UNL     1       6.200  -2.396  -0.993  0.00  0.00    +0.155 HD
ENDBRANCH   9  14
ENDBRANCH   4   7
BRANCH   1  20
ATOM     19  C   UNL     1       0.436   2.181  -0.104  0.00  0.00    +0.033 C 
ATOM     20  C   UNL     1       0.267   0.661  -0.092  0.00  0.00    +0.102 C 
BRANCH  20  21
ATOM     21  C   UNL     1      -1.201   0.319  -0.097  0.00  0.00    -0.027 A 
ATOM     22  C   UNL     1      -1.931   0.379   1.076  0.00  0.00    +0.006 A 
ATOM     23  C   UNL     1      -3.273   0.062   1.064  0.00  0.00    +0.004 A 
ATOM     24  C   UNL     1      -3.899  -0.317  -0.117  0.00  0.00    -0.044 A 
ATOM     25  C   UNL     1      -3.173  -0.371  -1.286  0.00  0.00    -0.044 A 
ATOM     26  C   UNL     1      -1.822  -0.050  -1.272  0.00  0.00    +0.009 A 
ATOM     27  C   UNL     1      -3.789  -0.758  -2.605  0.00  0.00    +0.035 C 
ATOM     28  C   UNL     1      -5.120  -1.474  -2.387  0.00  0.00    +0.005 C 
ATOM     29  C   UNL     1      -5.983  -0.619  -1.452  0.00  0.00    +0.005 C 
ATOM     30  C   UNL     1      -5.365  -0.657  -0.056  0.00  0.00    +0.035 C 
ENDBRANCH  20  21
ENDBRANCH   1  20
TORSDOF 4
