REMARK  Name = ZINC19926427
REMARK  11 active torsions:
REMARK  status: ('A' for Active; 'I' for Inactive)
REMARK    1  A    between atoms: C_1  and  C_2
REMARK    2  A    between atoms: C_5  and  O_33
REMARK    3  A    between atoms: C_6  and  N_8
REMARK    4  A    between atoms: N_8  and  C_9
REMARK    5  A    between atoms: N_8  and  S_24
REMARK    6  A    between atoms: C_9  and  C_10
REMARK    7  A    between atoms: N_12  and  N_13
REMARK    8  A    between atoms: C_14  and  C_15
REMARK    9  A    between atoms: C_18  and  N_21
REMARK   10  A    between atoms: S_24  and  C_27
REMARK   11  A    between atoms: O_33  and  C_34
REMARK                            x       y       z     vdW  Elec       q    Type
REMARK                         _______ _______ _______ _____ _____    ______ ____
ROOT
ATOM      1  N   UNL     1       0.052  -2.794   2.398  0.00  0.00    -0.191 N 
ENDROOT
BRANCH   1   7
ATOM      2  C   UNL     1      -0.018   1.503   0.010  0.00  0.00    +0.044 C 
ATOM      3  C   UNL     1       0.002  -0.004   0.002  0.00  0.00    -0.048 A 
ATOM      4  C   UNL     1       0.006  -0.687  -1.200  0.00  0.00    +0.007 A 
ATOM      5  C   UNL     1       0.025  -2.070  -1.214  0.00  0.00    +0.048 A 
ATOM      6  C   UNL     1       0.041  -2.775  -0.022  0.00  0.00    +0.143 A 
ATOM      7  C   UNL     1       0.037  -2.087   1.190  0.00  0.00    +0.094 A 
ATOM      8  C   UNL     1       0.023  -0.700   1.196  0.00  0.00    +0.031 A 
BRANCH   6   9
ATOM      9  O   UNL     1       0.059  -4.134  -0.034  0.00  0.00    -0.493 OA
ATOM     10  C   UNL     1       0.061  -4.772  -1.313  0.00  0.00    +0.277 C 
ENDBRANCH   6   9
ENDBRANCH   1   7
BRANCH   1  11
ATOM     11  S   UNL     1       1.491  -3.301   3.043  0.00  0.00    +0.075 S 
ATOM     12  O   UNL     1       1.192  -4.405   3.885  0.00  0.00    -0.150 OA
ATOM     13  O   UNL     1       2.410  -3.393   1.963  0.00  0.00    -0.150 OA
BRANCH  11  14
ATOM     14  C   UNL     1       2.074  -2.011   4.092  0.00  0.00    +0.109 A 
ATOM     15  C   UNL     1       2.884  -1.015   3.578  0.00  0.00    +0.029 A 
ATOM     16  C   UNL     1       3.342  -0.004   4.402  0.00  0.00    +0.002 A 
ATOM     17  C   UNL     1       2.990   0.013   5.738  0.00  0.00    +0.000 A 
ATOM     18  C   UNL     1       2.179  -0.983   6.252  0.00  0.00    +0.002 A 
ATOM     19  C   UNL     1       1.718  -1.992   5.427  0.00  0.00    +0.029 A 
ENDBRANCH  11  14
ENDBRANCH   1  11
BRANCH   1  20
ATOM     20  C   UNL     1      -1.205  -3.086   3.092  0.00  0.00    +0.229 C 
BRANCH  20  21
ATOM     21  C   UNL     1      -1.809  -4.346   2.528  0.00  0.00    +0.251 C 
ATOM     22  O   UNL     1      -1.245  -4.942   1.635  0.00  0.00    -0.272 OA
ATOM     23  N   UNL     1      -2.975  -4.811   3.017  0.00  0.00    -0.206 N 
ATOM     24  H   UNL     1      -3.426  -4.335   3.732  0.00  0.00    +0.177 HD
BRANCH  23  25
ATOM     25  N   UNL     1      -3.537  -5.983   2.493  0.00  0.00    -0.188 NA
ATOM     26  C   UNL     1      -4.660  -6.431   2.964  0.00  0.00    +0.138 C 
BRANCH  26  27
ATOM     27  C   UNL     1      -5.251  -7.664   2.413  0.00  0.00    -0.005 A 
ATOM     28  C   UNL     1      -4.602  -8.357   1.388  0.00  0.00    +0.012 A 
ATOM     29  C   UNL     1      -5.161  -9.510   0.877  0.00  0.00    +0.033 A 
ATOM     30  C   UNL     1      -6.362  -9.981   1.377  0.00  0.00    +0.126 A 
ATOM     31  C   UNL     1      -7.011  -9.300   2.392  0.00  0.00    +0.033 A 
ATOM     32  C   UNL     1      -6.461  -8.149   2.917  0.00  0.00    +0.012 A 
BRANCH  30  33
ATOM     33  N   UNL     1      -6.955 -11.219   0.823  0.00  0.00    +0.056 N 
ATOM     34  O   UNL     1      -6.391 -11.815  -0.064  0.00  0.00    -0.126 OA
ATOM     35  O   UNL     1      -8.005 -11.633   1.258  0.00  0.00    -0.126 OA
ENDBRANCH  30  33
ENDBRANCH  26  27
ENDBRANCH  23  25
ENDBRANCH  20  21
ENDBRANCH   1  20
TORSDOF 9
