REMARK  Name = ZINC06878485
REMARK  7 active torsions:
REMARK  status: ('A' for Active; 'I' for Inactive)
REMARK    1  A    between atoms: C_1  and  C_2
REMARK    2  A    between atoms: C_2  and  N_3
REMARK    3  A    between atoms: C_14  and  S_15
REMARK    4  A    between atoms: S_15  and  C_16
REMARK    5  A    between atoms: C_16  and  C_17
REMARK    6  A    between atoms: C_26  and  C_30
REMARK    7  A    between atoms: C_26  and  C_31
REMARK                            x       y       z     vdW  Elec       q    Type
REMARK                         _______ _______ _______ _____ _____    ______ ____
ROOT
ATOM      1  C   UNL     1       4.689  -1.154  -1.225  0.00  0.00    +0.173 C 
ENDROOT
BRANCH   1   2
ATOM      2  C   UNL     1       5.931  -0.917  -0.404  0.00  0.00    +0.229 C 
ATOM      3  O   UNL     1       5.883  -0.203   0.574  0.00  0.00    -0.275 OA
ATOM      4  N   UNL     1       7.094  -1.500  -0.757  0.00  0.00    -0.264 N 
ATOM      5  C   UNL     1       8.237  -1.282  -0.000  0.00  0.00    +0.165 A 
ATOM      6  N   UNL     1       8.384  -0.553   1.085  0.00  0.00    -0.221 NA
ATOM      7  C   UNL     1       9.592  -0.478   1.665  0.00  0.00    +0.119 A 
ATOM      8  C   UNL     1      10.620  -1.192   1.059  0.00  0.00    +0.022 A 
ATOM      9  S   UNL     1       9.885  -1.926  -0.246  0.00  0.00    -0.056 S 
ATOM     10  C   UNL     1      12.040  -1.256   1.516  0.00  0.00    +0.051 C 
ATOM     11  C   UNL     1      12.320  -0.076   2.455  0.00  0.00    -0.023 C 
ATOM     12  C   UNL     1      11.242  -0.006   3.542  0.00  0.00    +0.088 C 
ATOM     13  C   UNL     1       9.906   0.299   2.893  0.00  0.00    +0.183 C 
ATOM     14  O   UNL     1       9.142   1.125   3.348  0.00  0.00    -0.290 OA
ATOM     15  C   UNL     1      13.690  -0.263   3.111  0.00  0.00    +0.011 C 
ATOM     16  C   UNL     1      12.317   1.225   1.651  0.00  0.00    +0.011 C 
ATOM     17  H   UNL     1       7.132  -2.072  -1.540  0.00  0.00    +0.157 HD
ENDBRANCH   1   2
BRANCH   1  18
ATOM     18  S   UNL     1       3.301  -0.240  -0.499  0.00  0.00    -0.079 S 
BRANCH  18  30
ATOM     19  N   UNL     1       0.664  -0.148  -1.415  0.00  0.00    -0.266 N 
ATOM     20  C   UNL     1      -0.088  -0.649  -2.419  0.00  0.00    +0.119 C 
ATOM     21  C   UNL     1      -1.514  -0.394  -2.642  0.00  0.00    +0.013 C 
ATOM     22  C   UNL     1      -2.246  -1.215  -3.513  0.00  0.00    +0.015 C 
ATOM     23  C   UNL     1      -3.571  -0.979  -3.720  0.00  0.00    +0.051 C 
ATOM     24  C   UNL     1      -4.205   0.085  -3.062  0.00  0.00    +0.179 C 
ATOM     25  O   UNL     1      -5.504   0.317  -3.265  0.00  0.00    -0.288 OA
ATOM     26  C   UNL     1      -3.474   0.906  -2.191  0.00  0.00    +0.051 C 
ATOM     27  C   UNL     1      -2.149   0.667  -1.980  0.00  0.00    +0.015 C 
ATOM     28  N   UNL     1       0.706  -1.420  -3.177  0.00  0.00    -0.221 N 
ATOM     29  N   UNL     1       1.988  -1.387  -2.611  0.00  0.00    -0.158 NA
ATOM     30  C   UNL     1       1.944  -0.615  -1.559  0.00  0.00    +0.180 C 
ATOM     31  H   UNL     1       0.442  -1.911  -3.971  0.00  0.00    +0.176 HD
BRANCH  19  33
ATOM     32  C   UNL     1       0.467   2.198  -0.752  0.00  0.00    +0.025 C 
ATOM     33  C   UNL     1       0.192   0.746  -0.355  0.00  0.00    +0.111 C 
ENDBRANCH  19  33
ENDBRANCH  18  30
ENDBRANCH   1  18
TORSDOF 4
