REMARK  Name = ZINC21964973
REMARK  5 active torsions:
REMARK  status: ('A' for Active; 'I' for Inactive)
REMARK    1  A    between atoms: C_3  and  C_8
REMARK    2  A    between atoms: C_17  and  C_25
REMARK    3  A    between atoms: C_18  and  N_24
REMARK    4  A    between atoms: C_19  and  C_20
REMARK    5  A    between atoms: C_19  and  C_22
REMARK                            x       y       z     vdW  Elec       q    Type
REMARK                         _______ _______ _______ _____ _____    ______ ____
ROOT
ATOM      1  C   UNL     1      -3.658   1.654  -0.457  0.00  0.00    +0.067 C 
ATOM      2  C   UNL     1      -3.784   2.966   0.319  0.00  0.00    +0.040 C 
ATOM      3  C   UNL     1      -5.152   3.579   0.170  0.00  0.00    +0.078 C 
ATOM      4  S   UNL     1      -5.141   4.891  -1.087  0.00  0.00    -0.156 S 
ATOM      5  C   UNL     1      -3.791   5.960  -0.493  0.00  0.00    +0.096 C 
ATOM      6  C   UNL     1      -2.580   5.095  -0.296  0.00  0.00    -0.011 C 
ATOM      7  C   UNL     1      -2.609   3.831   0.013  0.00  0.00    -0.027 C 
ATOM      8  C   UNL     1      -1.276   3.150   0.052  0.00  0.00    +0.074 C 
ATOM      9  C   UNL     1      -1.214   1.798   0.049  0.00  0.00    +0.054 C 
ATOM     10  C   UNL     1      -2.419   0.906   0.039  0.00  0.00    +0.188 C 
ENDROOT
BRANCH   1  13
ATOM     11  C   UNL     1      -2.129   2.434  -3.820  0.00  0.00    +0.002 A 
ATOM     12  C   UNL     1      -2.262   2.169  -2.470  0.00  0.00    +0.004 A 
ATOM     13  C   UNL     1      -3.514   1.949  -1.928  0.00  0.00    -0.039 A 
ATOM     14  C   UNL     1      -4.636   2.005  -2.734  0.00  0.00    +0.024 A 
ATOM     15  C   UNL     1      -4.504   2.276  -4.084  0.00  0.00    +0.041 A 
ATOM     16  C   UNL     1      -3.249   2.491  -4.627  0.00  0.00    +0.020 A 
ATOM     17 CL   UNL     1      -5.912   2.347  -5.097  0.00  0.00    -0.084 Cl
ENDBRANCH   1  13
BRANCH   9  18
ATOM     18  N   UNL     1       0.020   1.211   0.059  0.00  0.00    -0.358 N 
ATOM     19  H   UNL     1       0.107   0.114   0.057  0.00  0.00    +0.142 HD
ATOM     20  H   UNL     1       0.926   1.835   0.071  0.00  0.00    +0.142 HD
ENDBRANCH   9  18
BRANCH  10  21
ATOM     21  C   UNL     1      -2.163  -0.242  -0.845  0.00  0.00    +0.091 C 
ATOM     22  N   UNL     1      -1.965  -1.129  -1.527  0.00  0.00    -0.194 NA
ENDBRANCH  10  21
BRANCH  10  23
ATOM     23  C   UNL     1      -2.667   0.416   1.405  0.00  0.00    +0.091 C 
ATOM     24  N   UNL     1      -2.858   0.037   2.459  0.00  0.00    -0.194 NA
ENDBRANCH  10  23
BRANCH   8  25
ATOM     25  C   UNL     1      -0.073   3.925   0.088  0.00  0.00    +0.101 C 
ATOM     26  N   UNL     1       0.882   4.539   0.117  0.00  0.00    -0.191 NA
ENDBRANCH   8  25
TORSDOF 5
