REMARK  Name = ZINC13499063
REMARK  15 active torsions:
REMARK  status: ('A' for Active; 'I' for Inactive)
REMARK    1  A    between atoms: C_1  and  C_2
REMARK    2  A    between atoms: C_2  and  O_3
REMARK    3  A    between atoms: O_3  and  C_4
REMARK    4  A    between atoms: C_4  and  C_6
REMARK    5  A    between atoms: C_6  and  N_7
REMARK    6  A    between atoms: C_8  and  C_12
REMARK    7  A    between atoms: C_12  and  C_14
REMARK    8  A    between atoms: C_12  and  N_74
REMARK    9  A    between atoms: C_14  and  C_15
REMARK   10  A    between atoms: C_14  and  C_16
REMARK   11  A    between atoms: C_17  and  C_18
REMARK   12  A    between atoms: C_17  and  N_74
REMARK   13  A    between atoms: C_21  and  C_31
REMARK   14  A    between atoms: C_23  and  C_30
REMARK   15  A    between atoms: C_32  and  N_74
REMARK                            x       y       z     vdW  Elec       q    Type
REMARK                         _______ _______ _______ _____ _____    ______ ____
ROOT
ATOM      1  N   UNL     1      -4.424   1.456   1.385  0.00  0.00    +0.391 N 
ATOM      2  H   UNL     1      -5.168   1.952   1.889  0.00  0.00    -0.080 HD
ENDROOT
BRANCH   1   3
ATOM      3  C   UNL     1      -4.039   0.255   2.157  0.00  0.00    -0.067 C 
ATOM      4  C   UNL     1      -3.177  -0.677   1.304  0.00  0.00    -0.015 C 
ATOM      5  C   UNL     1      -2.798  -1.913   2.122  0.00  0.00    -0.002 C 
ATOM      6  C   UNL     1      -4.068  -2.647   2.555  0.00  0.00    -0.000 C 
ATOM      7  C   UNL     1      -4.931  -1.715   3.408  0.00  0.00    -0.002 C 
ATOM      8  C   UNL     1      -5.310  -0.479   2.589  0.00  0.00    -0.015 C 
ENDBRANCH   1   3
BRANCH   1   9
ATOM      9  C   UNL     1      -3.261   2.356   1.238  0.00  0.00    +0.006 C 
BRANCH   9  11
ATOM     10  N   UNL     1      -1.215   2.415   2.760  0.00  0.00    -0.220 N 
ATOM     11  C   UNL     1      -2.545   2.461   2.561  0.00  0.00    +0.139 A 
ATOM     12  N   UNL     1      -3.098   2.611   3.740  0.00  0.00    -0.115 NA
ATOM     13  N   UNL     1      -2.155   2.663   4.617  0.00  0.00    -0.023 NA
ATOM     14  N   UNL     1      -1.016   2.545   4.028  0.00  0.00    -0.043 NA
BRANCH  10  15
ATOM     15  C   UNL     1      -0.186   2.254   1.730  0.00  0.00    +0.267 C 
BRANCH  15  16
ATOM     16  C   UNL     1       0.101   0.787   1.532  0.00  0.00    +0.329 C 
ATOM     17  O   UNL     1      -0.493  -0.038   2.184  0.00  0.00    -0.249 OA
BRANCH  16  18
ATOM     18  O   UNL     1       1.017   0.399   0.631  0.00  0.00    -0.464 OA
BRANCH  18  20
ATOM     19  C   UNL     1       2.312  -1.277  -0.572  0.00  0.00    +0.048 C 
ATOM     20  C   UNL     1       1.242  -1.029   0.493  0.00  0.00    +0.229 C 
ENDBRANCH  18  20
ENDBRANCH  16  18
ENDBRANCH  15  16
ENDBRANCH  10  15
ENDBRANCH   9  11
BRANCH   9  21
ATOM     21  C   UNL     1      -3.761   3.740   0.818  0.00  0.00    -0.024 C 
ATOM     22  C   UNL     1      -4.740   4.268   1.868  0.00  0.00    +0.006 C 
ATOM     23  C   UNL     1      -2.574   4.697   0.701  0.00  0.00    +0.006 C 
ENDBRANCH   9  21
ENDBRANCH   1   9
BRANCH   1  24
ATOM     24  C   UNL     1      -4.927   1.060   0.053  0.00  0.00    -0.036 C 
BRANCH  24  25
ATOM     25  C   UNL     1      -5.764   2.184  -0.500  0.00  0.00    +0.001 A 
ATOM     26  C   UNL     1      -5.338   2.872  -1.588  0.00  0.00    +0.017 A 
ATOM     27  C   UNL     1      -6.176   3.956  -2.104  0.00  0.00    +0.002 A 
ATOM     28  C   UNL     1      -5.792   4.697  -3.226  0.00  0.00    -0.041 A 
ATOM     29  C   UNL     1      -6.595   5.705  -3.679  0.00  0.00    +0.007 A 
ATOM     30  C   UNL     1      -7.789   6.001  -3.035  0.00  0.00    -0.048 A 
ATOM     31  C   UNL     1      -8.187   5.284  -1.928  0.00  0.00    +0.029 A 
ATOM     32  C   UNL     1      -7.386   4.253  -1.448  0.00  0.00    +0.050 A 
ATOM     33  N   UNL     1      -7.761   3.519  -0.343  0.00  0.00    -0.322 N 
ATOM     34  H   UNL     1      -8.595   3.724   0.107  0.00  0.00    +0.169 HD
ATOM     35  C   UNL     1      -6.986   2.522   0.120  0.00  0.00    +0.251 A 
ATOM     36  O   UNL     1      -7.349   1.894   1.099  0.00  0.00    -0.268 OA
ATOM     37  C   UNL     1      -8.659   7.117  -3.553  0.00  0.00    +0.044 C 
ATOM     38  C   UNL     1      -4.497   4.386  -3.932  0.00  0.00    +0.044 C 
ENDBRANCH  24  25
ENDBRANCH   1  24
TORSDOF 10
