REMARK  Name = ZINC47702788
REMARK  7 active torsions:
REMARK  status: ('A' for Active; 'I' for Inactive)
REMARK    1  A    between atoms: C_1  and  C_2
REMARK    2  A    between atoms: C_5  and  N_9
REMARK    3  A    between atoms: N_12  and  C_13
REMARK    4  A    between atoms: C_13  and  C_15
REMARK    5  A    between atoms: C_13  and  C_16
REMARK    6  A    between atoms: C_19  and  N_22
REMARK    7  A    between atoms: N_25  and  C_26
REMARK                            x       y       z     vdW  Elec       q    Type
REMARK                         _______ _______ _______ _____ _____    ______ ____
ROOT
ATOM      1  C   UNL     1       0.405  -6.925   2.349  0.00  0.00    +0.102 C 
ATOM      2  C   UNL     1       1.875  -6.941   2.773  0.00  0.00    +0.033 C 
ENDROOT
BRANCH   1   6
ATOM      3  N   UNL     1       0.019  -4.172  -0.058  0.00  0.00    -0.269 N 
ATOM      4  C   UNL     1       0.145  -4.848   1.101  0.00  0.00    +0.304 C 
ATOM      5  O   UNL     1       0.147  -4.247   2.158  0.00  0.00    -0.252 OA
ATOM      6  N   UNL     1       0.268  -6.190   1.089  0.00  0.00    -0.293 N 
ATOM      7  H   UNL     1      -0.050  -4.655  -0.896  0.00  0.00    +0.156 HD
ATOM      8  H   UNL     1       0.267  -6.669   0.245  0.00  0.00    +0.151 HD
BRANCH   3  13
ATOM      9  C   UNL     1      -0.105   1.502  -0.040  0.00  0.00    +0.047 C 
ATOM     10  C   UNL     1      -0.072  -0.005  -0.044  0.00  0.00    -0.015 A 
ATOM     11  C   UNL     1       0.536  -0.679  -1.087  0.00  0.00    +0.008 A 
ATOM     12  C   UNL     1       0.568  -2.060  -1.094  0.00  0.00    +0.024 A 
ATOM     13  C   UNL     1      -0.011  -2.773  -0.052  0.00  0.00    +0.037 A 
ATOM     14  C   UNL     1      -0.621  -2.095   0.995  0.00  0.00    +0.062 A 
ATOM     15  C   UNL     1      -0.646  -0.712   1.000  0.00  0.00    +0.128 A 
ATOM     16  F   UNL     1      -1.234  -0.051   2.020  0.00  0.00    -0.205 F 
ENDBRANCH   3  13
ENDBRANCH   1   6
BRANCH   1  17
ATOM     17  C   UNL     1      -0.079  -8.340   2.160  0.00  0.00    -0.027 A 
ATOM     18  C   UNL     1       0.221  -9.022   0.994  0.00  0.00    +0.007 A 
ATOM     19  C   UNL     1      -0.220 -10.318   0.818  0.00  0.00    +0.023 A 
ATOM     20  C   UNL     1      -0.966 -10.938   1.813  0.00  0.00    +0.035 A 
ATOM     21  C   UNL     1      -1.265 -10.250   2.982  0.00  0.00    +0.023 A 
ATOM     22  C   UNL     1      -0.816  -8.956   3.154  0.00  0.00    +0.007 A 
BRANCH  20  23
ATOM     23  N   UNL     1      -1.415 -12.251   1.637  0.00  0.00    -0.269 N 
ATOM     24  C   UNL     1      -0.652 -13.141   0.973  0.00  0.00    +0.304 C 
ATOM     25  O   UNL     1       0.387 -12.783   0.454  0.00  0.00    -0.253 OA
ATOM     26  N   UNL     1      -1.041 -14.429   0.884  0.00  0.00    -0.296 N 
ATOM     27  H   UNL     1      -2.276 -12.521   1.994  0.00  0.00    +0.156 HD
ATOM     28  H   UNL     1      -1.870 -14.715   1.298  0.00  0.00    +0.151 HD
BRANCH  26  29
ATOM     29  C   UNL     1      -0.211 -15.396   0.162  0.00  0.00    +0.075 C 
ATOM     30  C   UNL     1      -0.921 -16.378  -0.773  0.00  0.00    +0.024 C 
ATOM     31  C   UNL     1      -0.340 -16.869   0.554  0.00  0.00    +0.024 C 
ENDBRANCH  26  29
ENDBRANCH  20  23
ENDBRANCH   1  17
TORSDOF 5
