REMARK  Name = ZINC40044435
REMARK  5 active torsions:
REMARK  status: ('A' for Active; 'I' for Inactive)
REMARK    1  A    between atoms: C_1  and  C_2
REMARK    2  A    between atoms: C_6  and  N_8
REMARK    3  A    between atoms: C_9  and  C_26
REMARK    4  A    between atoms: C_16  and  C_25
REMARK    5  A    between atoms: C_18  and  C_24
REMARK                            x       y       z     vdW  Elec       q    Type
REMARK                         _______ _______ _______ _____ _____    ______ ____
ROOT
ATOM      1  N   UNL     1       0.051  -2.637   2.416  0.00  0.00    -0.238 N 
ATOM      2  C   UNL     1      -0.062  -1.996   3.736  0.00  0.00    +0.151 C 
ATOM      3  C   UNL     1       0.009  -3.105   4.734  0.00  0.00    +0.072 A 
ATOM      4  C   UNL     1      -0.038  -3.091   6.200  0.00  0.00    +0.199 A 
ATOM      5  O   UNL     1      -0.326  -2.100   6.848  0.00  0.00    -0.287 OA
ATOM      6  C   UNL     1       0.298  -4.398   6.818  0.00  0.00    +0.065 A 
ATOM      7  C   UNL     1       0.492  -4.499   8.196  0.00  0.00    +0.018 A 
ATOM      8  C   UNL     1       0.806  -5.709   8.749  0.00  0.00    -0.049 A 
ATOM      9  C   UNL     1       0.934  -6.833   7.946  0.00  0.00    +0.010 A 
ATOM     10  C   UNL     1       0.745  -6.752   6.584  0.00  0.00    -0.007 A 
ATOM     11  C   UNL     1       0.420  -5.530   5.996  0.00  0.00    +0.142 A 
ATOM     12  O   UNL     1       0.229  -5.475   4.658  0.00  0.00    -0.449 OA
ATOM     13  C   UNL     1       0.144  -4.277   4.045  0.00  0.00    +0.199 A 
ATOM     14  C   UNL     1       0.165  -3.967   2.606  0.00  0.00    +0.288 C 
ATOM     15  O   UNL     1       0.272  -4.790   1.718  0.00  0.00    -0.266 OA
ATOM     16  C   UNL     1       0.889  -7.985   5.730  0.00  0.00    +0.047 C 
ATOM     17  C   UNL     1       1.016  -5.822  10.238  0.00  0.00    +0.044 C 
ENDROOT
BRANCH   1  23
ATOM     18  C   UNL     1      -0.018   1.503   0.010  0.00  0.00    +0.065 C 
ATOM     19  C   UNL     1       0.002  -0.004   0.002  0.00  0.00    +0.040 A 
ATOM     20  C   UNL     1       0.006  -0.679  -1.203  0.00  0.00    +0.023 A 
ATOM     21  C   UNL     1       0.025  -2.067  -1.204  0.00  0.00    +0.005 A 
ATOM     22  C   UNL     1       0.040  -2.728   0.011  0.00  0.00    +0.044 A 
ATOM     23  C   UNL     1       0.035  -1.984   1.186  0.00  0.00    +0.129 A 
ATOM     24  N   UNL     1       0.022  -0.661   1.145  0.00  0.00    -0.237 NA
ENDBRANCH   1  23
BRANCH   2  25
ATOM     25  C   UNL     1       1.079  -1.033   3.946  0.00  0.00    -0.022 A 
ATOM     26  C   UNL     1       2.344  -1.352   3.490  0.00  0.00    +0.007 A 
ATOM     27  C   UNL     1       3.390  -0.469   3.681  0.00  0.00    +0.015 A 
ATOM     28  C   UNL     1       3.170   0.734   4.329  0.00  0.00    +0.018 A 
ATOM     29  C   UNL     1       1.904   1.052   4.785  0.00  0.00    +0.015 A 
ATOM     30  C   UNL     1       0.857   0.170   4.588  0.00  0.00    +0.007 A 
ATOM     31 BR   UNL     1       4.601   1.942   4.591  0.00  0.00    -0.050 Br
ENDBRANCH   2  25
TORSDOF 2
