REMARK  Name = ZINC38985143
REMARK  9 active torsions:
REMARK  status: ('A' for Active; 'I' for Inactive)
REMARK    1  A    between atoms: C_1  and  C_2
REMARK    2  A    between atoms: C_2  and  N_3
REMARK    3  A    between atoms: N_3  and  C_4
REMARK    4  A    between atoms: N_3  and  C_6
REMARK    5  A    between atoms: C_4  and  C_5
REMARK    6  A    between atoms: C_9  and  C_13
REMARK    7  A    between atoms: C_10  and  O_12
REMARK    8  A    between atoms: N_14  and  N_15
REMARK    9  A    between atoms: C_16  and  C_22
REMARK                            x       y       z     vdW  Elec       q    Type
REMARK                         _______ _______ _______ _____ _____    ______ ____
ROOT
ATOM      1  C   UNL     1       6.332  -1.155   1.053  0.00  0.00    +0.142 C 
ATOM      2  N   UNL     1       6.914  -1.785   2.029  0.00  0.00    -0.183 NA
ENDROOT
BRANCH   2   3
ATOM      3  N   UNL     1       8.277  -2.098   1.947  0.00  0.00    -0.172 N 
ATOM      4  C   UNL     1       9.129  -2.701   2.989  0.00  0.00    +0.265 C 
ATOM      5  N   UNL     1      10.451  -2.797   2.350  0.00  0.00    -0.189 NA
ATOM      6  N   UNL     1      10.358  -2.347   1.205  0.00  0.00    -0.219 N 
ATOM      7  C   UNL     1       9.104  -1.921   0.893  0.00  0.00    +0.174 C 
ATOM      8  S   UNL     1       8.643  -1.255  -0.615  0.00  0.00    -0.015 S 
ATOM      9  H   UNL     1      11.104  -2.306   0.587  0.00  0.00    +0.176 HD
BRANCH   4  10
ATOM     10  C   UNL     1       8.619  -4.068   3.364  0.00  0.00    +0.016 A 
ATOM     11  C   UNL     1       7.287  -4.386   3.172  0.00  0.00    +0.010 A 
ATOM     12  C   UNL     1       6.819  -5.639   3.516  0.00  0.00    +0.020 A 
ATOM     13  C   UNL     1       7.682  -6.578   4.053  0.00  0.00    +0.042 A 
ATOM     14  C   UNL     1       9.015  -6.261   4.245  0.00  0.00    +0.040 A 
ATOM     15  C   UNL     1       9.485  -5.007   3.896  0.00  0.00    +0.049 A 
ATOM     16 CL   UNL     1      11.158  -4.610   4.131  0.00  0.00    -0.083 Cl
ATOM     17 CL   UNL     1       7.093  -8.152   4.485  0.00  0.00    -0.083 Cl
ENDBRANCH   4  10
ENDBRANCH   2   3
BRANCH   1  21
ATOM     18  C   UNL     1       2.135  -0.509   1.143  0.00  0.00    +0.033 A 
ATOM     19  C   UNL     1       2.888  -0.046   0.068  0.00  0.00    +0.024 A 
ATOM     20  C   UNL     1       4.249  -0.254   0.035  0.00  0.00    +0.015 A 
ATOM     21  C   UNL     1       4.877  -0.931   1.085  0.00  0.00    +0.036 A 
ATOM     22  C   UNL     1       4.117  -1.397   2.168  0.00  0.00    +0.127 A 
ATOM     23  C   UNL     1       2.751  -1.179   2.193  0.00  0.00    +0.069 A 
BRANCH  22  24
ATOM     24  O   UNL     1       4.721  -2.055   3.190  0.00  0.00    -0.506 OA
ATOM     25  H   UNL     1       5.022  -1.479   3.906  0.00  0.00    +0.292 HD
ENDBRANCH  22  24
BRANCH  18  26
ATOM     26  N   UNL     1       0.757  -0.295   1.170  0.00  0.00    -0.330 N 
BRANCH  26  28
ATOM     27  C   UNL     1       0.085   1.911   0.358  0.00  0.00    +0.024 C 
ATOM     28  C   UNL     1       0.104   0.410   0.064  0.00  0.00    +0.102 C 
ENDBRANCH  26  28
BRANCH  26  29
ATOM     29  C   UNL     1      -0.037  -0.776   2.303  0.00  0.00    +0.102 C 
ATOM     30  C   UNL     1      -0.522  -2.200   2.018  0.00  0.00    +0.024 C 
ENDBRANCH  26  29
ENDBRANCH  18  26
ENDBRANCH   1  21
TORSDOF 7
