REMARK  Name = ZINC08763385
REMARK  10 active torsions:
REMARK  status: ('A' for Active; 'I' for Inactive)
REMARK    1  A    between atoms: C_1  and  C_2
REMARK    2  A    between atoms: C_3  and  C_33
REMARK    3  A    between atoms: C_5  and  N_25
REMARK    4  A    between atoms: C_6  and  C_7
REMARK    5  A    between atoms: C_7  and  C_9
REMARK    6  A    between atoms: C_7  and  N_61
REMARK    7  A    between atoms: C_12  and  O_15
REMARK    8  A    between atoms: O_15  and  C_16
REMARK    9  A    between atoms: C_21  and  C_24
REMARK   10  A    between atoms: C_26  and  C_28
REMARK                            x       y       z     vdW  Elec       q    Type
REMARK                         _______ _______ _______ _____ _____    ______ ____
ROOT
ATOM      1  C   UNL     1       0.209   4.345  -0.193  0.00  0.00    -0.004 C 
ENDROOT
BRANCH   1   8
ATOM      2  C   UNL     1      -2.088   4.057  -0.902  0.00  0.00    -0.077 C 
ATOM      3  C   UNL     1      -3.041   3.121  -1.649  0.00  0.00    -0.015 C 
ATOM      4  C   UNL     1      -2.623   3.042  -3.119  0.00  0.00    -0.018 C 
ATOM      5  C   UNL     1      -1.173   2.557  -3.205  0.00  0.00    -0.015 C 
ATOM      6  C   UNL     1      -0.274   3.510  -2.413  0.00  0.00    -0.077 C 
ATOM      7  C   UNL     1      -3.534   2.061  -3.858  0.00  0.00    +0.007 C 
ATOM      8  N   UNL     1      -0.713   3.521  -1.001  0.00  0.00    +0.387 N 
ATOM      9  H   UNL     1      -0.704   2.560  -0.641  0.00  0.00    -0.080 HD
ENDBRANCH   1   8
BRANCH   1  15
ATOM     10  C   UNL     1       2.545   6.062  -0.486  0.00  0.00    +0.045 C 
ATOM     11  C   UNL     1       2.700   4.565  -0.412  0.00  0.00    -0.037 A 
ATOM     12  C   UNL     1       3.929   3.998  -0.481  0.00  0.00    -0.008 A 
ATOM     13  S   UNL     1       3.546   2.260  -0.340  0.00  0.00    -0.078 S 
ATOM     14  C   UNL     1       1.772   2.402  -0.208  0.00  0.00    +0.074 A 
ATOM     15  C   UNL     1       1.591   3.751  -0.272  0.00  0.00    -0.025 A 
ATOM     16  C   UNL     1       5.273   4.664  -0.632  0.00  0.00    +0.052 C 
BRANCH  14  17
ATOM     17  N   UNL     1       0.817   1.393  -0.070  0.00  0.00    -0.273 N 
ATOM     18  C   UNL     1       1.207   0.114   0.101  0.00  0.00    +0.284 C 
ATOM     19  O   UNL     1       2.393  -0.161   0.135  0.00  0.00    -0.266 OA
ATOM     20  H   UNL     1      -0.128   1.611  -0.101  0.00  0.00    +0.156 HD
BRANCH  18  21
ATOM     21  C   UNL     1       0.204  -0.946   0.246  0.00  0.00    +0.189 A 
ATOM     22  C   UNL     1       0.462  -2.275   0.425  0.00  0.00    +0.054 A 
ATOM     23  C   UNL     1      -0.783  -2.918   0.515  0.00  0.00    +0.042 A 
ATOM     24  C   UNL     1      -1.733  -1.966   0.389  0.00  0.00    +0.196 A 
ATOM     25  O   UNL     1      -1.134  -0.778   0.233  0.00  0.00    -0.458 OA
ENDBRANCH  18  21
ENDBRANCH  14  17
ENDBRANCH   1  15
BRANCH   1  26
ATOM     26  C   UNL     1      -0.259   4.339   1.240  0.00  0.00    -0.056 A 
ATOM     27  C   UNL     1      -0.861   3.211   1.765  0.00  0.00    +0.006 A 
ATOM     28  C   UNL     1      -1.286   3.200   3.079  0.00  0.00    +0.046 A 
ATOM     29  C   UNL     1      -1.117   4.328   3.870  0.00  0.00    +0.127 A 
ATOM     30  C   UNL     1      -0.517   5.461   3.340  0.00  0.00    +0.046 A 
ATOM     31  C   UNL     1      -0.089   5.464   2.026  0.00  0.00    +0.006 A 
BRANCH  29  32
ATOM     32  O   UNL     1      -1.540   4.323   5.162  0.00  0.00    -0.434 OA
BRANCH  32  33
ATOM     33  C   UNL     1      -2.148   3.122   5.640  0.00  0.00    +0.541 C 
ATOM     34  F   UNL     1      -3.283   2.836   4.873  0.00  0.00    -0.166 F 
ATOM     35  F   UNL     1      -1.238   2.064   5.538  0.00  0.00    -0.166 F 
ENDBRANCH  32  33
ENDBRANCH  29  32
ENDBRANCH   1  26
TORSDOF 7
