REMARK  Name = ZINC16292975
REMARK  12 active torsions:
REMARK  status: ('A' for Active; 'I' for Inactive)
REMARK    1  A    between atoms: C_1  and  C_2
REMARK    2  A    between atoms: C_5  and  N_8
REMARK    3  A    between atoms: C_9  and  C_11
REMARK    4  A    between atoms: C_11  and  C_30
REMARK    5  A    between atoms: C_12  and  C_13
REMARK    6  A    between atoms: C_15  and  C_29
REMARK    7  A    between atoms: N_16  and  C_19
REMARK    8  A    between atoms: C_17  and  C_18
REMARK    9  A    between atoms: C_22  and  O_25
REMARK   10  A    between atoms: O_25  and  C_26
REMARK   11  A    between atoms: C_26  and  C_27
REMARK   12  A    between atoms: C_26  and  C_28
REMARK                            x       y       z     vdW  Elec       q    Type
REMARK                         _______ _______ _______ _____ _____    ______ ____
ROOT
ATOM      1  C   UNL     1       4.874  -5.132  -0.117  0.00  0.00    -0.003 A 
ATOM      2  C   UNL     1       4.864  -3.707   0.242  0.00  0.00    +0.031 A 
ATOM      3  C   UNL     1       6.143  -3.297   0.203  0.00  0.00    +0.022 A 
ATOM      4  N   UNL     1       6.943  -4.349  -0.149  0.00  0.00    -0.317 N 
ATOM      5  C   UNL     1       6.202  -5.458  -0.340  0.00  0.00    +0.028 A 
ATOM      6  C   UNL     1       6.727  -6.816  -0.731  0.00  0.00    +0.064 C 
ATOM      7  C   UNL     1       6.621  -1.899   0.501  0.00  0.00    +0.064 C 
ENDROOT
BRANCH   4   8
ATOM      8  C   UNL     1       8.337  -4.283  -0.286  0.00  0.00    +0.047 A 
ATOM      9  C   UNL     1       8.922  -4.486  -1.529  0.00  0.00    +0.030 A 
ATOM     10  C   UNL     1      10.295  -4.417  -1.665  0.00  0.00    +0.047 A 
ATOM     11  C   UNL     1      11.089  -4.155  -0.558  0.00  0.00    +0.121 A 
ATOM     12  C   UNL     1      10.505  -3.958   0.685  0.00  0.00    +0.047 A 
ATOM     13  C   UNL     1       9.133  -4.022   0.821  0.00  0.00    +0.030 A 
BRANCH  11  14
ATOM     14  O   UNL     1      12.441  -4.093  -0.691  0.00  0.00    -0.489 OA
BRANCH  14  15
ATOM     15  C   UNL     1      13.197  -3.817   0.489  0.00  0.00    +0.167 C 
ATOM     16  C   UNL     1      13.465  -5.122   1.241  0.00  0.00    +0.051 C 
ATOM     17  C   UNL     1      14.528  -3.168   0.103  0.00  0.00    +0.051 C 
ENDBRANCH  14  15
ENDBRANCH  11  14
ENDBRANCH   4   8
BRANCH   1  19
ATOM     18  C   UNL     1       2.784  -5.979   0.772  0.00  0.00    +0.114 C 
ATOM     19  C   UNL     1       3.755  -5.997  -0.210  0.00  0.00    +0.033 C 
BRANCH  18  21
ATOM     20  N   UNL     1       2.000  -5.075   2.899  0.00  0.00    -0.281 N 
ATOM     21  C   UNL     1       2.997  -5.203   2.001  0.00  0.00    +0.259 C 
ATOM     22  O   UNL     1       4.074  -4.676   2.209  0.00  0.00    -0.269 OA
ATOM     23  H   UNL     1       1.163  -5.546   2.765  0.00  0.00    +0.155 HD
BRANCH  20  28
ATOM     24  C   UNL     1       2.697  -1.778   7.462  0.00  0.00    +0.044 C 
ATOM     25  C   UNL     1       2.512  -2.653   6.249  0.00  0.00    -0.050 A 
ATOM     26  C   UNL     1       1.275  -2.729   5.635  0.00  0.00    +0.005 A 
ATOM     27  C   UNL     1       1.102  -3.530   4.524  0.00  0.00    +0.023 A 
ATOM     28  C   UNL     1       2.172  -4.261   4.024  0.00  0.00    +0.034 A 
ATOM     29  C   UNL     1       3.413  -4.183   4.643  0.00  0.00    +0.023 A 
ATOM     30  C   UNL     1       3.579  -3.380   5.754  0.00  0.00    +0.005 A 
ENDBRANCH  20  28
ENDBRANCH  18  21
BRANCH  18  31
ATOM     31  C   UNL     1       1.569  -6.716   0.593  0.00  0.00    +0.104 C 
ATOM     32  N   UNL     1       0.606  -7.301   0.450  0.00  0.00    -0.191 NA
ENDBRANCH  18  31
ENDBRANCH   1  19
TORSDOF 7
