REMARK  Name = ZINC07518777
REMARK  7 active torsions:
REMARK  status: ('A' for Active; 'I' for Inactive)
REMARK    1  A    between atoms: C_1  and  C_2
REMARK    2  A    between atoms: C_7  and  N_12
REMARK    3  A    between atoms: C_9  and  C_11
REMARK    4  A    between atoms: N_12  and  C_13
REMARK    5  A    between atoms: C_13  and  N_15
REMARK    6  A    between atoms: N_15  and  C_16
REMARK    7  A    between atoms: C_19  and  N_22
REMARK                            x       y       z     vdW  Elec       q    Type
REMARK                         _______ _______ _______ _____ _____    ______ ____
ROOT
ATOM      1  C   UNL     1      -1.094  -4.860   0.090  0.00  0.00    +0.135 C 
ATOM      2  S   UNL     1      -2.591  -4.029   0.109  0.00  0.00    -0.019 S 
ENDROOT
BRANCH   1   3
ATOM      3  N   UNL     1      -1.068  -6.204   0.185  0.00  0.00    -0.323 N 
ATOM      4  H   UNL     1      -0.220  -6.674   0.175  0.00  0.00    +0.148 HD
BRANCH   3  10
ATOM      5  C   UNL     1      -3.216 -10.585  -0.613  0.00  0.00    +0.008 C 
ATOM      6  C   UNL     1      -3.422  -9.161  -0.092  0.00  0.00    -0.009 C 
ATOM      7  C   UNL     1      -3.849  -9.212   1.376  0.00  0.00    +0.003 C 
ATOM      8  C   UNL     1      -4.056  -7.788   1.897  0.00  0.00    +0.002 C 
ATOM      9  C   UNL     1      -2.747  -7.005   1.773  0.00  0.00    +0.022 C 
ATOM     10  C   UNL     1      -2.321  -6.954   0.304  0.00  0.00    +0.075 C 
ATOM     11  C   UNL     1      -2.114  -8.378  -0.216  0.00  0.00    +0.009 C 
ATOM     12  C   UNL     1      -1.688  -8.327  -1.685  0.00  0.00    +0.009 C 
ENDBRANCH   3  10
ENDBRANCH   1   3
BRANCH   1  13
ATOM     13  N   UNL     1       0.059  -4.169  -0.019  0.00  0.00    -0.297 N 
ATOM     14  H   UNL     1       0.900  -4.643  -0.110  0.00  0.00    +0.154 HD
BRANCH  13  15
ATOM     15  C   UNL     1       0.041  -2.771  -0.001  0.00  0.00    +0.033 A 
ATOM     16  C   UNL     1      -0.777  -2.097   0.897  0.00  0.00    +0.025 A 
ATOM     17  C   UNL     1      -0.793  -0.716   0.912  0.00  0.00    +0.034 A 
ATOM     18  C   UNL     1       0.005  -0.004   0.034  0.00  0.00    +0.126 A 
ATOM     19  C   UNL     1       0.816  -0.672  -0.865  0.00  0.00    +0.034 A 
ATOM     20  C   UNL     1       0.840  -2.053  -0.881  0.00  0.00    +0.025 A 
BRANCH  18  21
ATOM     21  N   UNL     1      -0.015   1.476   0.052  0.00  0.00    +0.056 N 
ATOM     22  O   UNL     1      -0.733   2.066   0.840  0.00  0.00    -0.126 OA
ATOM     23  O   UNL     1       0.691   2.104  -0.717  0.00  0.00    -0.126 OA
ENDBRANCH  18  21
ENDBRANCH  13  15
ENDBRANCH   1  13
TORSDOF 5
