REMARK  Name = ZINC21986113
REMARK  7 active torsions:
REMARK  status: ('A' for Active; 'I' for Inactive)
REMARK    1  A    between atoms: C_1  and  C_2
REMARK    2  A    between atoms: C_17  and  C_31
REMARK    3  A    between atoms: C_23  and  C_30
REMARK    4  A    between atoms: C_24  and  C_25
REMARK    5  A    between atoms: C_24  and  O_29
REMARK    6  A    between atoms: C_25  and  C_27
REMARK    7  A    between atoms: C_27  and  O_28
REMARK                            x       y       z     vdW  Elec       q    Type
REMARK                         _______ _______ _______ _____ _____    ______ ____
ROOT
ATOM      1  C   UNL     1       3.069  -0.053  -5.944  0.00  0.00    +0.011 C 
ATOM      2  C   UNL     1       4.007   0.530  -4.885  0.00  0.00    +0.026 C 
ATOM      3  C   UNL     1       3.216   1.462  -3.929  0.00  0.00    +0.011 C 
ATOM      4  C   UNL     1       2.878   0.545  -2.747  0.00  0.00    +0.004 C 
ATOM      5  C   UNL     1       2.484   1.217  -1.476  0.00  0.00    +0.029 C 
ATOM      6  C   UNL     1       2.832   2.688  -1.381  0.00  0.00    +0.011 C 
ATOM      7  C   UNL     1       2.679   3.186   0.061  0.00  0.00    +0.032 C 
ATOM      8  C   UNL     1       1.703   2.300   0.803  0.00  0.00    -0.053 C 
ATOM      9  C   UNL     1       0.540   2.781   1.218  0.00  0.00    +0.051 C 
ATOM     10  C   UNL     1      -0.424   1.869   1.865  0.00  0.00    +0.179 C 
ATOM     11  O   UNL     1      -1.307   2.292   2.589  0.00  0.00    -0.288 OA
ATOM     12  C   UNL     1      -0.277   0.426   1.593  0.00  0.00    +0.047 C 
ATOM     13  C   UNL     1       0.905  -0.034   1.192  0.00  0.00    -0.009 C 
ATOM     14  C   UNL     1       2.092   0.855   1.021  0.00  0.00    +0.039 C 
ATOM     15  C   UNL     1       2.898   0.453  -0.226  0.00  0.00    +0.111 C 
ATOM     16  C   UNL     1       3.553  -0.914  -0.306  0.00  0.00    +0.153 C 
ATOM     17  O   UNL     1       4.303   0.269   0.006  0.00  0.00    -0.363 OA
ATOM     18  C   UNL     1       3.837  -1.486  -1.718  0.00  0.00    +0.044 C 
ATOM     19  C   UNL     1       4.183  -0.267  -2.572  0.00  0.00    +0.010 C 
ATOM     20  C   UNL     1       4.589  -0.604  -4.009  0.00  0.00    +0.134 C 
ATOM     21  C   UNL     1       5.260   0.587  -1.900  0.00  0.00    +0.015 C 
ATOM     22  C   UNL     1       2.989   0.750   2.256  0.00  0.00    +0.023 C 
ENDROOT
BRANCH  20  23
ATOM     23  C   UNL     1       4.004  -1.931  -4.419  0.00  0.00    +0.190 C 
ATOM     24  O   UNL     1       2.943  -2.289  -3.968  0.00  0.00    -0.292 OA
BRANCH  23  25
ATOM     25  C   UNL     1       4.744  -2.812  -5.393  0.00  0.00    +0.233 C 
BRANCH  25  26
ATOM     26  O   UNL     1       3.993  -4.005  -5.621  0.00  0.00    -0.387 OA
ATOM     27  H   UNL     1       4.377  -4.774  -6.308  0.00  0.00    +0.210 HD
ENDBRANCH  25  26
ENDBRANCH  23  25
ENDBRANCH  20  23
BRANCH  20  28
ATOM     28  O   UNL     1       6.013  -0.636  -4.125  0.00  0.00    -0.380 OA
ATOM     29  H   UNL     1       6.594  -1.385  -3.566  0.00  0.00    +0.211 HD
ENDBRANCH  20  28
TORSDOF 4
