REMARK  Name = ZINC20753790
REMARK  6 active torsions:
REMARK  status: ('A' for Active; 'I' for Inactive)
REMARK    1  A    between atoms: C_1  and  C_2
REMARK    2  A    between atoms: C_2  and  C_3
REMARK    3  A    between atoms: C_3  and  C_4
REMARK    4  A    between atoms: C_4  and  O_5
REMARK    5  A    between atoms: O_5  and  C_6
REMARK    6  A    between atoms: C_13  and  C_22
REMARK                            x       y       z     vdW  Elec       q    Type
REMARK                         _______ _______ _______ _____ _____    ______ ____
ROOT
ATOM      1  C   UNL     1       2.880   5.472  -1.664  0.00  0.00    +0.142 A 
ATOM      2  C   UNL     1       2.251   6.667  -1.376  0.00  0.00    +0.047 A 
ATOM      3  C   UNL     1       1.741   6.897  -0.111  0.00  0.00    +0.004 A 
ATOM      4  C   UNL     1       1.860   5.923   0.862  0.00  0.00    +0.006 A 
ATOM      5  C   UNL     1       2.482   4.723   0.582  0.00  0.00    -0.016 A 
ATOM      6  C   UNL     1       3.013   4.479  -0.685  0.00  0.00    +0.074 A 
ATOM      7  N   UNL     1       3.694   3.312  -1.038  0.00  0.00    -0.334 N 
ATOM      8  C   UNL     1       3.753   2.249  -0.022  0.00  0.00    +0.106 C 
ATOM      9  C   UNL     1       3.958   2.925   1.318  0.00  0.00    +0.029 C 
ATOM     10  C   UNL     1       2.609   3.657   1.600  0.00  0.00    +0.049 C 
ATOM     11  C   UNL     1       2.679   3.944   3.054  0.00  0.00    -0.023 C 
ATOM     12  C   UNL     1       3.437   3.017   3.631  0.00  0.00    -0.030 C 
ATOM     13  C   UNL     1       3.968   2.046   2.574  0.00  0.00    +0.033 C 
ATOM     14  H   UNL     1       4.172   3.164  -2.017  0.00  0.00    +0.147 HD
ENDROOT
BRANCH   8  15
ATOM     15  C   UNL     1       2.462   1.473  -0.013  0.00  0.00    -0.012 A 
ATOM     16  C   UNL     1       2.322   0.352   0.803  0.00  0.00    -0.012 A 
ATOM     17  C   UNL     1       3.378  -0.079   1.634  0.00  0.00    +0.009 A 
ATOM     18  C   UNL     1       3.209  -1.176   2.416  0.00  0.00    +0.001 A 
ATOM     19  C   UNL     1       2.013  -1.894   2.424  0.00  0.00    +0.001 A 
ATOM     20  C   UNL     1       0.960  -1.536   1.645  0.00  0.00    +0.008 A 
ATOM     21  C   UNL     1       1.065  -0.403   0.810  0.00  0.00    -0.017 A 
ATOM     22  C   UNL     1       0.002  -0.004   0.002  0.00  0.00    +0.017 A 
ATOM     23  C   UNL     1       0.142   1.117  -0.815  0.00  0.00    -0.017 A 
ATOM     24  C   UNL     1       1.399   1.872  -0.822  0.00  0.00    -0.012 A 
ATOM     25  C   UNL     1       1.506   3.003  -1.661  0.00  0.00    +0.009 A 
ATOM     26  C   UNL     1       0.452   3.364  -2.436  0.00  0.00    +0.001 A 
ATOM     27  C   UNL     1      -0.744   2.646  -2.428  0.00  0.00    +0.001 A 
ATOM     28  C   UNL     1      -0.914   1.549  -1.646  0.00  0.00    +0.008 A 
ENDBRANCH   8  15
BRANCH   1  29
ATOM     29  O   UNL     1       3.376   5.257  -2.912  0.00  0.00    -0.490 OA
BRANCH  29  30
ATOM     30  C   UNL     1       3.209   6.307  -3.866  0.00  0.00    +0.229 C 
BRANCH  30  31
ATOM     31  C   UNL     1       3.826   5.886  -5.202  0.00  0.00    +0.041 C 
BRANCH  31  33
ATOM     32  C   UNL     1       4.264   6.589  -7.559  0.00  0.00    +0.004 C 
ATOM     33  C   UNL     1       3.648   7.010  -6.224  0.00  0.00    -0.000 C 
ENDBRANCH  31  33
ENDBRANCH  30  31
ENDBRANCH  29  30
ENDBRANCH   1  29
TORSDOF 5
