REMARK  Name = ZINC21230340
REMARK  7 active torsions:
REMARK  status: ('A' for Active; 'I' for Inactive)
REMARK    1  A    between atoms: C_1  and  C_2
REMARK    2  A    between atoms: C_2  and  C_3
REMARK    3  A    between atoms: C_2  and  O_4
REMARK    4  A    between atoms: O_4  and  C_5
REMARK    5  A    between atoms: C_8  and  C_11
REMARK    6  A    between atoms: C_16  and  C_26
REMARK    7  A    between atoms: C_30  and  N_32
REMARK                            x       y       z     vdW  Elec       q    Type
REMARK                         _______ _______ _______ _____ _____    ______ ____
ROOT
ATOM      1  C   UNL     1       3.528   1.657   4.108  0.00  0.00    +0.032 C 
ATOM      2  C   UNL     1       4.692   1.809   3.131  0.00  0.00    +0.059 C 
ATOM      3  C   UNL     1       4.176   1.814   1.702  0.00  0.00    +0.017 C 
ATOM      4  C   UNL     1       3.080   1.110   1.370  0.00  0.00    +0.036 C 
ATOM      5  C   UNL     1       2.465   1.026  -0.006  0.00  0.00    +0.136 C 
ATOM      6  N   UNL     1       3.289   1.567  -1.065  0.00  0.00    -0.331 N 
ATOM      7  C   UNL     1       3.606   2.922  -1.102  0.00  0.00    +0.049 A 
ATOM      8  C   UNL     1       3.119   3.750  -2.102  0.00  0.00    +0.025 A 
ATOM      9  C   UNL     1       3.390   5.106  -2.056  0.00  0.00    +0.002 A 
ATOM     10  C   UNL     1       4.142   5.636  -1.023  0.00  0.00    +0.002 A 
ATOM     11  C   UNL     1       4.650   4.809  -0.035  0.00  0.00    +0.025 A 
ATOM     12  C   UNL     1       4.395   3.451  -0.092  0.00  0.00    +0.052 A 
ATOM     13  N   UNL     1       4.916   2.555   0.837  0.00  0.00    -0.316 N 
ATOM     14  C   UNL     1       2.391   0.360   2.352  0.00  0.00    +0.163 C 
ATOM     15  O   UNL     1       1.415  -0.284   2.020  0.00  0.00    -0.292 OA
ATOM     16  C   UNL     1       2.822   0.333   3.788  0.00  0.00    +0.088 C 
ATOM     17  H   UNL     1       3.674   0.906  -1.855  0.00  0.00    +0.147 HD
ATOM     18  H   UNL     1       6.012   2.470   0.838  0.00  0.00    +0.152 HD
ENDROOT
BRANCH   1  22
ATOM     19  C   UNL     1       5.002   1.581   8.118  0.00  0.00    +0.121 A 
ATOM     20  C   UNL     1       4.110   2.568   7.724  0.00  0.00    +0.046 A 
ATOM     21  C   UNL     1       3.635   2.590   6.427  0.00  0.00    +0.007 A 
ATOM     22  C   UNL     1       4.048   1.630   5.522  0.00  0.00    -0.043 A 
ATOM     23  C   UNL     1       4.932   0.642   5.914  0.00  0.00    +0.007 A 
ATOM     24  C   UNL     1       5.414   0.618   7.208  0.00  0.00    +0.046 A 
BRANCH  19  25
ATOM     25  O   UNL     1       5.471   1.557   9.393  0.00  0.00    -0.489 OA
BRANCH  25  27
ATOM     26  C   UNL     1       5.043   1.968  11.736  0.00  0.00    +0.051 C 
ATOM     27  C   UNL     1       4.911   2.501  10.308  0.00  0.00    +0.167 C 
ATOM     28  C   UNL     1       5.660   3.830  10.190  0.00  0.00    +0.051 C 
ENDBRANCH  25  27
ENDBRANCH  19  25
ENDBRANCH   1  22
BRANCH   5  29
ATOM     29  C   UNL     1       1.155   1.772   0.009  0.00  0.00    -0.021 A 
ATOM     30  C   UNL     1       1.139   3.134   0.243  0.00  0.00    +0.006 A 
ATOM     31  C   UNL     1      -0.062   3.818   0.258  0.00  0.00    +0.003 A 
ATOM     32  C   UNL     1      -1.246   3.141   0.036  0.00  0.00    +0.033 A 
ATOM     33  C   UNL     1      -1.230   1.779  -0.202  0.00  0.00    +0.127 A 
ATOM     34  C   UNL     1      -0.029   1.094  -0.211  0.00  0.00    +0.038 A 
BRANCH  33  35
ATOM     35  N   UNL     1      -2.497   1.055  -0.443  0.00  0.00    +0.056 N 
ATOM     36  O   UNL     1      -2.483  -0.146  -0.650  0.00  0.00    -0.126 OA
ATOM     37  O   UNL     1      -3.555   1.658  -0.435  0.00  0.00    -0.126 OA
ENDBRANCH  33  35
ENDBRANCH   5  29
TORSDOF 5
