REMARK  Name = ZINC46891854
REMARK  8 active torsions:
REMARK  status: ('A' for Active; 'I' for Inactive)
REMARK    1  A    between atoms: C_1  and  C_2
REMARK    2  A    between atoms: C_4  and  C_33
REMARK    3  A    between atoms: N_5  and  C_7
REMARK    4  A    between atoms: C_10  and  C_13
REMARK    5  A    between atoms: N_15  and  C_16
REMARK    6  A    between atoms: C_16  and  C_17
REMARK    7  A    between atoms: C_25  and  C_32
REMARK    8  A    between atoms: C_28  and  C_31
REMARK                            x       y       z     vdW  Elec       q    Type
REMARK                         _______ _______ _______ _____ _____    ______ ____
ROOT
ATOM      1  C   UNL     1       0.298  -6.365   3.711  0.00  0.00    +0.244 C 
ATOM      2  O   UNL     1      -0.246  -7.406   3.397  0.00  0.00    -0.270 OA
ATOM      3  N   UNL     1       0.949  -6.273   4.887  0.00  0.00    -0.307 N 
ATOM      4  H   UNL     1       1.383  -5.443   5.138  0.00  0.00    +0.149 HD
ENDROOT
BRANCH   1   8
ATOM      5  C   UNL     1       0.147  -3.017   1.101  0.00  0.00    +0.066 A 
ATOM      6  C   UNL     1      -0.475  -4.207   0.739  0.00  0.00    +0.028 A 
ATOM      7  C   UNL     1      -0.428  -5.295   1.583  0.00  0.00    +0.015 A 
ATOM      8  C   UNL     1       0.246  -5.201   2.803  0.00  0.00    +0.037 A 
ATOM      9  C   UNL     1       0.871  -4.004   3.163  0.00  0.00    +0.015 A 
ATOM     10  C   UNL     1       0.824  -2.922   2.312  0.00  0.00    +0.028 A 
BRANCH   5  15
ATOM     11  C   UNL     1       1.548   0.979  -1.476  0.00  0.00    +0.069 C 
ATOM     12  C   UNL     1       0.729  -0.146  -0.895  0.00  0.00    +0.079 A 
ATOM     13  C   UNL     1      -0.622  -0.398  -1.163  0.00  0.00    +0.085 A 
ATOM     14  C   UNL     1      -0.990  -1.490  -0.454  0.00  0.00    +0.060 A 
ATOM     15  N   UNL     1       0.098  -1.915   0.242  0.00  0.00    -0.235 N 
ATOM     16  N   UNL     1       1.161  -1.055  -0.060  0.00  0.00    -0.170 NA
ATOM     17  C   UNL     1      -2.359  -2.121  -0.438  0.00  0.00    +0.067 C 
ATOM     18 CL   UNL     1      -1.644   0.527  -2.218  0.00  0.00    -0.080 Cl
ENDBRANCH   5  15
ENDBRANCH   1   8
BRANCH   3  19
ATOM     19  C   UNL     1       1.001  -7.428   5.788  0.00  0.00    +0.141 C 
BRANCH  19  20
ATOM     20  C   UNL     1       1.782  -7.066   7.025  0.00  0.00    -0.014 A 
ATOM     21  C   UNL     1       3.156  -7.260   7.068  0.00  0.00    +0.010 A 
ATOM     22  C   UNL     1       3.836  -6.914   8.222  0.00  0.00    +0.042 A 
ATOM     23  C   UNL     1       3.123  -6.387   9.295  0.00  0.00    +0.099 A 
ATOM     24  N   UNL     1       1.812  -6.217   9.214  0.00  0.00    -0.349 N 
ATOM     25  C   UNL     1       1.139  -6.532   8.124  0.00  0.00    +0.089 A 
ATOM     26  N   UNL     1       3.793  -6.035  10.461  0.00  0.00    -0.312 N 
ATOM     27  C   UNL     1       5.262  -6.081  10.534  0.00  0.00    +0.137 C 
ATOM     28  C   UNL     1       5.659  -6.872  11.786  0.00  0.00    +0.133 C 
ATOM     29  O   UNL     1       4.984  -6.326  12.921  0.00  0.00    -0.371 OA
ATOM     30  C   UNL     1       3.559  -6.420  12.856  0.00  0.00    +0.133 C 
ATOM     31  C   UNL     1       3.054  -5.601  11.657  0.00  0.00    +0.137 C 
ATOM     32  C   UNL     1       2.950  -5.866  14.145  0.00  0.00    +0.039 C 
ATOM     33  C   UNL     1       7.172  -6.774  11.993  0.00  0.00    +0.039 C 
ATOM     34  H   UNL     1       1.336  -5.848   9.974  0.00  0.00    +0.167 HD
ENDBRANCH  19  20
ENDBRANCH   3  19
TORSDOF 4
