REMARK  Name = ZINC24783104
REMARK  7 active torsions:
REMARK  status: ('A' for Active; 'I' for Inactive)
REMARK    1  A    between atoms: C_1  and  C_2
REMARK    2  A    between atoms: C_8  and  C_31
REMARK    3  A    between atoms: C_12  and  C_13
REMARK    4  A    between atoms: C_13  and  O_15
REMARK    5  A    between atoms: O_15  and  C_16
REMARK    6  A    between atoms: C_16  and  C_17
REMARK    7  A    between atoms: C_28  and  C_30
REMARK                            x       y       z     vdW  Elec       q    Type
REMARK                         _______ _______ _______ _____ _____    ______ ____
ROOT
ATOM      1  C   UNL     1      -0.330  -0.406   2.587  0.00  0.00    +0.347 C 
ATOM      2  O   UNL     1      -0.528   0.784   2.743  0.00  0.00    -0.244 OA
ENDROOT
BRANCH   1  14
ATOM      3  C   UNL     1      -0.993   1.101   0.034  0.00  0.00    +0.046 C 
ATOM      4  C   UNL     1      -0.712  -0.379   0.066  0.00  0.00    -0.015 A 
ATOM      5  C   UNL     1      -0.743  -1.123  -1.114  0.00  0.00    +0.076 A 
ATOM      6  C   UNL     1      -1.026  -0.674  -2.497  0.00  0.00    +0.260 A 
ATOM      7  O   UNL     1      -1.278   0.494  -2.735  0.00  0.00    -0.267 OA
ATOM      8  N   UNL     1      -0.998  -1.590  -3.484  0.00  0.00    -0.311 N 
ATOM      9  H   UNL     1      -1.181  -1.312  -4.395  0.00  0.00    +0.170 HD
ATOM     10  C   UNL     1      -0.718  -2.892  -3.231  0.00  0.00    +0.108 A 
ATOM     11  N   UNL     1      -0.464  -3.322  -2.024  0.00  0.00    -0.227 NA
ATOM     12  C   UNL     1      -0.466  -2.503  -0.980  0.00  0.00    +0.116 A 
ATOM     13  S   UNL     1      -0.180  -2.694   0.761  0.00  0.00    -0.062 S 
ATOM     14  C   UNL     1      -0.420  -0.994   1.250  0.00  0.00    +0.102 A 
ATOM     15  C   UNL     1      -0.701  -3.873  -4.375  0.00  0.00    +0.086 C 
ENDBRANCH   1  14
BRANCH   1  16
ATOM     16  O   UNL     1      -0.026  -1.183   3.647  0.00  0.00    -0.451 OA
BRANCH  16  17
ATOM     17  C   UNL     1       0.045  -0.543   4.923  0.00  0.00    +0.328 C 
BRANCH  17  18
ATOM     18  C   UNL     1       0.393  -1.562   5.978  0.00  0.00    +0.258 C 
ATOM     19  O   UNL     1       0.695  -2.691   5.654  0.00  0.00    -0.272 OA
ATOM     20  N   UNL     1       0.368  -1.218   7.280  0.00  0.00    -0.266 N 
ATOM     21  C   UNL     1       0.528  -2.191   8.277  0.00  0.00    +0.040 A 
ATOM     22  C   UNL     1       0.429  -3.534   7.934  0.00  0.00    +0.024 A 
ATOM     23  C   UNL     1       0.588  -4.507   8.900  0.00  0.00    +0.002 A 
ATOM     24  C   UNL     1       0.844  -4.144  10.210  0.00  0.00    +0.000 A 
ATOM     25  C   UNL     1       0.940  -2.809  10.553  0.00  0.00    +0.005 A 
ATOM     26  C   UNL     1       0.781  -1.827   9.590  0.00  0.00    -0.026 A 
ATOM     27  C   UNL     1       0.883  -0.381  10.000  0.00  0.00    +0.039 C 
ATOM     28  C   UNL     1       1.186   0.499   8.788  0.00  0.00    +0.027 C 
ATOM     29  C   UNL     1       0.179   0.183   7.680  0.00  0.00    +0.079 C 
ATOM     30  C   UNL     1       0.425   1.101   6.481  0.00  0.00    +0.028 C 
ENDBRANCH  17  18
ENDBRANCH  16  17
ENDBRANCH   1  16
TORSDOF 4
