REMARK  Name = ZINC18054115
REMARK  2 active torsions:
REMARK  status: ('A' for Active; 'I' for Inactive)
REMARK    1  A    between atoms: C_10  and  N_11
REMARK    2  A    between atoms: N_13  and  C_14
REMARK                            x       y       z     vdW  Elec       q    Type
REMARK                         _______ _______ _______ _____ _____    ______ ____
ROOT
ATOM      1  N   UNL     1       4.972   0.413  -0.044  0.00  0.00    -0.326 N 
ATOM      2  C   UNL     1       5.943  -0.546  -0.127  0.00  0.00    +0.203 C 
ATOM      3  N   UNL     1       7.213  -0.194  -0.233  0.00  0.00    -0.179 NA
ATOM      4  N   UNL     1       5.601  -1.869  -0.099  0.00  0.00    -0.369 N 
ATOM      5  H   UNL     1       4.051   0.157   0.123  0.00  0.00    +0.169 HD
ATOM      6  H   UNL     1       4.727  -2.150  -0.411  0.00  0.00    +0.159 HD
ATOM      7  H   UNL     1       6.233  -2.526   0.232  0.00  0.00    +0.159 HD
ENDROOT
BRANCH   3   8
ATOM      8  C   UNL     1       8.148  -1.123  -0.486  0.00  0.00    +0.234 A 
ATOM      9  N   UNL     1       9.468  -0.773  -0.465  0.00  0.00    -0.327 N 
ATOM     10  C   UNL     1      10.437  -1.704  -0.721  0.00  0.00    +0.027 A 
ATOM     11  C   UNL     1      10.074  -2.973  -0.994  0.00  0.00    +0.038 A 
ATOM     12  C   UNL     1       8.693  -3.308  -1.010  0.00  0.00    +0.278 A 
ATOM     13  O   UNL     1       8.342  -4.452  -1.255  0.00  0.00    -0.265 OA
ATOM     14  N   UNL     1       7.779  -2.368  -0.749  0.00  0.00    -0.173 NA
ATOM     15  C   UNL     1      11.297  -3.828  -1.244  0.00  0.00    +0.043 C 
ATOM     16  C   UNL     1      12.439  -2.824  -1.511  0.00  0.00    +0.011 C 
ATOM     17  C   UNL     1      11.944  -1.570  -0.757  0.00  0.00    +0.054 C 
ATOM     18  H   UNL     1       9.720   0.143  -0.267  0.00  0.00    +0.169 HD
ENDBRANCH   3   8
BRANCH   1  28
ATOM     19  C   UNL     1       2.941   4.775   1.479  0.00  0.00    +0.001 A 
ATOM     20  C   UNL     1       2.590   3.437   1.647  0.00  0.00    +0.001 A 
ATOM     21  C   UNL     1       3.346   2.441   1.108  0.00  0.00    +0.010 A 
ATOM     22  C   UNL     1       4.497   2.764   0.372  0.00  0.00    +0.006 A 
ATOM     23  C   UNL     1       4.856   4.123   0.201  0.00  0.00    -0.016 A 
ATOM     24  C   UNL     1       4.050   5.125   0.772  0.00  0.00    +0.008 A 
ATOM     25  C   UNL     1       6.007   4.448  -0.536  0.00  0.00    +0.008 A 
ATOM     26  C   UNL     1       6.769   3.458  -1.078  0.00  0.00    +0.003 A 
ATOM     27  C   UNL     1       6.427   2.119  -0.917  0.00  0.00    +0.026 A 
ATOM     28  C   UNL     1       5.305   1.759  -0.201  0.00  0.00    +0.050 A 
ENDBRANCH   1  28
TORSDOF 2
