REMARK  Name = ZINC12245292
REMARK  9 active torsions:
REMARK  status: ('A' for Active; 'I' for Inactive)
REMARK    1  A    between atoms: C_1  and  C_2
REMARK    2  A    between atoms: C_3  and  C_7
REMARK    3  A    between atoms: N_9  and  C_10
REMARK    4  A    between atoms: N_9  and  C_11
REMARK    5  A    between atoms: C_11  and  C_13
REMARK    6  A    between atoms: C_11  and  C_20
REMARK    7  A    between atoms: C_13  and  C_14
REMARK    8  A    between atoms: C_25  and  C_26
REMARK    9  A    between atoms: C_25  and  N_70
REMARK                            x       y       z     vdW  Elec       q    Type
REMARK                         _______ _______ _______ _____ _____    ______ ____
ROOT
ATOM      1  C   UNL     1       0.067  -2.018   1.502  0.00  0.00    +0.006 C 
ATOM      2  C   UNL     1      -0.978  -2.656   0.583  0.00  0.00    -0.013 C 
ATOM      3  C   UNL     1      -0.870  -4.180   0.677  0.00  0.00    -0.078 C 
ATOM      4  C   UNL     1      -0.067  -4.040   2.959  0.00  0.00    -0.078 C 
ATOM      5  C   UNL     1      -0.152  -2.513   2.934  0.00  0.00    -0.013 C 
ATOM      6  N   UNL     1      -1.115  -4.594   2.075  0.00  0.00    +0.383 N 
ATOM      7  H   UNL     1      -2.028  -4.232   2.374  0.00  0.00    -0.081 HD
ENDROOT
BRANCH   1   8
ATOM      8  C   UNL     1      -0.077  -0.495   1.460  0.00  0.00    +0.083 C 
BRANCH   8  11
ATOM      9  C   UNL     1      -1.048   0.547  -0.518  0.00  0.00    +0.250 C 
ATOM     10  O   UNL     1      -2.049   0.782   0.131  0.00  0.00    -0.270 OA
ATOM     11  N   UNL     1       0.016  -0.034   0.072  0.00  0.00    -0.297 N 
ATOM     12  C   UNL     1       1.265  -0.205  -0.675  0.00  0.00    +0.132 C 
BRANCH   9  15
ATOM     13  C   UNL     1      -2.378   3.049  -1.865  0.00  0.00    +0.087 C 
ATOM     14  C   UNL     1      -1.567   1.981  -2.552  0.00  0.00    +0.114 A 
ATOM     15  C   UNL     1      -0.996   0.899  -1.948  0.00  0.00    +0.077 A 
ATOM     16  C   UNL     1      -0.314   0.161  -3.021  0.00  0.00    +0.054 A 
ATOM     17  C   UNL     1      -0.543   0.852  -4.147  0.00  0.00    +0.196 A 
ATOM     18  O   UNL     1      -1.285   1.932  -3.858  0.00  0.00    -0.467 OA
ENDBRANCH   9  15
ENDBRANCH   8  11
BRANCH   8  19
ATOM     19  C   UNL     1       1.040   0.146   2.286  0.00  0.00    +0.058 C 
BRANCH  19  20
ATOM     20  C   UNL     1       0.828   1.637   2.346  0.00  0.00    -0.046 A 
ATOM     21  C   UNL     1       1.392   2.455   1.385  0.00  0.00    +0.004 A 
ATOM     22  C   UNL     1       1.194   3.822   1.437  0.00  0.00    +0.000 A 
ATOM     23  C   UNL     1       0.439   4.372   2.456  0.00  0.00    +0.000 A 
ATOM     24  C   UNL     1      -0.121   3.555   3.420  0.00  0.00    +0.000 A 
ATOM     25  C   UNL     1       0.073   2.187   3.365  0.00  0.00    +0.004 A 
ENDBRANCH  19  20
ENDBRANCH   8  19
ENDBRANCH   1   8
BRANCH   6  26
ATOM     26  C   UNL     1      -1.128  -6.068   2.170  0.00  0.00    -0.024 C 
BRANCH  26  27
ATOM     27  C   UNL     1      -2.336  -6.591   1.436  0.00  0.00    +0.009 A 
ATOM     28  C   UNL     1      -2.357  -7.035   0.163  0.00  0.00    +0.021 A 
ATOM     29  C   UNL     1      -3.679  -7.430  -0.126  0.00  0.00    +0.020 A 
ATOM     30  C   UNL     1      -4.418  -7.213   0.981  0.00  0.00    +0.093 A 
ATOM     31  N   UNL     1      -3.598  -6.702   1.948  0.00  0.00    -0.307 N 
ATOM     32  C   UNL     1      -3.987  -6.349   3.243  0.00  0.00    +0.138 A 
ATOM     33  C   UNL     1      -5.310  -6.515   3.634  0.00  0.00    +0.047 A 
ATOM     34  C   UNL     1      -5.681  -6.161   4.919  0.00  0.00    +0.005 A 
ATOM     35  C   UNL     1      -4.712  -5.652   5.772  0.00  0.00    +0.020 A 
ATOM     36  C   UNL     1      -3.416  -5.514   5.316  0.00  0.00    +0.113 A 
ATOM     37  N   UNL     1      -3.090  -5.864   4.087  0.00  0.00    -0.238 NA
ENDBRANCH  26  27
ENDBRANCH   6  26
TORSDOF 7
