REMARK  Name = ZINC59286593
REMARK  9 active torsions:
REMARK  status: ('A' for Active; 'I' for Inactive)
REMARK    1  A    between atoms: C_1  and  C_2
REMARK    2  A    between atoms: C_5  and  C_36
REMARK    3  A    between atoms: N_8  and  C_10
REMARK    4  A    between atoms: C_10  and  C_11
REMARK    5  A    between atoms: C_16  and  C_17
REMARK    6  A    between atoms: C_17  and  N_18
REMARK    7  A    between atoms: C_19  and  C_21
REMARK    8  A    between atoms: C_21  and  N_22
REMARK    9  A    between atoms: C_25  and  N_33
REMARK                            x       y       z     vdW  Elec       q    Type
REMARK                         _______ _______ _______ _____ _____    ______ ____
ROOT
ATOM      1  N   UNL     1       2.001  -0.039   4.675  0.00  0.00    -0.310 N 
ATOM      2  C   UNL     1       1.155   0.690   5.429  0.00  0.00    +0.231 C 
ATOM      3  O   UNL     1       0.498   1.574   4.921  0.00  0.00    -0.274 OA
ATOM      4  H   UNL     1       2.526  -0.746   5.081  0.00  0.00    +0.149 HD
ENDROOT
BRANCH   1   5
ATOM      5  C   UNL     1       2.126   0.235   3.241  0.00  0.00    +0.139 C 
BRANCH   5  11
ATOM      6  C   UNL     1       2.553  -2.030   2.266  0.00  0.00    -0.059 A 
ATOM      7  C   UNL     1       3.390  -2.963   1.684  0.00  0.00    +0.002 A 
ATOM      8  C   UNL     1       4.717  -2.652   1.453  0.00  0.00    +0.000 A 
ATOM      9  C   UNL     1       5.207  -1.408   1.805  0.00  0.00    +0.000 A 
ATOM     10  C   UNL     1       4.369  -0.475   2.386  0.00  0.00    +0.005 A 
ATOM     11  C   UNL     1       3.041  -0.784   2.612  0.00  0.00    -0.029 A 
BRANCH   6  12
ATOM     12  C   UNL     1       1.106  -2.369   2.517  0.00  0.00    -0.043 C 
BRANCH  12  18
ATOM     13  C   UNL     1       2.313  -5.716   5.879  0.00  0.00    +0.005 C 
ATOM     14  C   UNL     1       1.555  -4.410   5.634  0.00  0.00    -0.031 C 
ATOM     15  C   UNL     1       0.080  -4.599   5.999  0.00  0.00    +0.003 C 
ATOM     16  C   UNL     1      -0.685  -3.312   5.677  0.00  0.00    -0.031 C 
ATOM     17  C   UNL     1      -0.494  -2.968   4.199  0.00  0.00    -0.075 C 
ATOM     18  N   UNL     1       0.934  -2.774   3.918  0.00  0.00    +0.383 N 
ATOM     19  C   UNL     1       1.664  -4.025   4.157  0.00  0.00    -0.075 C 
ATOM     20  C   UNL     1      -2.173  -3.516   5.967  0.00  0.00    +0.005 C 
ATOM     21  H   UNL     1       1.299  -2.053   4.522  0.00  0.00    -0.081 HD
ENDBRANCH  12  18
ENDBRANCH   6  12
ENDBRANCH   5  11
ENDBRANCH   1   5
BRANCH   2  22
ATOM     22  C   UNL     1       1.026   0.407   6.904  0.00  0.00    +0.209 C 
BRANCH  22  23
ATOM     23  N   UNL     1       0.052   1.328   7.494  0.00  0.00    -0.256 N 
ATOM     24  C   UNL     1       0.463   2.568   8.005  0.00  0.00    +0.081 A 
ATOM     25  C   UNL     1       1.707   3.087   7.687  0.00  0.00    +0.060 A 
ATOM     26  C   UNL     1       2.093   4.311   8.202  0.00  0.00    +0.128 A 
ATOM     27  C   UNL     1       1.242   5.016   9.032  0.00  0.00    +0.036 A 
ATOM     28  C   UNL     1      -0.002   4.503   9.353  0.00  0.00    +0.050 A 
ATOM     29  C   UNL     1      -0.396   3.280   8.840  0.00  0.00    +0.143 A 
ATOM     30  O   UNL     1      -1.617   2.762   9.142  0.00  0.00    -0.481 OA
ATOM     31  C   UNL     1      -2.249   1.974   8.130  0.00  0.00    +0.325 C 
ATOM     32  C   UNL     1      -1.257   0.999   7.550  0.00  0.00    +0.258 C 
ATOM     33  O   UNL     1      -1.632  -0.079   7.138  0.00  0.00    -0.271 OA
BRANCH  26  34
ATOM     34  N   UNL     1       3.423   4.867   7.863  0.00  0.00    +0.056 N 
ATOM     35  O   UNL     1       4.169   4.252   7.138  0.00  0.00    -0.126 OA
ATOM     36  O   UNL     1       3.762   5.937   8.313  0.00  0.00    -0.126 OA
ENDBRANCH  26  34
ENDBRANCH  22  23
ENDBRANCH   2  22
TORSDOF 7
