REMARK  Name = ZINC65260028
REMARK  3 active torsions:
REMARK  status: ('A' for Active; 'I' for Inactive)
REMARK    1  A    between atoms: N_12  and  S_14
REMARK    2  A    between atoms: S_14  and  C_17
REMARK    3  A    between atoms: N_22  and  C_23
REMARK                            x       y       z     vdW  Elec       q    Type
REMARK                         _______ _______ _______ _____ _____    ______ ____
ROOT
ATOM      1  C   UNL     1      -0.017   1.378   0.010  0.00  0.00    +0.002 A 
ATOM      2  C   UNL     1       1.169   2.091   0.002  0.00  0.00    +0.002 A 
ATOM      3  C   UNL     1       2.380   1.425  -0.016  0.00  0.00    +0.025 A 
ATOM      4  C   UNL     1       2.408   0.038  -0.025  0.00  0.00    +0.053 A 
ATOM      5  C   UNL     1       1.213  -0.680  -0.013  0.00  0.00    +0.049 A 
ATOM      6  C   UNL     1       0.002  -0.004   0.002  0.00  0.00    +0.025 A 
ATOM      7  N   UNL     1       1.229  -2.083  -0.007  0.00  0.00    -0.329 N 
ATOM      8  C   UNL     1       2.464  -2.775  -0.398  0.00  0.00    +0.100 C 
ATOM      9  C   UNL     1       2.580  -2.811  -1.920  0.00  0.00    +0.036 C 
ATOM     10  C   UNL     1       1.386  -3.567  -2.508  0.00  0.00    +0.020 C 
ATOM     11  C   UNL     1       1.388  -5.005  -1.980  0.00  0.00    +0.109 C 
ATOM     12  N   UNL     1       1.409  -4.970  -0.511  0.00  0.00    -0.178 NA
ATOM     13  C   UNL     1       2.463  -4.197   0.161  0.00  0.00    +0.142 C 
ATOM     14  C   UNL     1       3.629  -2.000   0.183  0.00  0.00    +0.098 C 
ATOM     15  N   UNL     1       3.639  -0.637  -0.052  0.00  0.00    -0.301 N 
ATOM     16  N   UNL     1       4.564  -2.582   0.861  0.00  0.00    -0.372 N 
ATOM     17  H   UNL     1       0.441  -2.586   0.251  0.00  0.00    +0.147 HD
ATOM     18  H   UNL     1       4.531  -3.540   1.010  0.00  0.00    +0.161 HD
ATOM     19  H   UNL     1       4.468  -0.164  -0.230  0.00  0.00    +0.153 HD
ENDROOT
BRANCH  16  20
ATOM     20  C   UNL     1       5.674  -1.794   1.405  0.00  0.00    +0.080 C 
ATOM     21  C   UNL     1       6.803  -1.680   0.360  0.00  0.00    +0.024 C 
ATOM     22  C   UNL     1       8.104  -1.756   1.197  0.00  0.00    +0.002 C 
ATOM     23  C   UNL     1       7.752  -2.802   2.283  0.00  0.00    +0.002 C 
ATOM     24  C   UNL     1       6.277  -2.507   2.628  0.00  0.00    +0.024 C 
ENDBRANCH  16  20
BRANCH  12  25
ATOM     25  S   UNL     1       0.269  -5.786   0.369  0.00  0.00    +0.035 S 
ATOM     26  O   UNL     1       0.190  -5.082   1.601  0.00  0.00    -0.158 OA
ATOM     27  O   UNL     1      -0.860  -5.871  -0.489  0.00  0.00    -0.158 OA
BRANCH  25  28
ATOM     28  C   UNL     1       0.977  -7.435   0.636  0.00  0.00    +0.148 C 
ATOM     29  C   UNL     1       0.386  -8.595  -0.168  0.00  0.00    +0.029 C 
ATOM     30  C   UNL     1       0.098  -8.477   1.331  0.00  0.00    +0.029 C 
ENDBRANCH  25  28
ENDBRANCH  12  25
TORSDOF 3
