REMARK  Name = ZINC08440785
REMARK  15 active torsions:
REMARK  status: ('A' for Active; 'I' for Inactive)
REMARK    1  A    between atoms: C_1  and  C_2
REMARK    2  A    between atoms: C_2  and  C_3
REMARK    3  A    between atoms: C_3  and  C_5
REMARK    4  A    between atoms: C_3  and  O_6
REMARK    5  A    between atoms: O_6  and  C_7
REMARK    6  A    between atoms: C_7  and  C_9
REMARK    7  A    between atoms: C_10  and  C_40
REMARK    8  A    between atoms: C_14  and  C_16
REMARK    9  A    between atoms: C_19  and  O_25
REMARK   10  A    between atoms: C_20  and  O_22
REMARK   11  A    between atoms: O_22  and  C_23
REMARK   12  A    between atoms: C_23  and  C_24
REMARK   13  A    between atoms: C_29  and  C_32
REMARK   14  A    between atoms: C_35  and  O_38
REMARK   15  A    between atoms: O_38  and  C_39
REMARK                            x       y       z     vdW  Elec       q    Type
REMARK                         _______ _______ _______ _____ _____    ______ ____
ROOT
ATOM      1  C   UNL     1      -1.271   2.909   0.420  0.00  0.00    +0.154 C 
ATOM      2  C   UNL     1      -1.208   1.624   0.024  0.00  0.00    +0.031 C 
ATOM      3  N   UNL     1      -0.010   0.965   0.011  0.00  0.00    -0.260 NA
ATOM      4  C   UNL     1       1.169   1.660  -0.000  0.00  0.00    +0.049 C 
ATOM      5  C   UNL     1       1.208   2.951   0.387  0.00  0.00    +0.025 C 
ATOM      6  C   UNL     1      -0.043   3.654   0.850  0.00  0.00    +0.073 C 
ATOM      7  C   UNL     1       2.412   3.677   0.376  0.00  0.00    +0.162 C 
ATOM      8  O   UNL     1       2.410   4.842   0.719  0.00  0.00    -0.292 OA
ATOM      9  C   UNL     1       3.704   3.035  -0.052  0.00  0.00    +0.088 C 
ATOM     10  C   UNL     1       3.637   1.533   0.243  0.00  0.00    +0.032 C 
ATOM     11  C   UNL     1       2.417   0.951  -0.469  0.00  0.00    +0.064 C 
ATOM     12  C   UNL     1      -2.461   0.909  -0.408  0.00  0.00    +0.061 C 
ENDROOT
BRANCH   6  13
ATOM     13  C   UNL     1      -0.032   3.745   2.355  0.00  0.00    -0.035 A 
ATOM     14  C   UNL     1       0.011   2.592   3.115  0.00  0.00    +0.008 A 
ATOM     15  C   UNL     1       0.023   2.671   4.495  0.00  0.00    +0.049 A 
ATOM     16  C   UNL     1      -0.009   3.907   5.119  0.00  0.00    +0.158 A 
ATOM     17  C   UNL     1      -0.052   5.069   4.353  0.00  0.00    +0.162 A 
ATOM     18  C   UNL     1      -0.058   4.983   2.970  0.00  0.00    +0.053 A 
BRANCH  16  19
ATOM     19  O   UNL     1       0.003   3.986   6.477  0.00  0.00    -0.503 OA
ATOM     20  H   UNL     1       0.889   4.036   6.861  0.00  0.00    +0.292 HD
ENDBRANCH  16  19
BRANCH  17  21
ATOM     21  O   UNL     1      -0.083   6.285   4.961  0.00  0.00    -0.489 OA
BRANCH  21  22
ATOM     22  C   UNL     1      -0.127   7.433   4.112  0.00  0.00    +0.226 C 
ATOM     23  C   UNL     1      -0.157   8.700   4.969  0.00  0.00    +0.048 C 
ENDBRANCH  21  22
ENDBRANCH  17  21
ENDBRANCH   6  13
BRANCH  10  24
ATOM     24  C   UNL     1       4.888   0.861  -0.261  0.00  0.00    -0.043 A 
ATOM     25  C   UNL     1       5.207   0.917  -1.605  0.00  0.00    +0.007 A 
ATOM     26  C   UNL     1       6.356   0.306  -2.070  0.00  0.00    +0.046 A 
ATOM     27  C   UNL     1       7.184  -0.372  -1.188  0.00  0.00    +0.120 A 
ATOM     28  C   UNL     1       6.859  -0.431   0.160  0.00  0.00    +0.046 A 
ATOM     29  C   UNL     1       5.712   0.186   0.620  0.00  0.00    +0.007 A 
BRANCH  27  30
ATOM     30  O   UNL     1       8.312  -0.979  -1.643  0.00  0.00    -0.495 OA
ATOM     31  C   UNL     1       8.583  -0.878  -3.042  0.00  0.00    +0.277 C 
ENDBRANCH  27  30
ENDBRANCH  10  24
BRANCH   1  32
ATOM     32  C   UNL     1      -2.521   3.572   0.423  0.00  0.00    +0.317 C 
ATOM     33  O   UNL     1      -3.525   2.980   0.073  0.00  0.00    -0.250 OA
BRANCH  32  34
ATOM     34  O   UNL     1      -2.599   4.862   0.813  0.00  0.00    -0.461 OA
BRANCH  34  35
ATOM     35  C   UNL     1      -3.893   5.468   0.791  0.00  0.00    +0.173 C 
ATOM     36  C   UNL     1      -4.578   5.260   2.143  0.00  0.00    +0.052 C 
BRANCH  35  38
ATOM     37  C   UNL     1      -3.179   7.177  -0.886  0.00  0.00    +0.007 C 
ATOM     38  C   UNL     1      -3.749   6.967   0.518  0.00  0.00    +0.041 C 
ENDBRANCH  35  38
ENDBRANCH  34  35
ENDBRANCH  32  34
ENDBRANCH   1  32
TORSDOF 10
