REMARK  Name = ZINC33746503
REMARK  2 active torsions:
REMARK  status: ('A' for Active; 'I' for Inactive)
REMARK    1  A    between atoms: C_11  and  C_21
REMARK    2  A    between atoms: C_24  and  C_26
REMARK                            x       y       z     vdW  Elec       q    Type
REMARK                         _______ _______ _______ _____ _____    ______ ____
ROOT
ATOM      1  C   UNL     1       8.450   2.456  -2.490  0.00  0.00    +0.001 A 
ATOM      2  C   UNL     1       7.768   3.665  -2.369  0.00  0.00    +0.001 A 
ATOM      3  C   UNL     1       7.127   3.996  -1.215  0.00  0.00    +0.009 A 
ATOM      4  C   UNL     1       7.150   3.106  -0.127  0.00  0.00    -0.012 A 
ATOM      5  C   UNL     1       7.840   1.874  -0.251  0.00  0.00    -0.017 A 
ATOM      6  C   UNL     1       8.492   1.569  -1.458  0.00  0.00    +0.008 A 
ATOM      7  C   UNL     1       7.859   0.978   0.832  0.00  0.00    +0.010 A 
ATOM      8  C   UNL     1       7.221   1.301   1.988  0.00  0.00    +0.024 A 
ATOM      9  C   UNL     1       6.542   2.519   2.121  0.00  0.00    +0.036 A 
ATOM     10  C   UNL     1       6.501   3.419   1.080  0.00  0.00    -0.004 A 
ATOM     11  C   UNL     1       5.772   4.723   1.224  0.00  0.00    +0.122 C 
ATOM     12  C   UNL     1       5.546   5.071   2.673  0.00  0.00    +0.027 C 
ATOM     13  C   UNL     1       5.611   4.125   3.636  0.00  0.00    +0.016 C 
ATOM     14  N   UNL     1       5.903   2.829   3.322  0.00  0.00    -0.317 N 
ATOM     15  C   UNL     1       5.358   4.471   5.083  0.00  0.00    +0.051 C 
ATOM     16  C   UNL     1       5.808   5.908   5.353  0.00  0.00    +0.014 C 
ATOM     17  C   UNL     1       5.037   6.842   4.415  0.00  0.00    +0.080 C 
ATOM     18  C   UNL     1       5.270   6.410   2.993  0.00  0.00    +0.162 C 
ATOM     19  O   UNL     1       5.218   7.236   2.103  0.00  0.00    -0.292 OA
ATOM     20  H   UNL     1       5.631   2.026   4.024  0.00  0.00    +0.152 HD
ENDROOT
BRANCH  11  21
ATOM     21  C   UNL     1       4.439   4.622   0.528  0.00  0.00    +0.118 A 
ATOM     22  C   UNL     1       4.026   5.395  -0.495  0.00  0.00    +0.046 A 
ATOM     23  C   UNL     1       2.732   4.961  -0.844  0.00  0.00    +0.050 A 
ATOM     24  C   UNL     1       2.419   3.942   0.000  0.00  0.00    +0.138 A 
ATOM     25  O   UNL     1       3.465   3.745   0.825  0.00  0.00    -0.459 OA
BRANCH  24  26
ATOM     26  C   UNL     1       1.153   3.179   0.008  0.00  0.00    +0.052 A 
ATOM     27  C   UNL     1      -0.070   3.851   0.022  0.00  0.00    +0.014 A 
ATOM     28  C   UNL     1      -1.248   3.133   0.030  0.00  0.00    +0.001 A 
ATOM     29  C   UNL     1      -1.220   1.750   0.017  0.00  0.00    +0.003 A 
ATOM     30  C   UNL     1      -0.013   1.076   0.008  0.00  0.00    +0.039 A 
ATOM     31  C   UNL     1       1.175   1.782   0.000  0.00  0.00    +0.134 A 
ATOM     32  F   UNL     1       2.355   1.123  -0.013  0.00  0.00    -0.205 F 
ENDBRANCH  24  26
ENDBRANCH  11  21
TORSDOF 2
