REMARK  Name = ZINC14750182
REMARK  11 active torsions:
REMARK  status: ('A' for Active; 'I' for Inactive)
REMARK    1  A    between atoms: C_1  and  C_2
REMARK    2  A    between atoms: C_2  and  C_3
REMARK    3  A    between atoms: C_3  and  C_4
REMARK    4  A    between atoms: C_4  and  C_5
REMARK    5  A    between atoms: C_9  and  C_11
REMARK    6  A    between atoms: C_11  and  N_12
REMARK    7  A    between atoms: C_14  and  O_28
REMARK    8  A    between atoms: N_17  and  C_21
REMARK    9  A    between atoms: C_21  and  C_22
REMARK   10  A    between atoms: O_28  and  C_29
REMARK   11  A    between atoms: C_29  and  C_30
REMARK                            x       y       z     vdW  Elec       q    Type
REMARK                         _______ _______ _______ _____ _____    ______ ____
ROOT
ATOM      1  N   UNL     1       4.686  -5.023   4.041  0.00  0.00    -0.286 NA
ATOM      2  C   UNL     1       6.076  -5.364   4.318  0.00  0.00    +0.118 C 
ATOM      3  C   UNL     1       6.513  -6.691   3.729  0.00  0.00    +0.150 C 
ATOM      4  C   UNL     1       5.782  -7.853   4.408  0.00  0.00    +0.140 C 
ATOM      5  N   UNL     1       4.491  -8.050   3.729  0.00  0.00    -0.298 N 
ATOM      6  C   UNL     1       3.521  -7.141   3.866  0.00  0.00    +0.230 C 
ATOM      7  O   UNL     1       2.461  -7.298   3.300  0.00  0.00    -0.274 OA
ATOM      8  C   UNL     1       3.743  -5.915   4.727  0.00  0.00    +0.181 C 
ENDROOT
BRANCH   1   9
ATOM      9  C   UNL     1       4.414  -3.617   4.368  0.00  0.00    +0.139 C 
BRANCH   9  14
ATOM     10  C   UNL     1       1.492  -2.540   2.454  0.00  0.00    +0.084 A 
ATOM     11  N   UNL     1       0.946  -2.808   3.609  0.00  0.00    -0.350 N 
ATOM     12  H   UNL     1       3.466  -2.682   1.820  0.00  0.00    +0.167 HD
ATOM     13  C   UNL     1       1.895  -3.228   4.459  0.00  0.00    +0.106 A 
ATOM     14  C   UNL     1       3.072  -3.221   3.806  0.00  0.00    +0.048 A 
ATOM     15  N   UNL     1       2.817  -2.790   2.533  0.00  0.00    -0.346 N 
ATOM     16  H   UNL     1       0.004  -2.717   3.820  0.00  0.00    +0.166 HD
BRANCH  10  17
ATOM     17  C   UNL     1       0.763  -2.041   1.233  0.00  0.00    +0.072 C 
BRANCH  17  18
ATOM     18  C   UNL     1       0.742  -0.511   1.242  0.00  0.00    +0.007 C 
BRANCH  18  20
ATOM     19  C   UNL     1      -0.019   1.526   0.010  0.00  0.00    +0.004 C 
ATOM     20  C   UNL     1       0.002  -0.004   0.002  0.00  0.00    -0.003 C 
ENDBRANCH  18  20
ENDBRANCH  17  18
ENDBRANCH  10  17
ENDBRANCH   9  14
ENDBRANCH   1   9
BRANCH   5  21
ATOM     21  C   UNL     1       4.269  -9.241   2.904  0.00  0.00    +0.111 C 
BRANCH  21  22
ATOM     22  C   UNL     1       3.693 -10.362   3.771  0.00  0.00    +0.011 C 
ATOM     23  C   UNL     1       4.732 -10.790   4.812  0.00  0.00    +0.033 C 
ATOM     24  C   UNL     1       4.178 -11.964   5.623  0.00  0.00    +0.160 C 
ATOM     25  O   UNL     1       3.845 -13.037   4.739  0.00  0.00    -0.380 OA
ATOM     26  C   UNL     1       2.843 -12.709   3.774  0.00  0.00    +0.160 C 
ATOM     27  C   UNL     1       3.345 -11.565   2.889  0.00  0.00    +0.033 C 
ENDBRANCH  21  22
ENDBRANCH   5  21
BRANCH   3  28
ATOM     28  O   UNL     1       7.921  -6.848   3.916  0.00  0.00    -0.369 OA
BRANCH  28  29
ATOM     29  C   UNL     1       8.559  -7.627   2.901  0.00  0.00    +0.195 C 
BRANCH  29  30
ATOM     30  C   UNL     1      10.033  -7.727   3.198  0.00  0.00    -0.022 A 
ATOM     31  C   UNL     1      10.904  -6.776   2.700  0.00  0.00    +0.006 A 
ATOM     32  C   UNL     1      12.257  -6.868   2.971  0.00  0.00    +0.000 A 
ATOM     33  C   UNL     1      12.738  -7.910   3.742  0.00  0.00    +0.000 A 
ATOM     34  C   UNL     1      11.866  -8.860   4.240  0.00  0.00    +0.000 A 
ATOM     35  C   UNL     1      10.513  -8.766   3.972  0.00  0.00    +0.006 A 
ENDBRANCH  29  30
ENDBRANCH  28  29
ENDBRANCH   3  28
TORSDOF 10
