REMARK  Name = ZINC64746744
REMARK  5 active torsions:
REMARK  status: ('A' for Active; 'I' for Inactive)
REMARK    1  A    between atoms: C_4  and  C_7
REMARK    2  A    between atoms: C_8  and  N_29
REMARK    3  A    between atoms: N_18  and  C_21
REMARK    4  A    between atoms: C_21  and  C_22
REMARK    5  A    between atoms: N_29  and  C_30
REMARK                            x       y       z     vdW  Elec       q    Type
REMARK                         _______ _______ _______ _____ _____    ______ ____
ROOT
ATOM      1  C   UNL     1       3.697  -0.686  -0.037  0.00  0.00    +0.114 A 
ATOM      2  C   UNL     1       3.965  -1.871   0.581  0.00  0.00    +0.150 A 
ATOM      3  N   UNL     1       5.288  -2.193   0.314  0.00  0.00    -0.190 N 
ATOM      4  C   UNL     1       5.759  -1.167  -0.466  0.00  0.00    +0.199 A 
ATOM      5  N   UNL     1       4.827  -0.286  -0.677  0.00  0.00    -0.218 NA
ATOM      6  S   UNL     1       7.444  -1.653  -0.760  0.00  0.00    -0.013 S 
ATOM      7  C   UNL     1       7.417  -3.179   0.166  0.00  0.00    +0.184 A 
ATOM      8  N   UNL     1       6.190  -3.209   0.611  0.00  0.00    -0.140 NA
ATOM      9  N   UNL     1       8.436  -4.097   0.362  0.00  0.00    -0.306 N 
ATOM     10  C   UNL     1       8.215  -5.312   1.160  0.00  0.00    +0.122 C 
ATOM     11  C   UNL     1       8.684  -6.522   0.345  0.00  0.00    +0.103 C 
ATOM     12  N   UNL     1      10.071  -6.308  -0.089  0.00  0.00    -0.295 NA
ATOM     13  C   UNL     1      10.176  -5.148  -0.984  0.00  0.00    +0.103 C 
ATOM     14  C   UNL     1       9.766  -3.884  -0.229  0.00  0.00    +0.122 C 
ENDROOT
BRANCH   1  18
ATOM     15  C   UNL     1      -0.017   1.379   0.010  0.00  0.00    +0.000 A 
ATOM     16  C   UNL     1       1.169   2.093   0.002  0.00  0.00    +0.001 A 
ATOM     17  C   UNL     1       2.377   1.429  -0.013  0.00  0.00    +0.010 A 
ATOM     18  C   UNL     1       2.403   0.034  -0.021  0.00  0.00    +0.004 A 
ATOM     19  C   UNL     1       1.204  -0.680  -0.013  0.00  0.00    +0.010 A 
ATOM     20  C   UNL     1       0.002  -0.004   0.002  0.00  0.00    +0.001 A 
ENDBRANCH   1  18
BRANCH   2  21
ATOM     21  N   UNL     1       3.070  -2.625   1.345  0.00  0.00    -0.324 N 
ATOM     22  H   UNL     1       2.161  -2.313   1.474  0.00  0.00    +0.148 HD
BRANCH  21  23
ATOM     23  C   UNL     1       3.505  -3.886   1.950  0.00  0.00    +0.072 C 
ATOM     24  C   UNL     1       4.126  -3.619   3.337  0.00  0.00    +0.022 C 
ATOM     25  C   UNL     1       2.960  -3.859   4.328  0.00  0.00    +0.002 C 
ATOM     26  C   UNL     1       2.220  -5.066   3.700  0.00  0.00    +0.002 C 
ATOM     27  C   UNL     1       2.293  -4.805   2.181  0.00  0.00    +0.022 C 
ENDBRANCH  21  23
ENDBRANCH   2  21
BRANCH  12  28
ATOM     28  C   UNL     1      10.616  -7.514  -0.725  0.00  0.00    +0.122 C 
BRANCH  28  29
ATOM     29  C   UNL     1      12.099  -7.346  -0.934  0.00  0.00    +0.002 A 
ATOM     30  C   UNL     1      12.585  -6.984  -2.176  0.00  0.00    +0.008 A 
ATOM     31  C   UNL     1      13.946  -6.830  -2.368  0.00  0.00    +0.000 A 
ATOM     32  C   UNL     1      14.821  -7.038  -1.318  0.00  0.00    +0.003 A 
ATOM     33  C   UNL     1      14.337  -7.399  -0.075  0.00  0.00    +0.038 A 
ATOM     34  C   UNL     1      12.974  -7.549   0.119  0.00  0.00    +0.128 A 
ATOM     35  F   UNL     1      12.499  -7.898   1.335  0.00  0.00    -0.205 F 
ENDBRANCH  28  29
ENDBRANCH  12  28
TORSDOF 5
