REMARK  Name = ZINC12451238
REMARK  8 active torsions:
REMARK  status: ('A' for Active; 'I' for Inactive)
REMARK    1  A    between atoms: C_1  and  C_2
REMARK    2  A    between atoms: C_6  and  S_29
REMARK    3  A    between atoms: C_16  and  N_60
REMARK    4  A    between atoms: C_20  and  C_22
REMARK    5  A    between atoms: C_20  and  C_23
REMARK    6  A    between atoms: C_20  and  N_60
REMARK    7  A    between atoms: C_23  and  C_24
REMARK    8  A    between atoms: S_29  and  C_32
REMARK                            x       y       z     vdW  Elec       q    Type
REMARK                         _______ _______ _______ _____ _____    ______ ____
ROOT
ATOM      1  C   UNL     1       6.374   1.727   3.195  0.00  0.00    +0.066 C 
ATOM      2  C   UNL     1       5.023   2.260   3.596  0.00  0.00    +0.051 A 
ATOM      3  C   UNL     1       4.881   3.087   4.726  0.00  0.00    +0.022 A 
ATOM      4  C   UNL     1       5.976   3.451   5.523  0.00  0.00    +0.013 A 
ATOM      5  C   UNL     1       5.780   4.255   6.605  0.00  0.00    +0.028 A 
ATOM      6  C   UNL     1       4.508   4.720   6.931  0.00  0.00    +0.090 A 
ATOM      7  C   UNL     1       3.423   4.386   6.179  0.00  0.00    +0.055 A 
ATOM      8  C   UNL     1       3.586   3.560   5.057  0.00  0.00    +0.078 A 
ATOM      9  N   UNL     1       2.553   3.206   4.281  0.00  0.00    -0.214 NA
ATOM     10  C   UNL     1       2.746   2.424   3.237  0.00  0.00    +0.219 A 
ATOM     11  N   UNL     1       3.948   1.962   2.897  0.00  0.00    -0.219 NA
ATOM     12  N   UNL     1       1.656   2.074   2.460  0.00  0.00    -0.300 N 
ATOM     13  C   UNL     1       0.574   1.503   3.291  0.00  0.00    +0.108 C 
ATOM     14  C   UNL     1      -0.535   0.825   2.466  0.00  0.00    +0.017 C 
ATOM     15  C   UNL     1      -0.920   1.612   1.243  0.00  0.00    -0.014 C 
ATOM     16  C   UNL     1      -0.066   1.131   0.049  0.00  0.00    -0.070 C 
ATOM     17  C   UNL     1       1.289   1.670   0.104  0.00  0.00    +0.003 C 
ATOM     18  C   UNL     1       2.054   1.224   1.364  0.00  0.00    +0.106 C 
ENDROOT
BRANCH   6  19
ATOM     19  S   UNL     1       4.300   5.758   8.340  0.00  0.00    -0.006 S 
ATOM     20  O   UNL     1       5.558   6.395   8.510  0.00  0.00    -0.170 OA
ATOM     21  O   UNL     1       3.134   6.521   8.059  0.00  0.00    -0.170 OA
ATOM     22  C   UNL     1       3.984   4.619   9.716  0.00  0.00    +0.200 C 
ENDBRANCH   6  19
BRANCH  16  23
ATOM     23  N   UNL     1      -0.701   1.573  -1.207  0.00  0.00    +0.383 N 
ATOM     24  H   UNL     1       0.013   1.639  -1.942  0.00  0.00    -0.085 HD
ATOM     25  H   UNL     1      -1.131   2.494  -1.062  0.00  0.00    -0.085 HD
BRANCH  23  26
ATOM     26  C   UNL     1      -1.740   0.611  -1.622  0.00  0.00    -0.070 C 
ATOM     27  C   UNL     1      -1.090  -0.543  -2.387  0.00  0.00    -0.013 C 
BRANCH  26  28
ATOM     28  C   UNL     1      -2.748   1.321  -2.528  0.00  0.00    +0.019 C 
BRANCH  28  29
ATOM     29  C   UNL     1      -3.475   2.378  -1.738  0.00  0.00    -0.042 A 
ATOM     30  C   UNL     1      -4.649   2.075  -1.074  0.00  0.00    +0.011 A 
ATOM     31  C   UNL     1      -5.275   3.047  -0.368  0.00  0.00    +0.045 A 
ATOM     32  S   UNL     1      -4.206   4.450  -0.643  0.00  0.00    -0.105 S 
ATOM     33  C   UNL     1      -2.992   3.643  -1.674  0.00  0.00    +0.048 A 
ENDBRANCH  28  29
ENDBRANCH  26  28
ENDBRANCH  23  26
ENDBRANCH  16  23
TORSDOF 5
