REMARK  Name = ZINC08749924
REMARK  8 active torsions:
REMARK  status: ('A' for Active; 'I' for Inactive)
REMARK    1  A    between atoms: C_1  and  C_2
REMARK    2  A    between atoms: C_7  and  N_8
REMARK    3  A    between atoms: C_9  and  C_11
REMARK    4  A    between atoms: C_11  and  N_55
REMARK    5  A    between atoms: C_12  and  N_55
REMARK    6  A    between atoms: C_13  and  C_14
REMARK    7  A    between atoms: C_13  and  N_55
REMARK    8  A    between atoms: C_27  and  C_29
REMARK                            x       y       z     vdW  Elec       q    Type
REMARK                         _______ _______ _______ _____ _____    ______ ____
ROOT
ATOM      1  C   UNL     1       0.354   3.526  -2.277  0.00  0.00    +0.019 C 
ENDROOT
BRANCH   1   2
ATOM      2  C   UNL     1       0.777   4.211  -1.002  0.00  0.00    +0.204 C 
ATOM      3  O   UNL     1       0.790   5.423  -0.941  0.00  0.00    -0.277 OA
ATOM      4  N   UNL     1       1.140   3.478   0.069  0.00  0.00    -0.268 N 
ATOM      5  C   UNL     1       1.128   2.078   0.011  0.00  0.00    +0.058 A 
ATOM      6  C   UNL     1      -0.069   1.381   0.014  0.00  0.00    +0.025 A 
ATOM      7  C   UNL     1      -0.059  -0.002   0.007  0.00  0.00    +0.002 A 
ATOM      8  C   UNL     1       1.140  -0.690  -0.004  0.00  0.00    +0.002 A 
ATOM      9  C   UNL     1       2.339  -0.002  -0.021  0.00  0.00    +0.025 A 
ATOM     10  C   UNL     1       2.338   1.383  -0.020  0.00  0.00    +0.055 A 
ATOM     11  N   UNL     1       3.538   2.102  -0.067  0.00  0.00    -0.284 N 
ATOM     12  C   UNL     1       3.764   3.115   0.798  0.00  0.00    +0.219 C 
ATOM     13  O   UNL     1       4.770   3.784   0.692  0.00  0.00    -0.275 OA
ATOM     14  C   UNL     1       2.775   3.418   1.892  0.00  0.00    +0.118 C 
ATOM     15  C   UNL     1       1.552   4.130   1.313  0.00  0.00    +0.087 C 
ATOM     16  C   UNL     1       0.403   4.070   2.322  0.00  0.00    +0.029 C 
ATOM     17  H   UNL     1       4.212   1.871  -0.725  0.00  0.00    +0.155 HD
ENDBRANCH   1   2
BRANCH   1  19
ATOM     18  C   UNL     1      -1.182   5.296  -2.885  0.00  0.00    -0.095 C 
ATOM     19  N   UNL     1       0.033   4.556  -3.287  0.00  0.00    +0.389 N 
ATOM     20  H   UNL     1       0.818   5.214  -3.355  0.00  0.00    -0.081 HD
BRANCH  19  21
ATOM     21  C   UNL     1      -0.176   3.921  -4.606  0.00  0.00    +0.019 C 
BRANCH  21  23
ATOM     22  N   UNL     1      -0.459   4.668  -6.947  0.00  0.00    -0.287 N 
ATOM     23  C   UNL     1      -0.283   5.000  -5.653  0.00  0.00    +0.201 C 
ATOM     24  O   UNL     1      -0.211   6.167  -5.331  0.00  0.00    -0.278 OA
ATOM     25  H   UNL     1      -0.437   3.736  -7.216  0.00  0.00    +0.155 HD
BRANCH  22  32
ATOM     26  C   UNL     1       0.243   4.116  -9.649  0.00  0.00    +0.046 C 
ATOM     27  C   UNL     1      -0.345   5.439  -9.233  0.00  0.00    -0.028 A 
ATOM     28  C   UNL     1      -0.564   6.425 -10.175  0.00  0.00    +0.020 A 
ATOM     29  C   UNL     1      -1.099   7.642  -9.794  0.00  0.00    +0.018 A 
ATOM     30  C   UNL     1      -1.422   7.874  -8.468  0.00  0.00    +0.017 A 
ATOM     31  C   UNL     1      -1.211   6.890  -7.523  0.00  0.00    +0.024 A 
ATOM     32  C   UNL     1      -0.674   5.667  -7.903  0.00  0.00    +0.036 A 
ATOM     33 BR   UNL     1      -1.390   8.992 -11.086  0.00  0.00    -0.050 Br
ENDBRANCH  22  32
ENDBRANCH  21  23
ENDBRANCH  19  21
ENDBRANCH   1  19
TORSDOF 5
