REMARK  Name = ZINC00891411
REMARK  9 active torsions:
REMARK  status: ('A' for Active; 'I' for Inactive)
REMARK    1  A    between atoms: C_1  and  C_2
REMARK    2  A    between atoms: C_2  and  C_4
REMARK    3  A    between atoms: C_2  and  N_10
REMARK    4  A    between atoms: N_10  and  C_11
REMARK    5  A    between atoms: C_11  and  N_13
REMARK    6  A    between atoms: N_13  and  C_14
REMARK    7  A    between atoms: N_13  and  C_24
REMARK    8  A    between atoms: C_14  and  C_15
REMARK    9  A    between atoms: C_24  and  C_25
REMARK                            x       y       z     vdW  Elec       q    Type
REMARK                         _______ _______ _______ _____ _____    ______ ____
ROOT
ATOM      1  N   UNL     1       0.760  -1.102  -3.542  0.00  0.00    -0.304 N 
ENDROOT
BRANCH   1   2
ATOM      2  C   UNL     1       0.253  -0.694  -2.362  0.00  0.00    +0.134 C 
ATOM      3  S   UNL     1      -1.412  -0.318  -2.230  0.00  0.00    -0.019 S 
BRANCH   2   4
ATOM      4  N   UNL     1       1.056  -0.583  -1.285  0.00  0.00    -0.320 N 
ATOM      5  H   UNL     1       2.000  -0.796  -1.360  0.00  0.00    +0.148 HD
BRANCH   4   7
ATOM      6  C   UNL     1       0.480   1.390   0.041  0.00  0.00    +0.033 C 
ATOM      7  C   UNL     1       0.505  -0.140  -0.003  0.00  0.00    +0.099 C 
BRANCH   7   8
ATOM      8  C   UNL     1       1.364  -0.660   1.121  0.00  0.00    -0.028 A 
ATOM      9  C   UNL     1       2.741  -0.663   0.993  0.00  0.00    +0.005 A 
ATOM     10  C   UNL     1       3.529  -1.141   2.023  0.00  0.00    +0.000 A 
ATOM     11  C   UNL     1       2.941  -1.614   3.181  0.00  0.00    +0.000 A 
ATOM     12  C   UNL     1       1.565  -1.610   3.309  0.00  0.00    +0.000 A 
ATOM     13  C   UNL     1       0.776  -1.129   2.280  0.00  0.00    +0.005 A 
ENDBRANCH   7   8
ENDBRANCH   4   7
ENDBRANCH   2   4
ENDBRANCH   1   2
BRANCH   1  14
ATOM     14  C   UNL     1       2.197  -1.358  -3.673  0.00  0.00    +0.142 C 
BRANCH  14  15
ATOM     15  C   UNL     1       2.484  -2.799  -3.338  0.00  0.00    -0.026 A 
ATOM     16  C   UNL     1       2.767  -3.161  -2.034  0.00  0.00    +0.009 A 
ATOM     17  C   UNL     1       3.030  -4.482  -1.722  0.00  0.00    +0.050 A 
ATOM     18  C   UNL     1       3.011  -5.446  -2.717  0.00  0.00    +0.166 A 
ATOM     19  C   UNL     1       2.726  -5.081  -4.030  0.00  0.00    +0.167 A 
ATOM     20  C   UNL     1       2.457  -3.756  -4.334  0.00  0.00    +0.054 A 
ATOM     21  O   UNL     1       2.768  -6.199  -4.812  0.00  0.00    -0.453 OA
ATOM     22  C   UNL     1       3.481  -7.183  -4.040  0.00  0.00    +0.466 C 
ATOM     23  O   UNL     1       3.232  -6.793  -2.676  0.00  0.00    -0.453 OA
ENDBRANCH  14  15
ENDBRANCH   1  14
BRANCH   1  24
ATOM     24  C   UNL     1      -0.125  -1.291  -4.694  0.00  0.00    +0.147 C 
BRANCH  24  25
ATOM     25  C   UNL     1      -0.068  -0.070  -5.576  0.00  0.00    +0.035 A 
ATOM     26  C   UNL     1       0.794  -0.032  -6.624  0.00  0.00    +0.020 A 
ATOM     27  C   UNL     1       0.825   1.166  -7.461  0.00  0.00    +0.003 A 
ATOM     28  C   UNL     1       1.694   1.261  -8.555  0.00  0.00    +0.059 A 
ATOM     29  C   UNL     1       1.700   2.403  -9.328  0.00  0.00    +0.163 A 
ATOM     30  C   UNL     1       0.842   3.464  -9.023  0.00  0.00    +0.164 A 
ATOM     31  C   UNL     1      -0.019   3.379  -7.942  0.00  0.00    +0.075 A 
ATOM     32  C   UNL     1      -0.038   2.236  -7.154  0.00  0.00    +0.053 A 
ATOM     33  N   UNL     1      -0.890   2.135  -6.073  0.00  0.00    -0.322 N 
ATOM     34  H   UNL     1      -1.483   2.873  -5.861  0.00  0.00    +0.169 HD
ATOM     35  C   UNL     1      -0.914   1.026  -5.312  0.00  0.00    +0.254 A 
ATOM     36  O   UNL     1      -1.683   0.970  -4.369  0.00  0.00    -0.268 OA
ATOM     37  O   UNL     1       0.836   4.591  -9.785  0.00  0.00    -0.485 OA
ATOM     38  C   UNL     1       1.969   4.800 -10.634  0.00  0.00    +0.270 C 
ATOM     39  C   UNL     1       2.271   3.486 -11.367  0.00  0.00    +0.270 C 
ATOM     40  O   UNL     1       2.553   2.482 -10.386  0.00  0.00    -0.485 OA
ENDBRANCH  24  25
ENDBRANCH   1  24
TORSDOF 8
