REMARK  Name = ZINC08960124
REMARK  10 active torsions:
REMARK  status: ('A' for Active; 'I' for Inactive)
REMARK    1  A    between atoms: C_1  and  C_2
REMARK    2  A    between atoms: C_2  and  O_3
REMARK    3  A    between atoms: O_3  and  C_4
REMARK    4  A    between atoms: C_11  and  C_13
REMARK    5  A    between atoms: N_15  and  C_16
REMARK    6  A    between atoms: C_17  and  C_31
REMARK    7  A    between atoms: C_24  and  C_25
REMARK    8  A    between atoms: C_24  and  N_61
REMARK    9  A    between atoms: C_31  and  O_33
REMARK   10  A    between atoms: O_33  and  C_34
REMARK                            x       y       z     vdW  Elec       q    Type
REMARK                         _______ _______ _______ _____ _____    ______ ____
ROOT
ATOM      1  C   UNL     1       3.188   3.659  -0.319  0.00  0.00    +0.087 A 
ATOM      2  C   UNL     1       1.829   3.369  -0.357  0.00  0.00    +0.091 A 
ATOM      3  C   UNL     1       1.423   2.022  -0.001  0.00  0.00    -0.025 A 
ATOM      4  C   UNL     1       2.430   1.185   0.337  0.00  0.00    -0.021 A 
ATOM      5  S   UNL     1       3.898   2.160   0.185  0.00  0.00    -0.079 S 
ATOM      6  C   UNL     1       2.295  -0.248   0.747  0.00  0.00    -0.035 C 
ATOM      7  C   UNL     1       0.002  -0.004   0.002  0.00  0.00    -0.073 C 
ATOM      8  C   UNL     1      -0.019   1.527   0.010  0.00  0.00    +0.018 C 
ATOM      9  N   UNL     1       0.873  -0.489   1.093  0.00  0.00    +0.386 N 
ATOM     10  H   UNL     1       0.647   0.024   1.953  0.00  0.00    -0.081 HD
ENDROOT
BRANCH   1  13
ATOM     11  C   UNL     1       5.162   4.949  -0.516  0.00  0.00    +0.284 C 
ATOM     12  O   UNL     1       5.816   3.982  -0.174  0.00  0.00    -0.266 OA
ATOM     13  N   UNL     1       3.821   4.855  -0.611  0.00  0.00    -0.273 N 
ATOM     14  H   UNL     1       3.299   5.626  -0.884  0.00  0.00    +0.156 HD
BRANCH  11  22
ATOM     15  C   UNL     1       5.979   9.670  -1.823  0.00  0.00    +0.163 A 
ATOM     16  C   UNL     1       7.108  10.457  -1.951  0.00  0.00    +0.049 A 
ATOM     17  C   UNL     1       8.367   9.937  -1.684  0.00  0.00    +0.004 A 
ATOM     18  C   UNL     1       8.511   8.637  -1.291  0.00  0.00    +0.012 A 
ATOM     19  C   UNL     1       7.383   7.823  -1.155  0.00  0.00    +0.025 A 
ATOM     20  C   UNL     1       6.103   8.340  -1.423  0.00  0.00    +0.177 A 
ATOM     21  O   UNL     1       5.212   7.349  -1.220  0.00  0.00    -0.447 OA
ATOM     22  C   UNL     1       5.833   6.218  -0.827  0.00  0.00    +0.191 A 
ATOM     23  C   UNL     1       7.174   6.428  -0.766  0.00  0.00    +0.063 A 
BRANCH  15  24
ATOM     24  O   UNL     1       4.751  10.191  -2.087  0.00  0.00    -0.489 OA
BRANCH  24  26
ATOM     25  C   UNL     1       3.246  11.965  -2.743  0.00  0.00    +0.048 C 
ATOM     26  C   UNL     1       4.700  11.560  -2.492  0.00  0.00    +0.226 C 
ENDBRANCH  24  26
ENDBRANCH  15  24
ENDBRANCH  11  22
ENDBRANCH   1  13
BRANCH   2  27
ATOM     27  C   UNL     1       0.845   4.383  -0.743  0.00  0.00    +0.342 C 
ATOM     28  O   UNL     1       0.345   5.098   0.104  0.00  0.00    -0.245 OA
BRANCH  27  29
ATOM     29  O   UNL     1       0.493   4.523  -2.037  0.00  0.00    -0.464 OA
ATOM     30  C   UNL     1      -0.487   5.548  -2.346  0.00  0.00    +0.280 C 
ENDBRANCH  27  29
ENDBRANCH   2  27
BRANCH   9  31
ATOM     31  C   UNL     1       0.644  -1.932   1.319  0.00  0.00    -0.043 C 
BRANCH  31  32
ATOM     32  C   UNL     1       1.372  -2.350   2.571  0.00  0.00    -0.064 A 
ATOM     33  C   UNL     1       2.670  -2.819   2.492  0.00  0.00    +0.002 A 
ATOM     34  C   UNL     1       3.339  -3.197   3.641  0.00  0.00    +0.000 A 
ATOM     35  C   UNL     1       2.707  -3.117   4.868  0.00  0.00    +0.000 A 
ATOM     36  C   UNL     1       1.407  -2.654   4.946  0.00  0.00    +0.000 A 
ATOM     37  C   UNL     1       0.739  -2.270   3.798  0.00  0.00    +0.002 A 
ENDBRANCH  31  32
ENDBRANCH   9  31
TORSDOF 8
