REMARK  Name = ZINC39326703
REMARK  13 active torsions:
REMARK  status: ('A' for Active; 'I' for Inactive)
REMARK    1  A    between atoms: C_1  and  C_2
REMARK    2  A    between atoms: C_2  and  C_3
REMARK    3  A    between atoms: C_2  and  O_4
REMARK    4  A    between atoms: O_4  and  C_5
REMARK    5  A    between atoms: C_10  and  C_11
REMARK    6  A    between atoms: C_19  and  N_35
REMARK    7  A    between atoms: C_20  and  C_33
REMARK    8  A    between atoms: C_21  and  C_23
REMARK    9  A    between atoms: C_28  and  O_29
REMARK   10  A    between atoms: O_29  and  C_30
REMARK   11  A    between atoms: C_30  and  C_31
REMARK   12  A    between atoms: C_30  and  C_32
REMARK   13  A    between atoms: C_36  and  C_38
REMARK                            x       y       z     vdW  Elec       q    Type
REMARK                         _______ _______ _______ _____ _____    ______ ____
ROOT
ATOM      1  C   UNL     1      -3.945  -1.780  -0.174  0.00  0.00    +0.020 C 
ATOM      2  C   UNL     1      -5.243  -2.136  -0.185  0.00  0.00    +0.013 C 
ATOM      3  C   UNL     1      -5.678  -3.463  -0.770  0.00  0.00    +0.147 C 
ATOM      4  N   UNL     1      -6.956  -3.208  -1.461  0.00  0.00    -0.293 N 
ATOM      5  C   UNL     1      -8.051  -2.635  -0.675  0.00  0.00    +0.143 C 
ATOM      6  C   UNL     1      -7.571  -1.463   0.144  0.00  0.00    +0.003 C 
ATOM      7  C   UNL     1      -6.276  -1.245   0.379  0.00  0.00    +0.136 C 
ATOM      8  O   UNL     1      -5.858  -0.197   1.135  0.00  0.00    -0.441 OA
ATOM      9  C   UNL     1      -6.699   0.390   2.001  0.00  0.00    +0.199 C 
ATOM     10  C   UNL     1      -8.042   0.266   1.856  0.00  0.00    +0.098 C 
ATOM     11  C   UNL     1      -8.616  -0.529   0.709  0.00  0.00    +0.099 C 
ATOM     12  C   UNL     1      -7.110  -3.491  -2.770  0.00  0.00    +0.213 C 
ATOM     13  O   UNL     1      -6.220  -4.046  -3.379  0.00  0.00    -0.276 OA
ATOM     14  C   UNL     1      -8.388  -3.118  -3.476  0.00  0.00    +0.109 C 
ENDROOT
BRANCH   1  20
ATOM     15  C   UNL     1      -1.774  -2.287  -1.288  0.00  0.00    +0.128 A 
ATOM     16  C   UNL     1      -0.809  -3.196  -1.687  0.00  0.00    +0.046 A 
ATOM     17  C   UNL     1      -0.973  -4.542  -1.422  0.00  0.00    +0.004 A 
ATOM     18  C   UNL     1      -2.100  -4.993  -0.757  0.00  0.00    +0.001 A 
ATOM     19  C   UNL     1      -3.072  -4.103  -0.352  0.00  0.00    +0.011 A 
ATOM     20  C   UNL     1      -2.915  -2.738  -0.609  0.00  0.00    +0.017 A 
BRANCH  15  21
ATOM     21  O   UNL     1      -1.614  -0.963  -1.548  0.00  0.00    -0.489 OA
BRANCH  21  23
ATOM     22  C   UNL     1      -0.763   0.754  -3.019  0.00  0.00    +0.051 C 
ATOM     23  C   UNL     1      -0.487  -0.590  -2.343  0.00  0.00    +0.167 C 
ATOM     24  C   UNL     1       0.749  -0.468  -1.451  0.00  0.00    +0.051 C 
ENDBRANCH  21  23
ENDBRANCH  15  21
ENDBRANCH   1  20
BRANCH  11  25
ATOM     25  C   UNL     1      -9.089   0.404  -0.376  0.00  0.00    +0.007 A 
ATOM     26  C   UNL     1      -8.190   1.242  -1.008  0.00  0.00    +0.008 A 
ATOM     27  C   UNL     1      -8.623   2.098  -2.002  0.00  0.00    +0.001 A 
ATOM     28  C   UNL     1      -9.957   2.119  -2.368  0.00  0.00    +0.004 A 
ATOM     29  C   UNL     1     -10.859   1.283  -1.740  0.00  0.00    +0.046 A 
ATOM     30  C   UNL     1     -10.426   0.419  -0.744  0.00  0.00    +0.125 A 
BRANCH  30  31
ATOM     31  O   UNL     1     -11.311  -0.408  -0.128  0.00  0.00    -0.489 OA
BRANCH  31  32
ATOM     32  C   UNL     1     -12.657  -0.390  -0.608  0.00  0.00    +0.167 C 
ATOM     33  C   UNL     1     -13.329  -1.728  -0.290  0.00  0.00    +0.051 C 
ATOM     34  C   UNL     1     -13.427   0.742   0.075  0.00  0.00    +0.051 C 
ENDBRANCH  31  32
ENDBRANCH  30  31
ENDBRANCH  11  25
BRANCH   9  35
ATOM     35  N   UNL     1      -6.195   1.124   3.046  0.00  0.00    -0.328 N 
ATOM     36  H   UNL     1      -5.236   1.216   3.156  0.00  0.00    +0.145 HD
ATOM     37  H   UNL     1      -6.798   1.550   3.675  0.00  0.00    +0.145 HD
ENDBRANCH   9  35
BRANCH  10  38
ATOM     38  C   UNL     1      -8.921   0.902   2.791  0.00  0.00    +0.101 C 
ATOM     39  N   UNL     1      -9.617   1.406   3.534  0.00  0.00    -0.191 NA
ENDBRANCH  10  38
TORSDOF 8
