REMARK  Name = ZINC56056922
REMARK  4 active torsions:
REMARK  status: ('A' for Active; 'I' for Inactive)
REMARK    1  A    between atoms: C_1  and  C_2
REMARK    2  A    between atoms: C_3  and  C_18
REMARK    3  A    between atoms: C_4  and  C_10
REMARK    4  A    between atoms: N_20  and  C_21
REMARK                            x       y       z     vdW  Elec       q    Type
REMARK                         _______ _______ _______ _____ _____    ______ ____
ROOT
ATOM      1  C   UNL     1      -0.121   0.902  -2.139  0.00  0.00    +0.061 C 
ATOM      2  C   UNL     1      -0.106  -0.261  -1.181  0.00  0.00    +0.019 C 
ATOM      3  C   UNL     1      -1.263  -0.885  -0.876  0.00  0.00    +0.056 C 
ATOM      4  C   UNL     1      -1.202  -2.050   0.091  0.00  0.00    +0.144 C 
ATOM      5  N   UNL     1       0.124  -2.409   0.621  0.00  0.00    -0.288 N 
ATOM      6  C   UNL     1       1.191  -1.690   0.221  0.00  0.00    +0.304 C 
ATOM      7  O   UNL     1       2.290  -1.979   0.652  0.00  0.00    -0.252 OA
ATOM      8  N   UNL     1       1.081  -0.672  -0.641  0.00  0.00    -0.273 N 
ATOM      9  H   UNL     1       0.227  -3.146   1.244  0.00  0.00    +0.151 HD
ATOM     10  H   UNL     1       1.887  -0.196  -0.893  0.00  0.00    +0.156 HD
ENDROOT
BRANCH   4  11
ATOM     11  C   UNL     1      -2.098  -1.731   1.260  0.00  0.00    +0.015 A 
ATOM     12  C   UNL     1      -2.413  -0.417   1.551  0.00  0.00    +0.047 A 
ATOM     13  C   UNL     1      -3.236  -0.124   2.624  0.00  0.00    +0.124 A 
ATOM     14  C   UNL     1      -3.744  -1.147   3.407  0.00  0.00    +0.041 A 
ATOM     15  C   UNL     1      -3.429  -2.461   3.116  0.00  0.00    +0.041 A 
ATOM     16  C   UNL     1      -2.610  -2.754   2.039  0.00  0.00    +0.129 A 
ATOM     17  F   UNL     1      -2.306  -4.039   1.752  0.00  0.00    -0.205 F 
ATOM     18  F   UNL     1      -3.544   1.160   2.909  0.00  0.00    -0.205 F 
ENDBRANCH   4  11
BRANCH   3  19
ATOM     19  C   UNL     1      -2.493  -0.464  -1.439  0.00  0.00    +0.248 C 
ATOM     20  O   UNL     1      -2.537   0.546  -2.117  0.00  0.00    -0.270 OA
ATOM     21  N   UNL     1      -3.613  -1.181  -1.223  0.00  0.00    -0.282 N 
ATOM     22  H   UNL     1      -3.585  -1.964  -0.652  0.00  0.00    +0.155 HD
BRANCH  21  23
ATOM     23  C   UNL     1      -4.817  -0.795  -1.823  0.00  0.00    +0.034 A 
ATOM     24  C   UNL     1      -5.091   0.551  -2.030  0.00  0.00    +0.026 A 
ATOM     25  C   UNL     1      -6.280   0.929  -2.622  0.00  0.00    +0.040 A 
ATOM     26  C   UNL     1      -7.198  -0.032  -3.011  0.00  0.00    +0.124 A 
ATOM     27  C   UNL     1      -6.927  -1.374  -2.806  0.00  0.00    +0.040 A 
ATOM     28  C   UNL     1      -5.737  -1.757  -2.219  0.00  0.00    +0.026 A 
ATOM     29  F   UNL     1      -8.360   0.341  -3.590  0.00  0.00    -0.205 F 
ENDBRANCH  21  23
ENDBRANCH   3  19
TORSDOF 3
