REMARK  Name = ZINC02270688
REMARK  9 active torsions:
REMARK  status: ('A' for Active; 'I' for Inactive)
REMARK    1  A    between atoms: C_1  and  C_2
REMARK    2  A    between atoms: C_2  and  C_3
REMARK    3  A    between atoms: C_5  and  C_34
REMARK    4  A    between atoms: C_7  and  N_27
REMARK    5  A    between atoms: C_16  and  C_18
REMARK    6  A    between atoms: C_21  and  C_24
REMARK    7  A    between atoms: C_24  and  C_25
REMARK    8  A    between atoms: C_24  and  C_26
REMARK    9  A    between atoms: N_27  and  C_28
REMARK                            x       y       z     vdW  Elec       q    Type
REMARK                         _______ _______ _______ _____ _____    ______ ____
ROOT
ATOM      1  C   UNL     1      -1.273   7.873  -0.171  0.00  0.00    +0.086 C 
ATOM      2  C   UNL     1      -2.378   8.463   0.714  0.00  0.00    +0.031 C 
ATOM      3  C   UNL     1      -3.729   7.929   0.238  0.00  0.00    +0.107 C 
ATOM      4  C   UNL     1      -3.696   6.428   0.133  0.00  0.00    -0.006 A 
ATOM      5  C   UNL     1      -4.891   5.728   0.141  0.00  0.00    +0.007 A 
ATOM      6  C   UNL     1      -4.894   4.351   0.043  0.00  0.00    +0.000 A 
ATOM      7  C   UNL     1      -3.700   3.660  -0.065  0.00  0.00    +0.002 A 
ATOM      8  C   UNL     1      -2.504   4.349  -0.073  0.00  0.00    +0.024 A 
ATOM      9  C   UNL     1      -2.499   5.735   0.021  0.00  0.00    +0.042 A 
ATOM     10  N   UNL     1      -1.275   6.416   0.020  0.00  0.00    -0.264 N 
ATOM     11  C   UNL     1      -0.118   5.745   0.185  0.00  0.00    +0.251 C 
ATOM     12  O   UNL     1       0.944   6.312   0.014  0.00  0.00    -0.270 OA
ATOM     13  C   UNL     1      -2.147   8.048   2.169  0.00  0.00    +0.011 C 
ENDROOT
BRANCH  11  14
ATOM     14  C   UNL     1      -0.139   4.319   0.575  0.00  0.00    +0.037 A 
ATOM     15  C   UNL     1       0.732   3.413  -0.033  0.00  0.00    +0.013 A 
ATOM     16  C   UNL     1       0.706   2.084   0.335  0.00  0.00    +0.004 A 
ATOM     17  C   UNL     1      -0.180   1.648   1.304  0.00  0.00    -0.045 A 
ATOM     18  C   UNL     1      -1.050   2.540   1.906  0.00  0.00    +0.004 A 
ATOM     19  C   UNL     1      -1.031   3.873   1.552  0.00  0.00    +0.013 A 
BRANCH  17  20
ATOM     20  C   UNL     1      -0.203   0.194   1.700  0.00  0.00    +0.013 C 
ATOM     21  C   UNL     1       0.116   0.067   3.191  0.00  0.00    +0.012 C 
ATOM     22  C   UNL     1      -1.591  -0.388   1.425  0.00  0.00    +0.012 C 
ENDBRANCH  17  20
ENDBRANCH  11  14
BRANCH   1  24
ATOM     23  C   UNL     1       0.047   9.973   0.131  0.00  0.00    +0.006 C 
ATOM     24  C   UNL     1       0.084   8.447   0.242  0.00  0.00    +0.020 C 
ENDBRANCH   1  24
BRANCH   3  25
ATOM     25  N   UNL     1      -4.768   8.323   1.193  0.00  0.00    -0.337 N 
ATOM     26  H   UNL     1      -4.534   8.507   2.116  0.00  0.00    +0.147 HD
BRANCH  25  27
ATOM     27  C   UNL     1      -6.096   8.434   0.774  0.00  0.00    +0.028 A 
ATOM     28  C   UNL     1      -6.432   8.177  -0.549  0.00  0.00    +0.023 A 
ATOM     29  C   UNL     1      -7.747   8.283  -0.959  0.00  0.00    +0.002 A 
ATOM     30  C   UNL     1      -8.726   8.655  -0.056  0.00  0.00    +0.000 A 
ATOM     31  C   UNL     1      -8.394   8.917   1.260  0.00  0.00    +0.002 A 
ATOM     32  C   UNL     1      -7.082   8.807   1.678  0.00  0.00    +0.023 A 
ENDBRANCH  25  27
ENDBRANCH   3  25
TORSDOF 5
