REMARK  Name = ZINC34756198
REMARK  7 active torsions:
REMARK  status: ('A' for Active; 'I' for Inactive)
REMARK    1  A    between atoms: C_1  and  C_2
REMARK    2  A    between atoms: C_2  and  C_3
REMARK    3  A    between atoms: C_2  and  C_4
REMARK    4  A    between atoms: C_4  and  S_5
REMARK    5  A    between atoms: S_5  and  C_6
REMARK    6  A    between atoms: N_22  and  C_25
REMARK    7  A    between atoms: C_25  and  C_26
REMARK                            x       y       z     vdW  Elec       q    Type
REMARK                         _______ _______ _______ _____ _____    ______ ____
ROOT
ATOM      1  C   UNL     1      -3.115  -2.792  -0.104  0.00  0.00    +0.191 A 
ATOM      2  N   UNL     1      -3.452  -4.073  -0.198  0.00  0.00    -0.206 NA
ATOM      3  C   UNL     1      -4.713  -4.470  -0.195  0.00  0.00    +0.134 A 
ATOM      4  C   UNL     1      -5.748  -3.498  -0.089  0.00  0.00    +0.051 A 
ATOM      5  C   UNL     1      -7.198  -3.705  -0.068  0.00  0.00    -0.025 A 
ATOM      6  C   UNL     1      -7.971  -2.606   0.042  0.00  0.00    -0.004 A 
ATOM      7  S   UNL     1      -6.834  -1.247   0.123  0.00  0.00    -0.073 S 
ATOM      8  C   UNL     1      -5.318  -2.161   0.008  0.00  0.00    +0.115 A 
ATOM      9  N   UNL     1      -4.037  -1.844   0.003  0.00  0.00    -0.215 NA
ATOM     10  C   UNL     1      -9.467  -2.548   0.085  0.00  0.00    +0.043 C 
ATOM     11  C   UNL     1     -10.018  -3.901  -0.389  0.00  0.00    +0.005 C 
ATOM     12  C   UNL     1      -9.267  -5.019   0.341  0.00  0.00    +0.005 C 
ATOM     13  C   UNL     1      -7.826  -5.092  -0.164  0.00  0.00    +0.037 C 
ATOM     14  N   UNL     1      -5.024  -5.814  -0.295  0.00  0.00    -0.318 N 
ATOM     15  C   UNL     1      -5.342  -6.422  -1.596  0.00  0.00    +0.088 C 
ATOM     16  C   UNL     1      -4.486  -7.681  -1.766  0.00  0.00    -0.059 C 
ATOM     17  N   UNL     1      -4.689  -8.570  -0.615  0.00  0.00    +0.387 N 
ATOM     18  C   UNL     1      -4.201  -7.923   0.609  0.00  0.00    -0.059 C 
ATOM     19  C   UNL     1      -5.038  -6.677   0.896  0.00  0.00    +0.088 C 
ATOM     20  H   UNL     1      -5.673  -8.773  -0.518  0.00  0.00    -0.081 HD
ENDROOT
BRANCH   1  21
ATOM     21  S   UNL     1      -1.411  -2.343  -0.115  0.00  0.00    -0.086 S 
BRANCH  21  22
ATOM     22  C   UNL     1      -1.433  -0.536   0.039  0.00  0.00    +0.080 C 
BRANCH  22  24
ATOM     23  C   UNL     1      -0.016   1.522   0.047  0.00  0.00    +0.008 C 
ATOM     24  C   UNL     1       0.003  -0.007   0.042  0.00  0.00    -0.007 C 
ATOM     25  C   UNL     1       0.729  -0.512   1.291  0.00  0.00    +0.008 C 
ENDBRANCH  22  24
ENDBRANCH  21  22
ENDBRANCH   1  21
BRANCH  17  26
ATOM     26  C   UNL     1      -3.954  -9.824  -0.831  0.00  0.00    +0.019 C 
BRANCH  26  27
ATOM     27  C   UNL     1      -4.260 -10.784   0.289  0.00  0.00    +0.199 C 
ATOM     28  O   UNL     1      -5.016 -10.457   1.179  0.00  0.00    -0.278 OA
ATOM     29  N   UNL     1      -3.693 -12.007   0.302  0.00  0.00    -0.299 N 
ATOM     30  C   UNL     1      -2.768 -12.424  -0.764  0.00  0.00    +0.136 C 
ATOM     31  C   UNL     1      -1.496 -12.976  -0.111  0.00  0.00    +0.179 C 
ATOM     32  O   UNL     1      -1.853 -13.975   0.847  0.00  0.00    -0.377 OA
ATOM     33  C   UNL     1      -2.649 -13.489   1.930  0.00  0.00    +0.179 C 
ATOM     34  C   UNL     1      -3.977 -12.962   1.385  0.00  0.00    +0.136 C 
ENDBRANCH  26  27
ENDBRANCH  17  26
TORSDOF 5
