REMARK  Name = ZINC35073188
REMARK  17 active torsions:
REMARK  status: ('A' for Active; 'I' for Inactive)
REMARK    1  A    between atoms: C_1  and  C_2
REMARK    2  A    between atoms: C_2  and  C_3
REMARK    3  A    between atoms: C_3  and  C_4
REMARK    4  A    between atoms: C_4  and  C_5
REMARK    5  A    between atoms: C_5  and  C_7
REMARK    6  A    between atoms: C_5  and  C_9
REMARK    7  A    between atoms: C_7  and  C_8
REMARK    8  A    between atoms: N_11  and  C_12
REMARK    9  A    between atoms: N_11  and  C_17
REMARK   10  A    between atoms: C_12  and  C_13
REMARK   11  A    between atoms: C_13  and  N_14
REMARK   12  A    between atoms: N_14  and  C_15
REMARK   13  A    between atoms: N_14  and  C_16
REMARK   14  A    between atoms: C_17  and  C_19
REMARK   15  A    between atoms: C_17  and  C_21
REMARK   16  A    between atoms: C_19  and  C_20
REMARK   17  A    between atoms: N_31  and  C_32
REMARK                            x       y       z     vdW  Elec       q    Type
REMARK                         _______ _______ _______ _____ _____    ______ ____
ROOT
ATOM      1  C   UNL     1      -3.770  -5.182  -0.388  0.00  0.00    +0.142 C 
ENDROOT
BRANCH   1   2
ATOM      2  C   UNL     1      -4.385  -5.555   0.936  0.00  0.00    +0.138 A 
ATOM      3  N   UNL     1      -5.576  -5.116   1.209  0.00  0.00    -0.231 NA
ATOM      4  C   UNL     1      -6.192  -5.411   2.380  0.00  0.00    +0.078 A 
ATOM      5  C   UNL     1      -7.473  -4.939   2.673  0.00  0.00    +0.028 A 
ATOM      6  C   UNL     1      -8.061  -5.264   3.875  0.00  0.00    +0.002 A 
ATOM      7  C   UNL     1      -7.396  -6.057   4.801  0.00  0.00    +0.001 A 
ATOM      8  C   UNL     1      -6.131  -6.534   4.535  0.00  0.00    +0.015 A 
ATOM      9  C   UNL     1      -5.518  -6.217   3.325  0.00  0.00    +0.065 A 
ATOM     10  C   UNL     1      -4.171  -6.699   2.986  0.00  0.00    +0.266 A 
ATOM     11  O   UNL     1      -3.537  -7.397   3.756  0.00  0.00    -0.267 OA
ATOM     12  N   UNL     1      -3.665  -6.340   1.783  0.00  0.00    -0.263 N 
BRANCH  12  13
ATOM     13  C   UNL     1      -2.388  -6.777   1.409  0.00  0.00    +0.053 A 
ATOM     14  C   UNL     1      -2.236  -7.640   0.332  0.00  0.00    +0.029 A 
ATOM     15  C   UNL     1      -0.976  -8.069  -0.036  0.00  0.00    +0.042 A 
ATOM     16  C   UNL     1       0.136  -7.639   0.668  0.00  0.00    +0.142 A 
ATOM     17  C   UNL     1      -0.012  -6.778   1.743  0.00  0.00    +0.078 A 
ATOM     18  C   UNL     1      -1.272  -6.342   2.111  0.00  0.00    +0.049 A 
ATOM     19 CL   UNL     1       1.383  -6.241   2.625  0.00  0.00    -0.081 Cl
ATOM     20  F   UNL     1       1.368  -8.061   0.307  0.00  0.00    -0.204 F 
ENDBRANCH  12  13
ENDBRANCH   1   2
BRANCH   1  23
ATOM     21  C   UNL     1      -2.321  -3.224  -0.472  0.00  0.00    +0.219 C 
ATOM     22  O   UNL     1      -2.153  -2.024  -0.421  0.00  0.00    -0.275 OA
ATOM     23  N   UNL     1      -3.570  -3.731  -0.442  0.00  0.00    -0.293 N 
BRANCH  21  24
ATOM     24  C   UNL     1      -1.135  -4.148  -0.570  0.00  0.00    +0.075 C 
BRANCH  24  25
ATOM     25  C   UNL     1      -1.106  -4.796  -1.956  0.00  0.00    +0.009 C 
ATOM     26  C   UNL     1      -1.054  -3.706  -3.028  0.00  0.00    +0.004 C 
ENDBRANCH  24  25
BRANCH  24  27
ATOM     27  C   UNL     1       0.152  -3.350  -0.353  0.00  0.00    +0.013 C 
BRANCH  27  28
ATOM     28  C   UNL     1       1.347  -4.305  -0.330  0.00  0.00    +0.000 C 
BRANCH  28  30
ATOM     29  C   UNL     1       3.837  -4.454  -0.196  0.00  0.00    +0.004 C 
ATOM     30  C   UNL     1       2.643  -3.499  -0.219  0.00  0.00    -0.003 C 
ENDBRANCH  28  30
ENDBRANCH  27  28
ENDBRANCH  24  27
ENDBRANCH  21  24
BRANCH  23  31
ATOM     31  C   UNL     1      -4.726  -2.833  -0.463  0.00  0.00    +0.090 C 
BRANCH  31  32
ATOM     32  C   UNL     1      -5.054  -2.456  -1.910  0.00  0.00    -0.060 C 
BRANCH  32  33
ATOM     33  N   UNL     1      -6.213  -1.555  -1.931  0.00  0.00    +0.377 N 
ATOM     34  C   UNL     1      -6.454  -1.099  -3.306  0.00  0.00    -0.097 C 
ATOM     35  C   UNL     1      -7.398  -2.270  -1.438  0.00  0.00    -0.097 C 
ATOM     36  H   UNL     1      -6.031  -0.758  -1.339  0.00  0.00    -0.083 HD
ENDBRANCH  32  33
ENDBRANCH  31  32
ENDBRANCH  23  31
ENDBRANCH   1  23
BRANCH   1  37
ATOM     37  C   UNL     1      -4.703  -5.610  -1.522  0.00  0.00    +0.027 C 
ATOM     38  C   UNL     1      -4.015  -5.371  -2.868  0.00  0.00    +0.006 C 
ENDBRANCH   1  37
TORSDOF 12
