REMARK  Name = ZINC41157114
REMARK  7 active torsions:
REMARK  status: ('A' for Active; 'I' for Inactive)
REMARK    1  A    between atoms: C_1  and  O_2
REMARK    2  A    between atoms: O_2  and  C_3
REMARK    3  A    between atoms: C_6  and  C_9
REMARK    4  A    between atoms: C_11  and  C_14
REMARK    5  A    between atoms: C_14  and  C_15
REMARK    6  A    between atoms: C_15  and  N_16
REMARK    7  A    between atoms: C_17  and  C_19
REMARK                            x       y       z     vdW  Elec       q    Type
REMARK                         _______ _______ _______ _____ _____    ______ ____
ROOT
ATOM      1  C   UNL     1       2.411  -5.891  -7.122  0.00  0.00    +0.113 C 
ENDROOT
BRANCH   1   2
ATOM      2  N   UNL     1       2.720  -7.218  -7.661  0.00  0.00    -0.314 N 
ATOM      3  C   UNL     1       1.848  -7.830  -8.487  0.00  0.00    +0.219 C 
ATOM      4  O   UNL     1       0.808  -7.282  -8.784  0.00  0.00    -0.275 OA
ATOM      5  H   UNL     1       3.552  -7.657  -7.423  0.00  0.00    +0.149 HD
BRANCH   3   6
ATOM      6  C   UNL     1       2.166  -9.195  -9.041  0.00  0.00    +0.048 C 
ATOM      7  C   UNL     1       3.460  -9.127  -9.854  0.00  0.00    +0.019 C 
ATOM      8  C   UNL     1       3.782 -10.512 -10.417  0.00  0.00    -0.009 C 
ATOM      9  C   UNL     1       2.636 -10.976 -11.319  0.00  0.00    +0.007 C 
ATOM     10  C   UNL     1       1.343 -11.044 -10.505  0.00  0.00    -0.009 C 
ATOM     11  C   UNL     1       1.020  -9.658  -9.943  0.00  0.00    +0.019 C 
ATOM     12  C   UNL     1       1.517 -12.035  -9.352  0.00  0.00    +0.007 C 
ATOM     13  C   UNL     1       2.662 -11.571  -8.450  0.00  0.00    -0.009 C 
ATOM     14  C   UNL     1       3.956 -11.503  -9.264  0.00  0.00    +0.007 C 
ATOM     15  C   UNL     1       2.340 -10.185  -7.888  0.00  0.00    +0.019 C 
ENDBRANCH   3   6
ENDBRANCH   1   2
BRANCH   1  16
ATOM     16  C   UNL     1       3.557  -5.428  -6.220  0.00  0.00    +0.117 C 
BRANCH  16  19
ATOM     17  C   UNL     1       2.496  -2.494  -4.365  0.00  0.00    +0.202 A 
ATOM     18  N   UNL     1       2.605  -3.822  -4.554  0.00  0.00    -0.191 NA
ATOM     19  C   UNL     1       3.239  -4.063  -5.666  0.00  0.00    +0.229 A 
ATOM     20  O   UNL     1       3.562  -2.894  -6.234  0.00  0.00    -0.338 OA
ATOM     21  N   UNL     1       3.064  -1.879  -5.374  0.00  0.00    -0.056 NA
BRANCH  17  25
ATOM     22  C   UNL     1       0.606  -0.607  -1.055  0.00  0.00    +0.120 A 
ATOM     23  C   UNL     1       1.172   0.164  -2.061  0.00  0.00    +0.046 A 
ATOM     24  C   UNL     1       1.786  -0.445  -3.135  0.00  0.00    +0.015 A 
ATOM     25  C   UNL     1       1.837  -1.836  -3.211  0.00  0.00    +0.023 A 
ATOM     26  C   UNL     1       1.267  -2.607  -2.199  0.00  0.00    +0.015 A 
ATOM     27  C   UNL     1       0.659  -1.993  -1.125  0.00  0.00    +0.046 A 
BRANCH  22  29
ATOM     28  C   UNL     1      -0.017   1.425   0.010  0.00  0.00    +0.277 C 
ATOM     29  O   UNL     1       0.002  -0.004   0.002  0.00  0.00    -0.495 OA
ENDBRANCH  22  29
ENDBRANCH  17  25
ENDBRANCH  16  19
ENDBRANCH   1  16
TORSDOF 6
