REMARK  Name = ZINC06747022
REMARK  9 active torsions:
REMARK  status: ('A' for Active; 'I' for Inactive)
REMARK    1  A    between atoms: C_1  and  C_2
REMARK    2  A    between atoms: C_2  and  C_3
REMARK    3  A    between atoms: C_3  and  C_5
REMARK    4  A    between atoms: C_3  and  N_17
REMARK    5  A    between atoms: C_5  and  O_6
REMARK    6  A    between atoms: O_6  and  C_7
REMARK    7  A    between atoms: C_18  and  C_20
REMARK    8  A    between atoms: C_20  and  N_21
REMARK    9  A    between atoms: C_28  and  C_32
REMARK                            x       y       z     vdW  Elec       q    Type
REMARK                         _______ _______ _______ _____ _____    ______ ____
ROOT
ATOM      1  N   UNL     1       6.044   2.667  -1.291  0.00  0.00    -0.308 N 
ATOM      2  C   UNL     1       7.245   2.283  -1.768  0.00  0.00    +0.233 C 
ATOM      3  O   UNL     1       8.256   2.558  -1.158  0.00  0.00    -0.274 OA
ATOM      4  H   UNL     1       5.235   2.447  -1.779  0.00  0.00    +0.149 HD
ENDROOT
BRANCH   1   5
ATOM      5  C   UNL     1       5.960   3.415  -0.034  0.00  0.00    +0.110 C 
BRANCH   5   7
ATOM      6  C   UNL     1       7.290   1.698   1.200  0.00  0.00    +0.006 C 
ATOM      7  C   UNL     1       5.952   2.438   1.143  0.00  0.00    +0.022 C 
ENDBRANCH   5   7
BRANCH   5   8
ATOM      8  C   UNL     1       4.674   4.243  -0.018  0.00  0.00    +0.253 C 
BRANCH   8   9
ATOM      9  O   UNL     1       3.544   3.368  -0.013  0.00  0.00    -0.473 OA
BRANCH   9  10
ATOM     10  C   UNL     1       2.321   3.945   0.001  0.00  0.00    +0.245 A 
ATOM     11  C   UNL     1       1.143   3.163   0.008  0.00  0.00    +0.065 A 
ATOM     12  C   UNL     1       1.165   1.764   0.000  0.00  0.00    +0.015 A 
ATOM     13  C   UNL     1      -0.013   1.076   0.008  0.00  0.00    +0.001 A 
ATOM     14  C   UNL     1      -1.234   1.746   0.017  0.00  0.00    +0.002 A 
ATOM     15  C   UNL     1      -1.290   3.108   0.030  0.00  0.00    +0.030 A 
ATOM     16  C   UNL     1      -0.099   3.847   0.023  0.00  0.00    +0.100 A 
ATOM     17  N   UNL     1      -0.084   5.187   0.030  0.00  0.00    -0.129 NA
ATOM     18  N   UNL     1       1.032   5.827   0.023  0.00  0.00    -0.039 NA
ATOM     19  N   UNL     1       2.183   5.263   0.009  0.00  0.00    -0.091 NA
ENDBRANCH   9  10
ENDBRANCH   8   9
ENDBRANCH   5   8
ENDBRANCH   1   5
BRANCH   2  20
ATOM     20  C   UNL     1       7.330   1.513  -3.061  0.00  0.00    +0.221 C 
BRANCH  20  21
ATOM     21  N   UNL     1       8.734   1.217  -3.361  0.00  0.00    -0.299 N 
ATOM     22  C   UNL     1       9.470   2.108  -4.112  0.00  0.00    +0.053 A 
ATOM     23  C   UNL     1       8.900   3.283  -4.591  0.00  0.00    +0.026 A 
ATOM     24  C   UNL     1       9.659   4.155  -5.341  0.00  0.00    +0.002 A 
ATOM     25  C   UNL     1      10.988   3.874  -5.625  0.00  0.00    +0.001 A 
ATOM     26  C   UNL     1      11.572   2.731  -5.156  0.00  0.00    +0.010 A 
ATOM     27  C   UNL     1      10.820   1.828  -4.398  0.00  0.00    +0.002 A 
ATOM     28  C   UNL     1      11.409   0.586  -3.894  0.00  0.00    -0.036 A 
ATOM     29  C   UNL     1      10.630  -0.251  -3.165  0.00  0.00    +0.074 A 
ATOM     30  C   UNL     1       9.283   0.079  -2.903  0.00  0.00    +0.252 A 
ATOM     31  O   UNL     1       8.601  -0.688  -2.245  0.00  0.00    -0.268 OA
ATOM     32  C   UNL     1      12.849   0.246  -4.180  0.00  0.00    +0.044 C 
ENDBRANCH  20  21
ENDBRANCH   2  20
TORSDOF 7
