REMARK  Name = ZINC22189408
REMARK  6 active torsions:
REMARK  status: ('A' for Active; 'I' for Inactive)
REMARK    1  A    between atoms: C_1  and  C_2
REMARK    2  A    between atoms: N_6  and  C_14
REMARK    3  A    between atoms: C_14  and  C_15
REMARK    4  A    between atoms: N_17  and  C_18
REMARK    5  A    between atoms: C_18  and  C_20
REMARK    6  A    between atoms: C_18  and  C_21
REMARK                            x       y       z     vdW  Elec       q    Type
REMARK                         _______ _______ _______ _____ _____    ______ ____
ROOT
ATOM      1  C   UNL     1       5.594   0.402   0.166  0.00  0.00    +0.231 C 
ATOM      2  O   UNL     1       6.019  -0.707  -0.079  0.00  0.00    -0.274 OA
ATOM      3  N   UNL     1       5.785   1.407  -0.712  0.00  0.00    -0.307 N 
ATOM      4  H   UNL     1       5.400   2.413  -0.489  0.00  0.00    +0.149 HD
ENDROOT
BRANCH   3   5
ATOM      5  C   UNL     1       6.506   1.159  -1.963  0.00  0.00    +0.101 C 
ATOM      6  C   UNL     1       6.099   2.206  -3.002  0.00  0.00    +0.033 C 
BRANCH   5   7
ATOM      7  C   UNL     1       7.989   1.249  -1.714  0.00  0.00    -0.020 A 
ATOM      8  C   UNL     1       8.465   1.981  -0.670  0.00  0.00    +0.006 A 
ATOM      9  C   UNL     1       9.833   2.075  -0.424  0.00  0.00    +0.001 A 
ATOM     10  C   UNL     1      10.734   1.438  -1.221  0.00  0.00    +0.008 A 
ATOM     11  C   UNL     1      10.281   0.672  -2.308  0.00  0.00    -0.018 A 
ATOM     12  C   UNL     1       8.889   0.572  -2.555  0.00  0.00    -0.013 A 
ATOM     13  C   UNL     1       8.435  -0.198  -3.640  0.00  0.00    +0.009 A 
ATOM     14  C   UNL     1       9.335  -0.840  -4.433  0.00  0.00    +0.001 A 
ATOM     15  C   UNL     1      10.704  -0.745  -4.187  0.00  0.00    +0.001 A 
ATOM     16  C   UNL     1      11.181  -0.001  -3.153  0.00  0.00    +0.008 A 
ENDBRANCH   5   7
ENDBRANCH   3   5
BRANCH   1  17
ATOM     17  C   UNL     1       4.853   0.657   1.453  0.00  0.00    +0.209 C 
BRANCH  17  22
ATOM     18  C   UNL     1       2.911  -3.769   2.123  0.00  0.00    +0.062 C 
ATOM     19  C   UNL     1       3.663  -2.687   2.899  0.00  0.00    +0.256 C 
ATOM     20  C   UNL     1       3.741  -1.434   2.066  0.00  0.00    +0.261 C 
ATOM     21  O   UNL     1       2.875  -1.188   1.252  0.00  0.00    -0.271 OA
ATOM     22  N   UNL     1       4.779  -0.584   2.228  0.00  0.00    -0.256 N 
ATOM     23  C   UNL     1       5.785  -0.909   3.150  0.00  0.00    +0.079 A 
ATOM     24  C   UNL     1       6.685   0.051   3.583  0.00  0.00    +0.027 A 
ATOM     25  C   UNL     1       7.670  -0.291   4.491  0.00  0.00    +0.002 A 
ATOM     26  C   UNL     1       7.759  -1.586   4.967  0.00  0.00    +0.004 A 
ATOM     27  C   UNL     1       6.862  -2.549   4.539  0.00  0.00    +0.047 A 
ATOM     28  C   UNL     1       5.874  -2.215   3.630  0.00  0.00    +0.143 A 
ATOM     29  O   UNL     1       4.984  -3.148   3.199  0.00  0.00    -0.478 OA
ENDBRANCH  17  22
ENDBRANCH   1  17
TORSDOF 4
