REMARK  Name = ZINC63237396
REMARK  5 active torsions:
REMARK  status: ('A' for Active; 'I' for Inactive)
REMARK    1  A    between atoms: C_7  and  C_10
REMARK    2  A    between atoms: N_12  and  N_13
REMARK    3  A    between atoms: C_14  and  C_15
REMARK    4  A    between atoms: C_16  and  C_27
REMARK    5  A    between atoms: C_18  and  N_21
REMARK                            x       y       z     vdW  Elec       q    Type
REMARK                         _______ _______ _______ _____ _____    ______ ____
ROOT
ATOM      1  C   UNL     1      -0.144  -7.832   0.206  0.00  0.00    +0.052 C 
ATOM      2  C   UNL     1       0.143  -9.149  -0.136  0.00  0.00    +0.058 C 
ATOM      3  N   UNL     1      -0.856 -10.048  -0.354  0.00  0.00    -0.318 N 
ATOM      4  C   UNL     1      -2.236  -9.549  -0.208  0.00  0.00    +0.207 C 
ATOM      5  S   UNL     1      -1.929  -7.794   0.246  0.00  0.00    -0.084 S 
ATOM      6  H   UNL     1      -0.669 -10.969  -0.593  0.00  0.00    +0.148 HD
ENDROOT
BRANCH   4   7
ATOM      7  N   UNL     1      -2.973  -9.653  -1.475  0.00  0.00    -0.276 NA
ATOM      8  C   UNL     1      -2.309  -8.882  -2.534  0.00  0.00    +0.087 C 
ATOM      9  C   UNL     1      -3.177  -8.893  -3.795  0.00  0.00    +0.015 C 
ATOM     10  C   UNL     1      -3.391 -10.340  -4.248  0.00  0.00    +0.002 C 
ATOM     11  C   UNL     1      -4.039 -11.133  -3.110  0.00  0.00    +0.015 C 
ATOM     12  C   UNL     1      -3.147 -11.057  -1.869  0.00  0.00    +0.087 C 
ENDBRANCH   4   7
BRANCH   2  13
ATOM     13  C   UNL     1       1.494  -9.560  -0.259  0.00  0.00    +0.034 A 
ATOM     14  C   UNL     1       2.115 -10.694   0.252  0.00  0.00    +0.017 A 
ATOM     15  C   UNL     1       3.451 -10.876  -0.005  0.00  0.00    +0.008 A 
ATOM     16  C   UNL     1       4.120  -9.950  -0.746  0.00  0.00    +0.046 A 
ATOM     17  S   UNL     1       2.841  -8.762  -1.118  0.00  0.00    -0.095 S 
ENDBRANCH   2  13
BRANCH   1  19
ATOM     18  N   UNL     1       0.305  -5.568   0.672  0.00  0.00    -0.187 NA
ATOM     19  C   UNL     1       0.756  -6.782   0.464  0.00  0.00    +0.147 C 
BRANCH  18  22
ATOM     20  C   UNL     1       0.739  -3.275   1.143  0.00  0.00    +0.262 C 
ATOM     21  O   UNL     1      -0.461  -3.057   1.113  0.00  0.00    -0.269 OA
ATOM     22  N   UNL     1       1.202  -4.523   0.929  0.00  0.00    -0.203 N 
ATOM     23  H   UNL     1       2.156  -4.697   0.953  0.00  0.00    +0.178 HD
BRANCH  20  30
ATOM     24  C   UNL     1       0.103   1.142   1.963  0.00  0.00    +0.001 A 
ATOM     25  C   UNL     1       1.291   1.852   2.173  0.00  0.00    +0.002 A 
ATOM     26  C   UNL     1       2.502   1.250   2.130  0.00  0.00    +0.026 A 
ATOM     27  C   UNL     1       2.589  -0.146   1.863  0.00  0.00    +0.043 A 
ATOM     28  N   UNL     1       3.621  -0.951   1.769  0.00  0.00    -0.380 N 
ATOM     29  C   UNL     1       3.151  -2.308   1.476  0.00  0.00    +0.154 C 
ATOM     30  C   UNL     1       1.642  -2.222   1.402  0.00  0.00    +0.044 C 
ATOM     31  C   UNL     1       1.332  -0.890   1.643  0.00  0.00    +0.008 A 
ATOM     32  C   UNL     1       0.105  -0.190   1.705  0.00  0.00    +0.010 A 
ATOM     33  H   UNL     1       4.549  -0.689   1.876  0.00  0.00    +0.160 HD
ENDBRANCH  20  30
ENDBRANCH  18  22
ENDBRANCH   1  19
TORSDOF 5
