REMARK  Name = ZINC39488031
REMARK  6 active torsions:
REMARK  status: ('A' for Active; 'I' for Inactive)
REMARK    1  A    between atoms: C_1  and  C_2
REMARK    2  A    between atoms: C_2  and  C_23
REMARK    3  A    between atoms: N_4  and  O_22
REMARK    4  A    between atoms: N_7  and  C_8
REMARK    5  A    between atoms: C_8  and  C_9
REMARK    6  A    between atoms: C_9  and  C_16
REMARK                            x       y       z     vdW  Elec       q    Type
REMARK                         _______ _______ _______ _____ _____    ______ ____
ROOT
ATOM      1  C   UNL     1       1.619  -1.877   4.170  0.00  0.00    +0.039 C 
ATOM      2  C   UNL     1       2.292  -2.429   2.912  0.00  0.00    +0.079 C 
ATOM      3  C   UNL     1       3.583  -3.187   3.276  0.00  0.00    +0.171 C 
ATOM      4  N   UNL     1       4.641  -2.436   2.584  0.00  0.00    -0.165 N 
ATOM      5  C   UNL     1       4.090  -1.410   1.922  0.00  0.00    +0.328 C 
ATOM      6  O   UNL     1       4.740  -0.622   1.262  0.00  0.00    -0.250 OA
ATOM      7  N   UNL     1       2.760  -1.330   2.053  0.00  0.00    -0.272 N 
ENDROOT
BRANCH   2   8
ATOM      8  C   UNL     1       1.344  -3.324   2.156  0.00  0.00    -0.023 A 
ATOM      9  C   UNL     1       1.006  -3.027   0.849  0.00  0.00    +0.006 A 
ATOM     10  C   UNL     1       0.136  -3.848   0.157  0.00  0.00    +0.000 A 
ATOM     11  C   UNL     1      -0.394  -4.967   0.770  0.00  0.00    +0.000 A 
ATOM     12  C   UNL     1      -0.055  -5.265   2.077  0.00  0.00    +0.000 A 
ATOM     13  C   UNL     1       0.818  -4.446   2.768  0.00  0.00    +0.006 A 
ENDBRANCH   2   8
BRANCH   4  14
ATOM     14  O   UNL     1       6.022  -2.747   2.614  0.00  0.00    -0.291 OA
ATOM     15  H   UNL     1       6.572  -2.142   2.099  0.00  0.00    +0.242 HD
ENDBRANCH   4  14
BRANCH   7  16
ATOM     16  C   UNL     1       1.906  -0.311   1.438  0.00  0.00    +0.117 C 
BRANCH  16  17
ATOM     17  C   UNL     1       2.072   1.013   2.186  0.00  0.00    -0.008 C 
ATOM     18  C   UNL     1       1.282   2.110   1.467  0.00  0.00    +0.025 C 
ATOM     19  C   UNL     1      -0.206   1.752   1.480  0.00  0.00    +0.098 C 
ATOM     20  N   UNL     1      -0.667   1.621   2.868  0.00  0.00    -0.242 NA
ATOM     21  C   UNL     1       0.044   0.542   3.564  0.00  0.00    +0.098 C 
ATOM     22  C   UNL     1       1.539   0.864   3.614  0.00  0.00    +0.025 C 
ATOM     23 BR   UNL     1      -2.498   1.361   2.936  0.00  0.00    +0.013 Br
BRANCH  17  24
ATOM     24  C   UNL     1       3.553   1.393   2.231  0.00  0.00    -0.003 C 
ATOM     25  C   UNL     1       4.084   1.545   0.803  0.00  0.00    +0.004 C 
ATOM     26  C   UNL     1       5.565   1.925   0.848  0.00  0.00    +0.000 C 
ATOM     27  C   UNL     1       5.730   3.249   1.596  0.00  0.00    +0.000 C 
ATOM     28  C   UNL     1       5.199   3.097   3.023  0.00  0.00    +0.000 C 
ATOM     29  C   UNL     1       3.718   2.717   2.979  0.00  0.00    +0.004 C 
ENDBRANCH  17  24
ENDBRANCH  16  17
ENDBRANCH   7  16
TORSDOF 5
