REMARK  Name = ZINC09233865
REMARK  7 active torsions:
REMARK  status: ('A' for Active; 'I' for Inactive)
REMARK    1  A    between atoms: C_1  and  C_2
REMARK    2  A    between atoms: C_5  and  N_9
REMARK    3  A    between atoms: C_6  and  C_8
REMARK    4  A    between atoms: C_13  and  C_14
REMARK    5  A    between atoms: C_17  and  C_19
REMARK    6  A    between atoms: C_21  and  C_27
REMARK    7  A    between atoms: C_23  and  C_25
REMARK                            x       y       z     vdW  Elec       q    Type
REMARK                         _______ _______ _______ _____ _____    ______ ____
ROOT
ATOM      1  C   UNL     1       2.771   0.148   0.082  0.00  0.00    +0.130 A 
ATOM      2  C   UNL     1       4.028  -0.424   0.176  0.00  0.00    +0.050 A 
ATOM      3  C   UNL     1       3.837  -1.806   0.252  0.00  0.00    +0.050 A 
ATOM      4  C   UNL     1       2.491  -2.030   0.194  0.00  0.00    +0.136 A 
ATOM      5  O   UNL     1       1.859  -0.847   0.092  0.00  0.00    -0.455 OA
ENDROOT
BRANCH   1  10
ATOM      6  N   UNL     1      -1.137   1.909   0.335  0.00  0.00    -0.223 N 
ATOM      7  C   UNL     1       0.008   1.249   0.352  0.00  0.00    +0.263 C 
ATOM      8  O   UNL     1       0.044   0.061   0.620  0.00  0.00    -0.269 OA
ATOM      9  C   UNL     1       1.202   1.969   0.043  0.00  0.00    +0.080 C 
ATOM     10  C   UNL     1       2.492   1.528  -0.014  0.00  0.00    +0.066 C 
ATOM     11  S   UNL     1       0.546   3.606  -0.251  0.00  0.00    -0.061 S 
ATOM     12  C   UNL     1      -1.175   3.228   0.044  0.00  0.00    +0.125 C 
ATOM     13  S   UNL     1      -2.530   4.272  -0.029  0.00  0.00    -0.027 S 
BRANCH   6  18
ATOM     14  C   UNL     1      -5.963  -0.831   1.521  0.00  0.00    +0.044 C 
ATOM     15  C   UNL     1      -4.681  -0.104   1.206  0.00  0.00    -0.050 A 
ATOM     16  C   UNL     1      -3.959   0.494   2.223  0.00  0.00    +0.005 A 
ATOM     17  C   UNL     1      -2.784   1.161   1.938  0.00  0.00    +0.024 A 
ATOM     18  C   UNL     1      -2.328   1.232   0.628  0.00  0.00    +0.046 A 
ATOM     19  C   UNL     1      -3.058   0.636  -0.391  0.00  0.00    -0.028 A 
ATOM     20  C   UNL     1      -4.230  -0.034  -0.099  0.00  0.00    +0.008 A 
ATOM     21  C   UNL     1      -2.570   0.715  -1.815  0.00  0.00    +0.046 C 
ENDBRANCH   6  18
ENDBRANCH   1  10
BRANCH   4  22
ATOM     22  C   UNL     1       1.837  -3.353   0.236  0.00  0.00    +0.019 A 
ATOM     23  C   UNL     1       2.610  -4.511   0.338  0.00  0.00    +0.026 A 
ATOM     24  C   UNL     1       1.992  -5.760   0.382  0.00  0.00    +0.065 A 
ATOM     25  C   UNL     1       0.602  -5.853   0.314  0.00  0.00    +0.030 A 
ATOM     26  C   UNL     1      -0.171  -4.697   0.207  0.00  0.00    +0.065 A 
ATOM     27  C   UNL     1       0.446  -3.447   0.168  0.00  0.00    +0.026 A 
BRANCH  26  28
ATOM     28  C   UNL     1      -1.643  -4.797   0.134  0.00  0.00    +0.387 C 
ATOM     29  O   UNL     1      -2.316  -3.790   0.040  0.00  0.00    -0.241 OA
ATOM     30  O   UNL     1      -2.239  -6.004   0.172  0.00  0.00    -0.241 OA
ENDBRANCH  26  28
BRANCH  24  31
ATOM     31  C   UNL     1       2.810  -6.985   0.495  0.00  0.00    +0.387 C 
ATOM     32  O   UNL     1       4.020  -6.904   0.554  0.00  0.00    -0.241 OA
ATOM     33  O   UNL     1       2.213  -8.192   0.533  0.00  0.00    -0.241 OA
ENDBRANCH  24  31
ENDBRANCH   4  22
TORSDOF 5
