REMARK  Name = ZINC00242013
REMARK  9 active torsions:
REMARK  status: ('A' for Active; 'I' for Inactive)
REMARK    1  A    between atoms: C_1  and  C_2
REMARK    2  A    between atoms: C_2  and  C_3
REMARK    3  A    between atoms: C_4  and  C_20
REMARK    4  A    between atoms: C_5  and  C_13
REMARK    5  A    between atoms: C_7  and  C_11
REMARK    6  A    between atoms: C_8  and  N_10
REMARK    7  A    between atoms: C_20  and  O_22
REMARK    8  A    between atoms: O_22  and  C_23
REMARK    9  A    between atoms: C_23  and  C_24
REMARK                            x       y       z     vdW  Elec       q    Type
REMARK                         _______ _______ _______ _____ _____    ______ ____
ROOT
ATOM      1  C   UNL     1      -2.050   6.335   1.273  0.00  0.00    +0.118 C 
ATOM      2  C   UNL     1      -0.715   6.242   1.236  0.00  0.00    +0.087 C 
ATOM      3  C   UNL     1       0.014   6.032  -0.063  0.00  0.00    +0.105 C 
ATOM      4  C   UNL     1      -0.898   6.352  -1.216  0.00  0.00    +0.098 C 
ATOM      5  C   UNL     1      -2.238   6.441  -1.035  0.00  0.00    +0.198 C 
ATOM      6  O   UNL     1      -2.805   6.246   0.169  0.00  0.00    -0.445 OA
ENDROOT
BRANCH   3   7
ATOM      7  C   UNL     1       0.460   4.596  -0.161  0.00  0.00    -0.034 A 
ATOM      8  C   UNL     1       1.805   4.296  -0.271  0.00  0.00    +0.007 A 
ATOM      9  C   UNL     1       2.215   2.979  -0.361  0.00  0.00    +0.038 A 
ATOM     10  C   UNL     1       1.278   1.960  -0.340  0.00  0.00    +0.123 A 
ATOM     11  C   UNL     1      -0.069   2.262  -0.235  0.00  0.00    +0.038 A 
ATOM     12  C   UNL     1      -0.476   3.579  -0.139  0.00  0.00    +0.007 A 
ATOM     13  F   UNL     1       1.678   0.673  -0.429  0.00  0.00    -0.205 F 
ENDBRANCH   3   7
BRANCH   5  14
ATOM     14  N   UNL     1      -3.039   6.737  -2.110  0.00  0.00    -0.328 N 
ATOM     15  H   UNL     1      -2.644   6.880  -2.984  0.00  0.00    +0.145 HD
ATOM     16  H   UNL     1      -4.000   6.804  -1.995  0.00  0.00    +0.145 HD
ENDBRANCH   5  14
BRANCH   1  18
ATOM     17  C   UNL     1      -2.695   8.034   2.961  0.00  0.00    +0.012 C 
ATOM     18  C   UNL     1      -2.728   6.547   2.602  0.00  0.00    +0.071 C 
ENDBRANCH   1  18
BRANCH   4  19
ATOM     19  C   UNL     1      -0.344   6.566  -2.519  0.00  0.00    +0.101 C 
ATOM     20  N   UNL     1       0.095   6.737  -3.553  0.00  0.00    -0.191 NA
ENDBRANCH   4  19
BRANCH   2  21
ATOM     21  C   UNL     1       0.023   6.343   2.441  0.00  0.00    +0.339 C 
ATOM     22  O   UNL     1      -0.541   6.641   3.477  0.00  0.00    -0.245 OA
BRANCH  21  23
ATOM     23  O   UNL     1       1.352   6.109   2.439  0.00  0.00    -0.462 OA
BRANCH  23  24
ATOM     24  C   UNL     1       2.033   6.229   3.690  0.00  0.00    +0.229 C 
ATOM     25  C   UNL     1       3.521   5.929   3.491  0.00  0.00    +0.048 C 
ENDBRANCH  23  24
ENDBRANCH  21  23
ENDBRANCH   2  21
TORSDOF 7
