REMARK  Name = ZINC37063763
REMARK  6 active torsions:
REMARK  status: ('A' for Active; 'I' for Inactive)
REMARK    1  A    between atoms: C_1  and  S_2
REMARK    2  A    between atoms: S_2  and  C_3
REMARK    3  A    between atoms: C_6  and  N_9
REMARK    4  A    between atoms: N_9  and  S_10
REMARK    5  A    between atoms: S_10  and  C_13
REMARK    6  A    between atoms: C_14  and  N_21
REMARK                            x       y       z     vdW  Elec       q    Type
REMARK                         _______ _______ _______ _____ _____    ______ ____
ROOT
ATOM      1  S   UNL     1       1.687  -3.146   6.689  0.00  0.00    +0.075 S 
ATOM      2  O   UNL     1       2.230  -3.561   7.935  0.00  0.00    -0.150 OA
ATOM      3  O   UNL     1       0.300  -2.893   6.509  0.00  0.00    -0.150 OA
ENDROOT
BRANCH   1   4
ATOM      4  C   UNL     1       2.130  -4.379   5.511  0.00  0.00    +0.143 A 
ATOM      5  C   UNL     1       1.402  -4.511   4.336  0.00  0.00    +0.054 A 
ATOM      6  C   UNL     1       1.755  -5.484   3.409  0.00  0.00    +0.040 A 
ATOM      7  C   UNL     1       2.829  -6.317   3.659  0.00  0.00    +0.021 A 
ATOM      8  C   UNL     1       3.552  -6.184   4.831  0.00  0.00    +0.032 A 
ATOM      9  C   UNL     1       3.206  -5.212   5.753  0.00  0.00    +0.047 A 
ATOM     10 BR   UNL     1       4.203  -5.027   7.350  0.00  0.00    -0.048 Br
ATOM     11 BR   UNL     1       3.310  -7.642   2.398  0.00  0.00    -0.050 Br
BRANCH   5  12
ATOM     12  N   UNL     1       0.317  -3.668   4.086  0.00  0.00    -0.356 N 
ATOM     13  H   UNL     1       0.227  -2.835   4.576  0.00  0.00    +0.142 HD
ATOM     14  H   UNL     1      -0.347  -3.915   3.424  0.00  0.00    +0.142 HD
ENDBRANCH   5  12
ENDBRANCH   1   4
BRANCH   1  15
ATOM     15  N   UNL     1       2.481  -1.756   6.266  0.00  0.00    -0.216 N 
ATOM     16  H   UNL     1       3.158  -1.386   6.854  0.00  0.00    +0.174 HD
BRANCH  15  20
ATOM     17  C   UNL     1       1.573   0.154   2.673  0.00  0.00    +0.008 A 
ATOM     18  C   UNL     1       1.138   0.695   3.876  0.00  0.00    +0.016 A 
ATOM     19  C   UNL     1       1.438   0.062   5.066  0.00  0.00    +0.025 A 
ATOM     20  C   UNL     1       2.176  -1.115   5.060  0.00  0.00    +0.048 A 
ATOM     21  C   UNL     1       2.611  -1.656   3.857  0.00  0.00    +0.025 A 
ATOM     22  C   UNL     1       2.305  -1.027   2.666  0.00  0.00    +0.016 A 
BRANCH  17  24
ATOM     23  C   UNL     1       0.244   2.424   1.661  0.00  0.00    +0.090 C 
ATOM     24  S   UNL     1       1.190   0.961   1.154  0.00  0.00    -0.129 S 
ENDBRANCH  17  24
ENDBRANCH  15  20
ENDBRANCH   1  15
TORSDOF 5
