REMARK  Name = ZINC01470953
REMARK  8 active torsions:
REMARK  status: ('A' for Active; 'I' for Inactive)
REMARK    1  A    between atoms: C_1  and  O_2
REMARK    2  A    between atoms: O_2  and  C_3
REMARK    3  A    between atoms: C_6  and  N_9
REMARK    4  A    between atoms: N_9  and  S_10
REMARK    5  A    between atoms: S_10  and  C_13
REMARK    6  A    between atoms: C_16  and  N_19
REMARK    7  A    between atoms: N_22  and  C_23
REMARK    8  A    between atoms: C_23  and  C_32
REMARK                            x       y       z     vdW  Elec       q    Type
REMARK                         _______ _______ _______ _____ _____    ______ ____
ROOT
ATOM      1  C   UNL     1       1.792   2.337  -0.041  0.00  0.00    +0.109 A 
ATOM      2  C   UNL     1       2.500   2.338   1.146  0.00  0.00    +0.030 A 
ATOM      3  C   UNL     1       3.784   2.847   1.186  0.00  0.00    +0.025 A 
ATOM      4  C   UNL     1       4.359   3.368   0.035  0.00  0.00    +0.035 A 
ATOM      5  C   UNL     1       3.643   3.370  -1.155  0.00  0.00    +0.025 A 
ATOM      6  C   UNL     1       2.362   2.855  -1.190  0.00  0.00    +0.030 A 
ENDROOT
BRANCH   4   7
ATOM      7  N   UNL     1       5.657   3.890   0.073  0.00  0.00    -0.269 N 
ATOM      8  C   UNL     1       6.475   3.739  -0.987  0.00  0.00    +0.310 C 
ATOM      9  O   UNL     1       6.060   3.225  -2.008  0.00  0.00    -0.252 OA
ATOM     10  N   UNL     1       7.755   4.157  -0.915  0.00  0.00    -0.220 N 
ATOM     11  H   UNL     1       5.967   4.360   0.863  0.00  0.00    +0.156 HD
ATOM     12  H   UNL     1       8.086   4.567  -0.101  0.00  0.00    +0.158 HD
BRANCH  10  13
ATOM     13  C   UNL     1       8.645   3.993  -2.067  0.00  0.00    +0.436 C 
ATOM     14  O   UNL     1       8.072   4.603  -3.240  0.00  0.00    -0.426 OA
ATOM     15  C   UNL     1       7.358   3.614  -3.853  0.00  0.00    +0.169 A 
ATOM     16  C   UNL     1       6.363   3.662  -4.816  0.00  0.00    +0.049 A 
ATOM     17  C   UNL     1       5.791   2.491  -5.278  0.00  0.00    +0.004 A 
ATOM     18  C   UNL     1       6.210   1.271  -4.782  0.00  0.00    +0.004 A 
ATOM     19  C   UNL     1       7.202   1.216  -3.820  0.00  0.00    +0.049 A 
ATOM     20  C   UNL     1       7.779   2.385  -3.352  0.00  0.00    +0.169 A 
ATOM     21  O   UNL     1       8.758   2.603  -2.425  0.00  0.00    -0.426 OA
BRANCH  13  22
ATOM     22  C   UNL     1      10.023   4.585  -1.768  0.00  0.00    +0.490 C 
ATOM     23  F   UNL     1      10.583   3.931  -0.666  0.00  0.00    -0.162 F 
ATOM     24  F   UNL     1      10.854   4.417  -2.881  0.00  0.00    -0.162 F 
ATOM     25  F   UNL     1       9.894   5.949  -1.485  0.00  0.00    -0.162 F 
ENDBRANCH  13  22
ENDBRANCH  10  13
ENDBRANCH   4   7
BRANCH   1  26
ATOM     26  S   UNL     1       0.157   1.682  -0.090  0.00  0.00    +0.072 S 
ATOM     27  O   UNL     1      -0.459   2.212  -1.255  0.00  0.00    -0.150 OA
ATOM     28  O   UNL     1      -0.390   1.859   1.210  0.00  0.00    -0.150 OA
BRANCH  26  29
ATOM     29  N   UNL     1       0.292   0.048  -0.327  0.00  0.00    -0.216 N 
ATOM     30  H   UNL     1      -0.067  -0.355  -1.133  0.00  0.00    +0.174 HD
BRANCH  29  34
ATOM     31  C   UNL     1       2.170  -2.327   2.537  0.00  0.00    +0.120 A 
ATOM     32  C   UNL     1       0.893  -1.839   2.770  0.00  0.00    +0.047 A 
ATOM     33  C   UNL     1       0.270  -1.052   1.822  0.00  0.00    +0.028 A 
ATOM     34  C   UNL     1       0.922  -0.749   0.634  0.00  0.00    +0.048 A 
ATOM     35  C   UNL     1       2.199  -1.243   0.399  0.00  0.00    +0.028 A 
ATOM     36  C   UNL     1       2.823  -2.025   1.351  0.00  0.00    +0.047 A 
BRANCH  31  38
ATOM     37  C   UNL     1       4.097  -3.572   3.164  0.00  0.00    +0.277 C 
ATOM     38  O   UNL     1       2.783  -3.103   3.471  0.00  0.00    -0.495 OA
ENDBRANCH  31  38
ENDBRANCH  29  34
ENDBRANCH  26  29
ENDBRANCH   1  26
TORSDOF 7
