REMARK  Name = ZINC10611910
REMARK  15 active torsions:
REMARK  status: ('A' for Active; 'I' for Inactive)
REMARK    1  A    between atoms: C_1  and  C_2
REMARK    2  A    between atoms: C_2  and  O_3
REMARK    3  A    between atoms: O_3  and  C_4
REMARK    4  A    between atoms: C_4  and  C_6
REMARK    5  A    between atoms: C_10  and  N_11
REMARK    6  A    between atoms: C_12  and  C_14
REMARK    7  A    between atoms: C_14  and  C_16
REMARK    8  A    between atoms: C_14  and  S_17
REMARK    9  A    between atoms: S_17  and  C_18
REMARK   10  A    between atoms: C_21  and  C_28
REMARK   11  A    between atoms: N_22  and  C_23
REMARK   12  A    between atoms: C_23  and  C_24
REMARK   13  A    between atoms: C_24  and  C_25
REMARK   14  A    between atoms: C_25  and  O_26
REMARK   15  A    between atoms: O_26  and  C_27
REMARK                            x       y       z     vdW  Elec       q    Type
REMARK                         _______ _______ _______ _____ _____    ______ ____
ROOT
ATOM      1  C   UNL     1      -0.439   4.118   0.041  0.00  0.00    +0.137 C 
ATOM      2  C   UNL     1       0.329   4.242   1.359  0.00  0.00    +0.029 C 
ENDROOT
BRANCH   1   4
ATOM      3  N   UNL     1      -1.024   6.443  -0.568  0.00  0.00    -0.278 N 
ATOM      4  C   UNL     1      -1.423   5.254  -0.075  0.00  0.00    +0.231 C 
ATOM      5  O   UNL     1      -2.573   5.098   0.275  0.00  0.00    -0.274 OA
ATOM      6  H   UNL     1      -0.103   6.568  -0.848  0.00  0.00    +0.155 HD
BRANCH   3  11
ATOM      7  C   UNL     1      -1.708   8.775  -1.148  0.00  0.00    +0.091 A 
ATOM      8  C   UNL     1      -2.839   9.688  -1.160  0.00  0.00    -0.021 A 
ATOM      9  C   UNL     1      -3.997   9.176  -0.690  0.00  0.00    -0.004 A 
ATOM     10  S   UNL     1      -3.607   7.507  -0.245  0.00  0.00    -0.077 S 
ATOM     11  C   UNL     1      -1.928   7.488  -0.675  0.00  0.00    +0.086 A 
ATOM     12  C   UNL     1      -5.315   9.878  -0.576  0.00  0.00    +0.043 C 
ATOM     13  C   UNL     1      -5.073  11.387  -0.723  0.00  0.00    +0.005 C 
ATOM     14  C   UNL     1      -4.177  11.627  -1.942  0.00  0.00    +0.005 C 
ATOM     15  C   UNL     1      -2.761  11.128  -1.652  0.00  0.00    +0.037 C 
BRANCH   7  16
ATOM     16  C   UNL     1      -0.388   9.196  -1.620  0.00  0.00    +0.342 C 
ATOM     17  O   UNL     1      -0.087   9.055  -2.791  0.00  0.00    -0.245 OA
BRANCH  16  18
ATOM     18  O   UNL     1       0.496   9.738  -0.758  0.00  0.00    -0.461 OA
BRANCH  18  20
ATOM     19  C   UNL     1       2.647  10.722  -0.177  0.00  0.00    +0.048 C 
ATOM     20  C   UNL     1       1.786  10.132  -1.296  0.00  0.00    +0.229 C 
ENDBRANCH  18  20
ENDBRANCH  16  18
ENDBRANCH   7  16
ENDBRANCH   3  11
ENDBRANCH   1   4
BRANCH   1  21
ATOM     21  S   UNL     1      -1.330   2.543   0.007  0.00  0.00    -0.074 S 
BRANCH  21  22
ATOM     22  C   UNL     1       0.030   1.423   0.003  0.00  0.00    +0.193 A 
ATOM     23  N   UNL     1       1.305   1.744   0.016  0.00  0.00    -0.122 NA
ATOM     24  N   UNL     1       2.027   0.681   0.004  0.00  0.00    -0.128 NA
ATOM     25  C   UNL     1       1.259  -0.383  -0.018  0.00  0.00    +0.166 A 
ATOM     26  N   UNL     1      -0.044   0.059  -0.019  0.00  0.00    -0.302 N 
BRANCH  25  27
ATOM     27  C   UNL     1       1.709  -1.791  -0.039  0.00  0.00    +0.037 A 
ATOM     28  C   UNL     1       0.842  -2.810  -0.453  0.00  0.00    +0.014 A 
ATOM     29  C   UNL     1       1.312  -4.111  -0.453  0.00  0.00    +0.020 A 
ATOM     30  C   UNL     1       2.611  -4.362  -0.049  0.00  0.00    +0.111 A 
ATOM     31  N   UNL     1       3.405  -3.382   0.336  0.00  0.00    -0.263 NA
ATOM     32  C   UNL     1       3.006  -2.127   0.349  0.00  0.00    +0.122 A 
ENDBRANCH  25  27
BRANCH  26  33
ATOM     33  C   UNL     1      -1.257  -0.761  -0.039  0.00  0.00    +0.128 C 
BRANCH  33  34
ATOM     34  C   UNL     1      -1.736  -0.929  -1.483  0.00  0.00    +0.050 C 
BRANCH  34  35
ATOM     35  C   UNL     1      -3.003  -1.786  -1.504  0.00  0.00    +0.161 C 
BRANCH  35  36
ATOM     36  O   UNL     1      -3.450  -1.942  -2.852  0.00  0.00    -0.383 OA
ATOM     37  C   UNL     1      -4.635  -2.730  -2.984  0.00  0.00    +0.193 C 
ENDBRANCH  35  36
ENDBRANCH  34  35
ENDBRANCH  33  34
ENDBRANCH  26  33
ENDBRANCH  21  22
ENDBRANCH   1  21
TORSDOF 12
