REMARK  Name = ZINC38547526
REMARK  12 active torsions:
REMARK  status: ('A' for Active; 'I' for Inactive)
REMARK    1  A    between atoms: C_1  and  C_2
REMARK    2  A    between atoms: N_8  and  C_9
REMARK    3  A    between atoms: C_9  and  C_11
REMARK    4  A    between atoms: C_9  and  C_21
REMARK    5  A    between atoms: C_15  and  O_19
REMARK    6  A    between atoms: C_16  and  O_17
REMARK    7  A    between atoms: O_17  and  C_18
REMARK    8  A    between atoms: O_19  and  C_20
REMARK    9  A    between atoms: C_22  and  C_36
REMARK   10  A    between atoms: C_23  and  C_35
REMARK   11  A    between atoms: C_25  and  N_26
REMARK   12  A    between atoms: C_27  and  C_29
REMARK                            x       y       z     vdW  Elec       q    Type
REMARK                         _______ _______ _______ _____ _____    ______ ____
ROOT
ATOM      1  C   UNL     1      -0.131  -1.957   3.521  0.00  0.00    +0.138 C 
ENDROOT
BRANCH   1   9
ATOM      2  C   UNL     1      -2.313  -6.295   5.166  0.00  0.00    +0.044 C 
ATOM      3  C   UNL     1      -1.605  -5.868   3.906  0.00  0.00    -0.046 A 
ATOM      4  C   UNL     1      -1.394  -6.768   2.870  0.00  0.00    +0.021 A 
ATOM      5  C   UNL     1      -0.742  -6.345   1.729  0.00  0.00    +0.084 A 
ATOM      6  N   UNL     1      -0.319  -5.100   1.613  0.00  0.00    -0.350 N 
ATOM      7  C   UNL     1      -0.501  -4.213   2.579  0.00  0.00    +0.097 A 
ATOM      8  C   UNL     1      -1.155  -4.569   3.754  0.00  0.00    +0.045 A 
ATOM      9  N   UNL     1      -0.039  -2.912   2.414  0.00  0.00    -0.319 N 
ATOM     10  H   UNL     1       0.345  -2.637   1.567  0.00  0.00    +0.148 HD
ATOM     11  H   UNL     1       0.136  -4.829   0.801  0.00  0.00    +0.166 HD
ENDBRANCH   1   9
BRANCH   1  12
ATOM     12  C   UNL     1      -1.526  -1.391   3.582  0.00  0.00    +0.009 A 
ATOM     13  C   UNL     1      -2.189  -1.279   4.790  0.00  0.00    -0.033 A 
ATOM     14  C   UNL     1      -3.443  -0.765   4.808  0.00  0.00    -0.008 A 
ATOM     15  S   UNL     1      -3.729  -0.418   3.081  0.00  0.00    -0.078 S 
ATOM     16  C   UNL     1      -2.155  -0.974   2.447  0.00  0.00    +0.078 A 
ATOM     17  C   UNL     1      -4.359  -0.545   5.984  0.00  0.00    +0.052 C 
ATOM     18  C   UNL     1      -1.526  -1.722   6.069  0.00  0.00    +0.045 C 
BRANCH  16  19
ATOM     19  N   UNL     1      -1.691  -0.983   1.130  0.00  0.00    -0.276 N 
ATOM     20  C   UNL     1      -2.426  -0.415   0.153  0.00  0.00    +0.249 C 
ATOM     21  O   UNL     1      -3.445   0.186   0.430  0.00  0.00    -0.270 OA
ATOM     22  H   UNL     1      -0.840  -1.398   0.918  0.00  0.00    +0.156 HD
BRANCH  20  23
ATOM     23  C   UNL     1      -1.991  -0.524  -1.256  0.00  0.00    +0.037 A 
ATOM     24  C   UNL     1      -0.888  -1.311  -1.591  0.00  0.00    +0.013 A 
ATOM     25  C   UNL     1      -0.488  -1.408  -2.908  0.00  0.00    +0.001 A 
ATOM     26  C   UNL     1      -1.178  -0.727  -3.895  0.00  0.00    +0.000 A 
ATOM     27  C   UNL     1      -2.272   0.055  -3.570  0.00  0.00    +0.001 A 
ATOM     28  C   UNL     1      -2.686   0.156  -2.258  0.00  0.00    +0.013 A 
ENDBRANCH  20  23
ENDBRANCH  16  19
ENDBRANCH   1  12
BRANCH   1  29
ATOM     29  C   UNL     1       0.856  -0.839   3.304  0.00  0.00    +0.022 A 
ATOM     30  C   UNL     1       1.241  -0.496   2.020  0.00  0.00    +0.009 A 
ATOM     31  C   UNL     1       2.146   0.528   1.817  0.00  0.00    +0.004 A 
ATOM     32  C   UNL     1       2.670   1.216   2.896  0.00  0.00    +0.049 A 
ATOM     33  C   UNL     1       2.289   0.878   4.184  0.00  0.00    +0.162 A 
ATOM     34  C   UNL     1       1.373  -0.150   4.389  0.00  0.00    +0.167 A 
BRANCH  34  35
ATOM     35  O   UNL     1       0.991  -0.482   5.651  0.00  0.00    -0.491 OA
ATOM     36  C   UNL     1       1.769  -1.473   6.325  0.00  0.00    +0.277 C 
ENDBRANCH  34  35
BRANCH  33  37
ATOM     37  O   UNL     1       2.804   1.553   5.247  0.00  0.00    -0.491 OA
ATOM     38  C   UNL     1       3.734   2.600   4.961  0.00  0.00    +0.277 C 
ENDBRANCH  33  37
ENDBRANCH   1  29
TORSDOF 7
