REMARK  Name = ZINC01221739
REMARK  10 active torsions:
REMARK  status: ('A' for Active; 'I' for Inactive)
REMARK    1  A    between atoms: C_1  and  C_2
REMARK    2  A    between atoms: C_5  and  C_38
REMARK    3  A    between atoms: C_9  and  C_14
REMARK    4  A    between atoms: C_14  and  N_15
REMARK    5  A    between atoms: N_15  and  C_16
REMARK    6  A    between atoms: N_15  and  S_26
REMARK    7  A    between atoms: C_16  and  C_17
REMARK    8  A    between atoms: S_26  and  C_29
REMARK    9  A    between atoms: C_32  and  C_35
REMARK   10  A    between atoms: C_35  and  C_37
REMARK                            x       y       z     vdW  Elec       q    Type
REMARK                         _______ _______ _______ _____ _____    ______ ____
ROOT
ATOM      1  N   UNL     1       6.098  -0.969   0.846  0.00  0.00    -0.168 NA
ENDROOT
BRANCH   1   2
ATOM      2  S   UNL     1       6.873   0.388   0.299  0.00  0.00    +0.061 S 
ATOM      3  O   UNL     1       6.962   0.263  -1.114  0.00  0.00    -0.153 OA
ATOM      4  O   UNL     1       6.244   1.496   0.927  0.00  0.00    -0.153 OA
BRANCH   2   5
ATOM      5  C   UNL     1       8.523   0.330   0.915  0.00  0.00    +0.106 A 
ATOM      6  C   UNL     1       8.843   0.992   2.088  0.00  0.00    +0.029 A 
ATOM      7  C   UNL     1      10.131   0.947   2.579  0.00  0.00    +0.013 A 
ATOM      8  C   UNL     1      11.117   0.239   1.883  0.00  0.00    +0.017 A 
ATOM      9  C   UNL     1      10.786  -0.422   0.696  0.00  0.00    +0.013 A 
ATOM     10  C   UNL     1       9.493  -0.372   0.221  0.00  0.00    +0.029 A 
BRANCH   8  11
ATOM     11  C   UNL     1      12.495   0.190   2.398  0.00  0.00    +0.160 C 
ATOM     12  O   UNL     1      13.346  -0.424   1.793  0.00  0.00    -0.292 OA
ATOM     13  C   UNL     1      12.847   0.904   3.678  0.00  0.00    +0.091 C 
ENDBRANCH   8  11
ENDBRANCH   2   5
ENDBRANCH   1   2
BRANCH   1  14
ATOM     14  C   UNL     1       6.218  -2.229   0.108  0.00  0.00    +0.150 C 
BRANCH  14  23
ATOM     15  C   UNL     1       5.365  -1.145  -4.913  0.00  0.00    +0.044 C 
ATOM     16  C   UNL     1       4.094  -1.736  -4.360  0.00  0.00    -0.041 A 
ATOM     17  C   UNL     1       3.002  -1.891  -5.166  0.00  0.00    +0.004 A 
ATOM     18  C   UNL     1       1.826  -2.433  -4.667  0.00  0.00    +0.005 A 
ATOM     19  C   UNL     1       1.737  -2.826  -3.349  0.00  0.00    -0.026 A 
ATOM     20  C   UNL     1       2.835  -2.677  -2.509  0.00  0.00    +0.052 A 
ATOM     21  C   UNL     1       4.026  -2.127  -3.019  0.00  0.00    +0.002 A 
ATOM     22  C   UNL     1       5.177  -1.974  -2.127  0.00  0.00    +0.020 A 
ATOM     23  C   UNL     1       5.053  -2.371  -0.836  0.00  0.00    +0.033 A 
ATOM     24  C   UNL     1       3.838  -2.923  -0.376  0.00  0.00    +0.254 A 
ATOM     25  O   UNL     1       3.749  -3.277   0.787  0.00  0.00    -0.268 OA
ATOM     26  N   UNL     1       2.774  -3.062  -1.186  0.00  0.00    -0.322 N 
ATOM     27  H   UNL     1       1.953  -3.442  -0.836  0.00  0.00    +0.169 HD
ATOM     28  C   UNL     1       0.454  -3.413  -2.819  0.00  0.00    +0.046 C 
ENDBRANCH  14  23
ENDBRANCH   1  14
BRANCH   1  29
ATOM     29  C   UNL     1       5.292  -0.910   2.068  0.00  0.00    +0.145 C 
BRANCH  29  30
ATOM     30  C   UNL     1       6.128  -1.347   3.243  0.00  0.00    -0.028 A 
ATOM     31  C   UNL     1       6.776  -0.404   4.018  0.00  0.00    +0.009 A 
ATOM     32  C   UNL     1       7.545  -0.800   5.097  0.00  0.00    +0.050 A 
ATOM     33  C   UNL     1       7.667  -2.146   5.404  0.00  0.00    +0.166 A 
ATOM     34  C   UNL     1       7.013  -3.096   4.623  0.00  0.00    +0.167 A 
ATOM     35  C   UNL     1       6.245  -2.692   3.544  0.00  0.00    +0.054 A 
ATOM     36  O   UNL     1       7.288  -4.336   5.125  0.00  0.00    -0.453 OA
ATOM     37  C   UNL     1       7.781  -4.110   6.459  0.00  0.00    +0.466 C 
ATOM     38  O   UNL     1       8.351  -2.790   6.394  0.00  0.00    -0.453 OA
ENDBRANCH  29  30
ENDBRANCH   1  29
TORSDOF 7
