REMARK  Name = ZINC09550298
REMARK  9 active torsions:
REMARK  status: ('A' for Active; 'I' for Inactive)
REMARK    1  A    between atoms: C_1  and  C_2
REMARK    2  A    between atoms: C_2  and  C_3
REMARK    3  A    between atoms: C_3  and  C_4
REMARK    4  A    between atoms: C_6  and  C_10
REMARK    5  A    between atoms: C_8  and  C_9
REMARK    6  A    between atoms: N_15  and  C_18
REMARK    7  A    between atoms: C_27  and  C_32
REMARK    8  A    between atoms: N_29  and  C_30
REMARK    9  A    between atoms: C_30  and  C_31
REMARK                            x       y       z     vdW  Elec       q    Type
REMARK                         _______ _______ _______ _____ _____    ______ ____
ROOT
ATOM      1  C   UNL     1      -6.491   0.991  -0.031  0.00  0.00    +0.253 C 
ATOM      2  O   UNL     1      -7.060   0.747  -1.079  0.00  0.00    -0.269 OA
ATOM      3  N   UNL     1      -5.162   1.217  -0.022  0.00  0.00    -0.294 N 
ATOM      4  C   UNL     1      -4.479   1.655   1.204  0.00  0.00    +0.127 C 
ATOM      5  C   UNL     1      -3.641   2.896   0.879  0.00  0.00    +0.124 C 
ATOM      6  N   UNL     1      -2.754   2.600  -0.255  0.00  0.00    -0.325 N 
ATOM      7  C   UNL     1      -3.524   2.297  -1.469  0.00  0.00    +0.124 C 
ATOM      8  C   UNL     1      -4.357   1.032  -1.239  0.00  0.00    +0.127 C 
ENDROOT
BRANCH   6   9
ATOM      9  C   UNL     1      -1.863   3.647  -0.477  0.00  0.00    +0.067 A 
ATOM     10  C   UNL     1      -2.347   4.912  -0.770  0.00  0.00    +0.052 A 
ATOM     11  C   UNL     1      -1.459   5.956  -0.999  0.00  0.00    +0.055 A 
ATOM     12  C   UNL     1      -0.076   5.710  -0.921  0.00  0.00    +0.049 A 
ATOM     13  C   UNL     1       0.398   4.431  -0.618  0.00  0.00    +0.054 A 
ATOM     14  C   UNL     1      -0.487   3.415  -0.397  0.00  0.00    +0.145 A 
ATOM     15  F   UNL     1      -0.030   2.177  -0.104  0.00  0.00    -0.204 F 
ATOM     16  C   UNL     1       0.853   6.826  -1.165  0.00  0.00    +0.204 A 
ATOM     17  O   UNL     1       2.061   6.670  -1.111  0.00  0.00    -0.286 OA
ATOM     18  C   UNL     1       0.262   8.138  -1.478  0.00  0.00    +0.126 A 
ATOM     19  C   UNL     1      -1.111   8.257  -1.526  0.00  0.00    +0.105 A 
ATOM     20  N   UNL     1      -1.926   7.219  -1.298  0.00  0.00    -0.346 N 
BRANCH  18  21
ATOM     21  C   UNL     1       1.122   9.302  -1.734  0.00  0.00    +0.392 C 
ATOM     22  O   UNL     1       2.331   9.186  -1.688  0.00  0.00    -0.240 OA
ATOM     23  O   UNL     1       0.570  10.498  -2.019  0.00  0.00    -0.240 OA
ENDBRANCH  18  21
BRANCH  20  24
ATOM     24  C   UNL     1      -3.373   7.433  -1.369  0.00  0.00    +0.118 C 
ATOM     25  C   UNL     1      -3.917   7.711   0.034  0.00  0.00    +0.027 C 
ENDBRANCH  20  24
ENDBRANCH   6   9
BRANCH   1  28
ATOM     26  C   UNL     1      -9.072   1.180   2.706  0.00  0.00    -0.037 A 
ATOM     27  C   UNL     1      -8.618   1.162   1.410  0.00  0.00    +0.024 A 
ATOM     28  C   UNL     1      -7.250   1.038   1.222  0.00  0.00    +0.075 A 
ATOM     29  S   UNL     1      -6.656   0.944   2.902  0.00  0.00    -0.089 S 
ATOM     30  C   UNL     1      -8.177   1.077   3.723  0.00  0.00    -0.009 A 
ATOM     31  C   UNL     1      -8.443   1.073   5.207  0.00  0.00    +0.052 C 
BRANCH  26  32
ATOM     32  C   UNL     1     -10.545   1.311   2.996  0.00  0.00    +0.036 C 
BRANCH  32  34
ATOM     33  C   UNL     1     -12.382   2.915   3.540  0.00  0.00    +0.004 C 
ATOM     34  C   UNL     1     -10.886   2.782   3.245  0.00  0.00    +0.001 C 
ENDBRANCH  32  34
ENDBRANCH  26  32
ENDBRANCH   1  28
TORSDOF 6
