REMARK  Name = ZINC08789082
REMARK  11 active torsions:
REMARK  status: ('A' for Active; 'I' for Inactive)
REMARK    1  A    between atoms: C_1  and  C_2
REMARK    2  A    between atoms: C_2  and  C_4
REMARK    3  A    between atoms: C_10  and  C_39
REMARK    4  A    between atoms: C_20  and  C_38
REMARK    5  A    between atoms: C_23  and  O_26
REMARK    6  A    between atoms: O_26  and  C_27
REMARK    7  A    between atoms: C_27  and  C_29
REMARK    8  A    between atoms: C_29  and  C_30
REMARK    9  A    between atoms: C_30  and  N_84
REMARK   10  A    between atoms: C_34  and  C_36
REMARK   11  A    between atoms: C_34  and  C_37
REMARK                            x       y       z     vdW  Elec       q    Type
REMARK                         _______ _______ _______ _____ _____    ______ ____
ROOT
ATOM      1  C   UNL     1       0.056   0.841   0.643  0.00  0.00    +0.061 C 
ATOM      2  C   UNL     1       0.371   2.153  -0.125  0.00  0.00    +0.012 C 
ATOM      3  C   UNL     1       1.505   1.812  -1.124  0.00  0.00    +0.005 C 
ATOM      4  C   UNL     1       1.745   0.315  -0.966  0.00  0.00    -0.001 C 
ATOM      5  C   UNL     1       1.359   0.045   0.513  0.00  0.00    -0.019 C 
ATOM      6  C   UNL     1       1.230  -1.459   0.687  0.00  0.00    +0.008 C 
ATOM      7  C   UNL     1       2.623  -2.062   0.450  0.00  0.00    +0.005 C 
ATOM      8  C   UNL     1       3.166  -1.708  -0.932  0.00  0.00    +0.003 C 
ATOM      9  C   UNL     1       3.166  -0.191  -1.172  0.00  0.00    +0.000 C 
ATOM     10  C   UNL     1       3.571   0.042  -2.649  0.00  0.00    +0.031 C 
ATOM     11  C   UNL     1       4.912  -0.591  -2.882  0.00  0.00    -0.027 C 
ATOM     12  C   UNL     1       5.346  -1.606  -2.196  0.00  0.00    -0.064 C 
ATOM     13  C   UNL     1       4.573  -2.260  -1.089  0.00  0.00    -0.008 C 
ATOM     14  C   UNL     1       4.517  -3.768  -1.347  0.00  0.00    +0.015 C 
ATOM     15  C   UNL     1       5.939  -4.306  -1.520  0.00  0.00    +0.046 C 
ATOM     16  C   UNL     1       6.587  -3.663  -2.748  0.00  0.00    +0.180 C 
ATOM     17  C   UNL     1       6.724  -2.155  -2.522  0.00  0.00    +0.075 C 
ATOM     18  C   UNL     1       5.327  -2.028   0.222  0.00  0.00    +0.016 C 
ATOM     19  C   UNL     1       2.425   0.603   1.458  0.00  0.00    +0.012 C 
ENDROOT
BRANCH   1  21
ATOM     20  C   UNL     1      -1.000   0.114   2.917  0.00  0.00    +0.086 C 
ATOM     21  C   UNL     1      -0.252   1.128   2.091  0.00  0.00    +0.134 C 
ATOM     22  O   UNL     1       0.101   2.170   2.588  0.00  0.00    -0.297 OA
ENDBRANCH   1  21
BRANCH  16  23
ATOM     23  O   UNL     1       7.902  -4.242  -2.959  0.00  0.00    -0.461 OA
BRANCH  23  24
ATOM     24  C   UNL     1       8.346  -4.299  -4.225  0.00  0.00    +0.306 C 
ATOM     25  O   UNL     1       7.659  -3.880  -5.126  0.00  0.00    -0.251 OA
BRANCH  24  26
ATOM     26  C   UNL     1       9.702  -4.887  -4.522  0.00  0.00    +0.102 C 
BRANCH  26  27
ATOM     27  C   UNL     1       9.963  -4.832  -6.028  0.00  0.00    -0.068 C 
BRANCH  27  35
ATOM     28  C   UNL     1      11.315  -6.840  -6.010  0.00  0.00    -0.079 C 
ATOM     29  C   UNL     1      12.653  -7.431  -6.458  0.00  0.00    -0.018 C 
ATOM     30  C   UNL     1      13.793  -6.710  -5.732  0.00  0.00    +0.003 C 
ATOM     31  C   UNL     1      13.709  -5.211  -6.030  0.00  0.00    -0.050 C 
ATOM     32  C   UNL     1      12.340  -4.684  -5.594  0.00  0.00    -0.072 C 
ATOM     33  C   UNL     1      13.892  -4.978  -7.531  0.00  0.00    +0.009 C 
ATOM     34  C   UNL     1      14.809  -4.475  -5.261  0.00  0.00    +0.009 C 
ATOM     35  N   UNL     1      11.289  -5.401  -6.347  0.00  0.00    +0.380 N 
ATOM     36  H   UNL     1      11.466  -5.291  -7.353  0.00  0.00    -0.082 HD
ENDBRANCH  27  35
ENDBRANCH  26  27
ENDBRANCH  24  26
ENDBRANCH  23  24
ENDBRANCH  16  23
TORSDOF 6
