REMARK  Name = ZINC12698380
REMARK  7 active torsions:
REMARK  status: ('A' for Active; 'I' for Inactive)
REMARK    1  A    between atoms: C_1  and  C_2
REMARK    2  A    between atoms: C_5  and  C_8
REMARK    3  A    between atoms: N_14  and  C_15
REMARK    4  A    between atoms: C_15  and  C_16
REMARK    5  A    between atoms: C_16  and  C_17
REMARK    6  A    between atoms: N_19  and  N_20
REMARK    7  A    between atoms: C_21  and  C_23
REMARK                            x       y       z     vdW  Elec       q    Type
REMARK                         _______ _______ _______ _____ _____    ______ ____
ROOT
ATOM      1  C   UNL     1       4.314   5.757  -0.027  0.00  0.00    +0.231 C 
ATOM      2  O   UNL     1       5.258   4.994  -0.020  0.00  0.00    -0.274 OA
ATOM      3  N   UNL     1       3.057   5.272  -0.026  0.00  0.00    -0.234 N 
ATOM      4  H   UNL     1       2.302   5.882  -0.031  0.00  0.00    +0.173 HD
ENDROOT
BRANCH   3   5
ATOM      5  N   UNL     1       2.839   3.889  -0.017  0.00  0.00    -0.230 N 
ATOM      6  C   UNL     1       1.581   3.404  -0.016  0.00  0.00    +0.267 C 
ATOM      7  O   UNL     1       0.634   4.169  -0.023  0.00  0.00    -0.268 OA
ATOM      8  H   UNL     1       3.593   3.279  -0.012  0.00  0.00    +0.173 HD
BRANCH   6   9
ATOM      9  C   UNL     1       1.353   1.956  -0.007  0.00  0.00    +0.076 A 
ATOM     10  C   UNL     1       0.163   1.262  -0.004  0.00  0.00    +0.024 A 
ATOM     11  C   UNL     1       0.211  -0.134  -0.008  0.00  0.00    -0.036 A 
ATOM     12  C   UNL     1       1.431  -0.706   0.045  0.00  0.00    -0.006 A 
ATOM     13  S   UNL     1       2.541   0.629   0.004  0.00  0.00    -0.088 S 
ATOM     14  C   UNL     1       1.886  -2.134   0.193  0.00  0.00    +0.043 C 
ATOM     15  C   UNL     1       0.713  -3.107   0.320  0.00  0.00    +0.005 C 
ATOM     16  C   UNL     1       0.112  -3.409  -1.043  0.00  0.00    +0.000 C 
ATOM     17  C   UNL     1       0.084  -2.196  -1.952  0.00  0.00    +0.000 C 
ATOM     18  C   UNL     1      -1.186  -1.409  -1.612  0.00  0.00    +0.005 C 
ATOM     19  C   UNL     1      -1.088  -0.910  -0.170  0.00  0.00    +0.036 C 
ENDBRANCH   6   9
ENDBRANCH   3   5
BRANCH   1  20
ATOM     20  C   UNL     1       4.549   7.245  -0.036  0.00  0.00    +0.119 C 
BRANCH  20  21
ATOM     21  C   UNL     1       6.053   7.525  -0.036  0.00  0.00    +0.135 C 
BRANCH  21  28
ATOM     22  C   UNL     1       6.495   9.750  -1.166  0.00  0.00    +0.163 A 
ATOM     23  N   UNL     1       6.654  10.987  -0.787  0.00  0.00    -0.153 NA
ATOM     24  N   UNL     1       6.553  11.030   0.610  0.00  0.00    -0.254 N 
ATOM     25  H   UNL     1       6.634  11.820   1.167  0.00  0.00    +0.191 HD
ATOM     26  C   UNL     1       6.322   9.772   1.039  0.00  0.00    +0.176 A 
ATOM     27  S   UNL     1       6.119   9.280   2.666  0.00  0.00    -0.011 S 
ATOM     28  N   UNL     1       6.281   8.972  -0.045  0.00  0.00    -0.303 N 
BRANCH  22  33
ATOM     29  C   UNL     1       6.651   7.851  -6.597  0.00  0.00    +0.044 C 
ATOM     30  C   UNL     1       6.610   8.348  -5.175  0.00  0.00    -0.050 A 
ATOM     31  C   UNL     1       7.212   9.550  -4.848  0.00  0.00    +0.004 A 
ATOM     32  C   UNL     1       7.178  10.011  -3.548  0.00  0.00    +0.012 A 
ATOM     33  C   UNL     1       6.535   9.262  -2.562  0.00  0.00    +0.019 A 
ATOM     34  C   UNL     1       5.935   8.048  -2.897  0.00  0.00    +0.012 A 
ATOM     35  C   UNL     1       5.971   7.601  -4.202  0.00  0.00    +0.004 A 
ENDBRANCH  22  33
ENDBRANCH  21  28
ENDBRANCH  20  21
ENDBRANCH   1  20
TORSDOF 6
