REMARK  Name = ZINC09299612
REMARK  9 active torsions:
REMARK  status: ('A' for Active; 'I' for Inactive)
REMARK    1  A    between atoms: C_1  and  O_2
REMARK    2  A    between atoms: O_2  and  C_3
REMARK    3  A    between atoms: C_3  and  C_5
REMARK    4  A    between atoms: C_5  and  C_6
REMARK    5  A    between atoms: C_6  and  N_7
REMARK    6  A    between atoms: C_11  and  S_26
REMARK    7  A    between atoms: N_16  and  C_17
REMARK    8  A    between atoms: C_17  and  C_19
REMARK    9  A    between atoms: S_26  and  N_29
REMARK                            x       y       z     vdW  Elec       q    Type
REMARK                         _______ _______ _______ _____ _____    ______ ____
ROOT
ATOM      1  N   UNL     1       3.519  -4.966  -0.057  0.00  0.00    -0.321 N 
ATOM      2  C   UNL     1       3.344  -6.338  -0.062  0.00  0.00    +0.058 A 
ATOM      3  C   UNL     1       4.326  -7.341  -0.076  0.00  0.00    +0.029 A 
ATOM      4  C   UNL     1       3.974  -8.669  -0.080  0.00  0.00    +0.030 A 
ATOM      5  C   UNL     1       2.645  -9.060  -0.069  0.00  0.00    +0.106 A 
ATOM      6  C   UNL     1       1.656  -8.092  -0.054  0.00  0.00    +0.045 A 
ATOM      7  C   UNL     1       2.008  -6.763  -0.051  0.00  0.00    +0.041 A 
ATOM      8  S   UNL     1       1.096  -5.240  -0.027  0.00  0.00    -0.052 S 
ATOM      9  C   UNL     1       2.438  -4.141  -0.043  0.00  0.00    +0.167 A 
ATOM     10  N   UNL     1       2.415  -2.813  -0.036  0.00  0.00    -0.152 NA
ENDROOT
BRANCH   5  11
ATOM     11  S   UNL     1       2.219 -10.769  -0.073  0.00  0.00    +0.056 S 
ATOM     12  O   UNL     1       0.907 -10.859  -0.611  0.00  0.00    -0.153 OA
ATOM     13  O   UNL     1       3.323 -11.462  -0.639  0.00  0.00    -0.153 OA
BRANCH  11  14
ATOM     14  N   UNL     1       2.116 -11.253   1.508  0.00  0.00    -0.204 NA
ATOM     15  H   UNL     1       2.283 -10.617   2.221  0.00  0.00    +0.144 HD
ATOM     16  H   UNL     1       1.889 -12.171   1.720  0.00  0.00    +0.144 HD
ENDBRANCH  11  14
ENDBRANCH   5  11
BRANCH  10  17
ATOM     17  C   UNL     1       1.246  -2.164  -0.021  0.00  0.00    +0.270 C 
ATOM     18  O   UNL     1       0.201  -2.792  -0.014  0.00  0.00    -0.268 OA
BRANCH  17  19
ATOM     19  C   UNL     1       1.220  -0.683  -0.013  0.00  0.00    +0.042 A 
ATOM     20  C   UNL     1       0.002  -0.004   0.002  0.00  0.00    +0.013 A 
ATOM     21  C   UNL     1      -0.017   1.375   0.010  0.00  0.00    +0.004 A 
ATOM     22  C   UNL     1       1.170   2.087   0.002  0.00  0.00    +0.038 A 
ATOM     23  C   UNL     1       2.384   1.419  -0.013  0.00  0.00    +0.124 A 
ATOM     24  C   UNL     1       2.414   0.037  -0.021  0.00  0.00    +0.051 A 
ATOM     25  F   UNL     1       3.539   2.120  -0.021  0.00  0.00    -0.205 F 
ENDBRANCH  17  19
ENDBRANCH  10  17
BRANCH   1  26
ATOM     26  C   UNL     1       4.870  -4.401  -0.068  0.00  0.00    +0.135 C 
BRANCH  26  27
ATOM     27  C   UNL     1       5.356  -4.212   1.371  0.00  0.00    +0.142 C 
BRANCH  27  28
ATOM     28  C   UNL     1       6.746  -3.630   1.360  0.00  0.00    +0.309 C 
ATOM     29  O   UNL     1       7.293  -3.392   0.309  0.00  0.00    -0.251 OA
BRANCH  28  31
ATOM     30  C   UNL     1       8.714  -2.817   2.430  0.00  0.00    +0.280 C 
ATOM     31  O   UNL     1       7.377  -3.377   2.517  0.00  0.00    -0.468 OA
ENDBRANCH  28  31
ENDBRANCH  27  28
ENDBRANCH  26  27
ENDBRANCH   1  26
TORSDOF 8
