REMARK  Name = ZINC39675794
REMARK  13 active torsions:
REMARK  status: ('A' for Active; 'I' for Inactive)
REMARK    1  A    between atoms: C_1  and  C_2
REMARK    2  A    between atoms: C_2  and  C_3
REMARK    3  A    between atoms: C_3  and  C_4
REMARK    4  A    between atoms: C_4  and  C_5
REMARK    5  A    between atoms: C_5  and  C_6
REMARK    6  A    between atoms: C_6  and  C_7
REMARK    7  A    between atoms: C_11  and  C_20
REMARK    8  A    between atoms: N_22  and  C_23
REMARK    9  A    between atoms: C_23  and  C_24
REMARK   10  A    between atoms: C_24  and  C_26
REMARK   11  A    between atoms: C_24  and  N_32
REMARK   12  A    between atoms: N_32  and  C_33
REMARK   13  A    between atoms: N_32  and  C_34
REMARK                            x       y       z     vdW  Elec       q    Type
REMARK                         _______ _______ _______ _____ _____    ______ ____
ROOT
ATOM      1  C   UNL     1      -4.495  -4.561   1.571  0.00  0.00    +0.216 C 
ATOM      2  O   UNL     1      -5.450  -3.851   1.807  0.00  0.00    -0.276 OA
ATOM      3  N   UNL     1      -4.666  -5.888   1.408  0.00  0.00    -0.300 N 
ATOM      4  C   UNL     1      -3.631  -6.909   1.123  0.00  0.00    +0.121 C 
ATOM      5  C   UNL     1      -4.044  -8.132   1.973  0.00  0.00    +0.100 C 
ATOM      6  C   UNL     1      -5.556  -7.961   2.197  0.00  0.00    -0.004 C 
ATOM      7  C   UNL     1      -5.932  -6.657   1.479  0.00  0.00    +0.115 C 
ATOM      8  C   UNL     1      -6.316  -9.137   1.591  0.00  0.00    -0.010 C 
ATOM      9  C   UNL     1      -7.812  -8.973   1.877  0.00  0.00    -0.082 C 
ATOM     10  N   UNL     1      -8.031  -8.918   3.328  0.00  0.00    +0.379 N 
ATOM     11  C   UNL     1      -7.373  -7.731   3.888  0.00  0.00    -0.082 C 
ATOM     12  C   UNL     1      -5.859  -7.842   3.687  0.00  0.00    -0.010 C 
ATOM     13  H   UNL     1      -9.022  -8.871   3.515  0.00  0.00    -0.086 HD
ATOM     14  H   UNL     1      -7.649  -9.747   3.757  0.00  0.00    -0.086 HD
ENDROOT
BRANCH   5  15
ATOM     15  C   UNL     1      -3.763  -9.410   1.225  0.00  0.00    +0.218 C 
ATOM     16  O   UNL     1      -3.824  -9.429   0.013  0.00  0.00    -0.275 OA
ATOM     17  N   UNL     1      -3.445 -10.531   1.901  0.00  0.00    -0.316 N 
ATOM     18  H   UNL     1      -3.397 -10.515   2.870  0.00  0.00    +0.149 HD
BRANCH  17  19
ATOM     19  C   UNL     1      -3.172 -11.773   1.174  0.00  0.00    +0.093 C 
BRANCH  19  20
ATOM     20  C   UNL     1      -2.961 -12.913   2.173  0.00  0.00    -0.021 C 
BRANCH  20  21
ATOM     21  C   UNL     1      -4.236 -13.153   2.938  0.00  0.00    -0.059 A 
ATOM     22  C   UNL     1      -5.255 -13.894   2.369  0.00  0.00    +0.002 A 
ATOM     23  C   UNL     1      -6.425 -14.115   3.071  0.00  0.00    +0.000 A 
ATOM     24  C   UNL     1      -6.576 -13.594   4.343  0.00  0.00    +0.000 A 
ATOM     25  C   UNL     1      -5.558 -12.854   4.913  0.00  0.00    +0.000 A 
ATOM     26  C   UNL     1      -4.386 -12.637   4.212  0.00  0.00    +0.002 A 
ENDBRANCH  20  21
BRANCH  20  27
ATOM     27  N   UNL     1      -2.586 -14.135   1.449  0.00  0.00    +0.382 N 
ATOM     28  C   UNL     1      -1.321 -13.914   0.737  0.00  0.00    -0.096 C 
ATOM     29  C   UNL     1      -2.424 -15.239   2.404  0.00  0.00    -0.096 C 
ATOM     30  H   UNL     1      -3.310 -14.368   0.785  0.00  0.00    -0.082 HD
ENDBRANCH  20  27
ENDBRANCH  19  20
ENDBRANCH  17  19
ENDBRANCH   5  15
BRANCH   1  31
ATOM     31  C   UNL     1      -3.118  -3.960   1.461  0.00  0.00    +0.096 C 
BRANCH  31  32
ATOM     32  C   UNL     1      -3.201  -2.449   1.687  0.00  0.00    +0.009 C 
BRANCH  32  33
ATOM     33  C   UNL     1      -1.803  -1.839   1.575  0.00  0.00    +0.000 C 
BRANCH  33  34
ATOM     34  C   UNL     1      -1.886  -0.328   1.801  0.00  0.00    -0.000 C 
BRANCH  34  36
ATOM     35  C   UNL     1      -0.571   1.794   1.915  0.00  0.00    +0.004 C 
ATOM     36  C   UNL     1      -0.488   0.283   1.689  0.00  0.00    -0.003 C 
ENDBRANCH  34  36
ENDBRANCH  33  34
ENDBRANCH  32  33
ENDBRANCH  31  32
ENDBRANCH   1  31
TORSDOF 10
