REMARK  Name = ZINC16838201
REMARK  9 active torsions:
REMARK  status: ('A' for Active; 'I' for Inactive)
REMARK    1  A    between atoms: C_1  and  C_2
REMARK    2  A    between atoms: C_2  and  O_3
REMARK    3  A    between atoms: O_3  and  C_4
REMARK    4  A    between atoms: C_9  and  C_10
REMARK    5  A    between atoms: N_12  and  C_13
REMARK    6  A    between atoms: C_13  and  C_14
REMARK    7  A    between atoms: C_14  and  C_16
REMARK    8  A    between atoms: C_14  and  N_63
REMARK    9  A    between atoms: N_25  and  C_26
REMARK                            x       y       z     vdW  Elec       q    Type
REMARK                         _______ _______ _______ _____ _____    ______ ____
ROOT
ATOM      1  C   UNL     1       3.400  -2.245   4.423  0.00  0.00    -0.020 C 
ENDROOT
BRANCH   1   2
ATOM      2  C   UNL     1       2.540  -1.796   3.269  0.00  0.00    -0.059 A 
ATOM      3  C   UNL     1       1.665  -2.684   2.670  0.00  0.00    +0.004 A 
ATOM      4  C   UNL     1       0.882  -2.272   1.614  0.00  0.00    +0.023 A 
ATOM      5  C   UNL     1       0.964  -0.961   1.143  0.00  0.00    +0.033 A 
ATOM      6  C   UNL     1       1.837  -0.074   1.749  0.00  0.00    -0.026 A 
ATOM      7  C   UNL     1       2.624  -0.497   2.809  0.00  0.00    +0.007 A 
ATOM      8  C   UNL     1       1.966   1.358   1.295  0.00  0.00    +0.038 C 
ATOM      9  C   UNL     1       1.328   1.519  -0.087  0.00  0.00    +0.024 C 
ATOM     10  C   UNL     1      -0.046   0.839  -0.055  0.00  0.00    +0.105 C 
ATOM     11  N   UNL     1       0.149  -0.607   0.068  0.00  0.00    -0.333 N 
ATOM     12  C   UNL     1      -1.139  -1.310   0.131  0.00  0.00    +0.129 C 
ENDBRANCH   1   2
BRANCH   1  17
ATOM     13  C   UNL     1       4.702  -3.651   2.921  0.00  0.00    -0.078 C 
ATOM     14  C   UNL     1       5.539  -4.944   3.091  0.00  0.00    -0.020 C 
ATOM     15  C   UNL     1       5.868  -4.947   4.601  0.00  0.00    -0.020 C 
ATOM     16  C   UNL     1       4.792  -4.056   5.249  0.00  0.00    -0.078 C 
ATOM     17  N   UNL     1       3.912  -3.624   4.162  0.00  0.00    +0.385 N 
ATOM     18  H   UNL     1       3.117  -4.269   4.082  0.00  0.00    -0.081 HD
ENDBRANCH   1  17
BRANCH   1  19
ATOM     19  C   UNL     1       2.572  -2.237   5.709  0.00  0.00    +0.094 C 
BRANCH  19  22
ATOM     20  C   UNL     1       1.366  -0.619   7.074  0.00  0.00    +0.248 C 
ATOM     21  O   UNL     1       0.938  -1.542   7.740  0.00  0.00    -0.270 OA
ATOM     22  N   UNL     1       2.190  -0.861   6.036  0.00  0.00    -0.312 N 
ATOM     23  H   UNL     1       2.531  -0.124   5.505  0.00  0.00    +0.149 HD
BRANCH  20  29
ATOM     24  C   UNL     1       0.124   1.024   8.482  0.00  0.00    +0.133 A 
ATOM     25  C   UNL     1      -0.230   2.331   8.783  0.00  0.00    +0.046 A 
ATOM     26  C   UNL     1       0.261   3.373   8.022  0.00  0.00    +0.004 A 
ATOM     27  C   UNL     1       1.108   3.124   6.955  0.00  0.00    +0.001 A 
ATOM     28  C   UNL     1       1.474   1.832   6.645  0.00  0.00    +0.017 A 
ATOM     29  C   UNL     1       0.981   0.767   7.403  0.00  0.00    +0.078 A 
BRANCH  24  30
ATOM     30  O   UNL     1      -0.357  -0.002   9.229  0.00  0.00    -0.491 OA
BRANCH  30  32
ATOM     31  C   UNL     1      -1.662  -0.940  11.033  0.00  0.00    +0.048 C 
ATOM     32  C   UNL     1      -1.225   0.337  10.312  0.00  0.00    +0.226 C 
ENDBRANCH  30  32
ENDBRANCH  24  30
ENDBRANCH  20  29
ENDBRANCH  19  22
ENDBRANCH   1  19
TORSDOF 7
