REMARK  Name = ZINC01075168
REMARK  7 active torsions:
REMARK  status: ('A' for Active; 'I' for Inactive)
REMARK    1  A    between atoms: C_1  and  C_2
REMARK    2  A    between atoms: C_2  and  N_3
REMARK    3  A    between atoms: C_4  and  C_23
REMARK    4  A    between atoms: C_5  and  C_19
REMARK    5  A    between atoms: C_6  and  C_11
REMARK    6  A    between atoms: C_19  and  O_21
REMARK    7  A    between atoms: O_21  and  C_22
REMARK                            x       y       z     vdW  Elec       q    Type
REMARK                         _______ _______ _______ _____ _____    ______ ____
ROOT
ATOM      1  N   UNL     1       3.607   2.103   0.136  0.00  0.00    -0.259 N 
ATOM      2  C   UNL     1       2.538   1.365  -0.286  0.00  0.00    +0.024 C 
ATOM      3  C   UNL     1       1.329   1.934  -0.478  0.00  0.00    +0.078 C 
ATOM      4  C   UNL     1       1.200   3.421  -0.215  0.00  0.00    +0.145 C 
ATOM      5  N   UNL     1       2.411   4.125   0.241  0.00  0.00    -0.288 N 
ATOM      6  C   UNL     1       3.548   3.417   0.387  0.00  0.00    +0.307 C 
ATOM      7  O   UNL     1       4.554   3.990   0.759  0.00  0.00    -0.252 OA
ATOM      8  C   UNL     1       2.712  -0.110  -0.542  0.00  0.00    +0.061 C 
ATOM      9  H   UNL     1       2.391   5.077   0.429  0.00  0.00    +0.151 HD
ENDROOT
BRANCH   4  10
ATOM     10  C   UNL     1       0.727   4.078  -1.485  0.00  0.00    -0.004 A 
ATOM     11  C   UNL     1       0.849   3.417  -2.693  0.00  0.00    +0.008 A 
ATOM     12  C   UNL     1       0.415   4.019  -3.859  0.00  0.00    +0.020 A 
ATOM     13  C   UNL     1      -0.143   5.285  -3.818  0.00  0.00    +0.042 A 
ATOM     14  C   UNL     1      -0.265   5.947  -2.610  0.00  0.00    +0.040 A 
ATOM     15  C   UNL     1       0.164   5.341  -1.443  0.00  0.00    +0.048 A 
ATOM     16 CL   UNL     1       0.003   6.169   0.075  0.00  0.00    -0.083 Cl
ATOM     17 CL   UNL     1      -0.688   6.041  -5.282  0.00  0.00    -0.083 Cl
ENDBRANCH   4  10
BRANCH   1  19
ATOM     18  C   UNL     1       5.614   1.319  -1.020  0.00  0.00    +0.025 C 
ATOM     19  C   UNL     1       4.889   1.420   0.323  0.00  0.00    +0.111 C 
ENDBRANCH   1  19
BRANCH   3  20
ATOM     20  C   UNL     1       0.222   1.170  -0.914  0.00  0.00    +0.339 C 
ATOM     21  O   UNL     1       0.374   0.008  -1.239  0.00  0.00    -0.245 OA
BRANCH  20  22
ATOM     22  O   UNL     1      -1.004   1.733  -0.977  0.00  0.00    -0.465 OA
ATOM     23  C   UNL     1      -2.075   0.904  -1.433  0.00  0.00    +0.280 C 
ENDBRANCH  20  22
ENDBRANCH   3  20
TORSDOF 4
