REMARK  Name = ZINC13029247
REMARK  16 active torsions:
REMARK  status: ('A' for Active; 'I' for Inactive)
REMARK    1  A    between atoms: C_1  and  C_2
REMARK    2  A    between atoms: C_2  and  O_3
REMARK    3  A    between atoms: O_3  and  C_4
REMARK    4  A    between atoms: C_7  and  C_12
REMARK    5  A    between atoms: C_9  and  O_10
REMARK    6  A    between atoms: O_10  and  C_11
REMARK    7  A    between atoms: C_12  and  C_14
REMARK    8  A    between atoms: C_12  and  N_21
REMARK    9  A    between atoms: N_16  and  C_17
REMARK   10  A    between atoms: C_17  and  C_18
REMARK   11  A    between atoms: C_17  and  C_19
REMARK   12  A    between atoms: C_17  and  C_20
REMARK   13  A    between atoms: N_21  and  C_22
REMARK   14  A    between atoms: C_25  and  C_28
REMARK   15  A    between atoms: C_29  and  C_31
REMARK   16  A    between atoms: C_31  and  N_32
REMARK                            x       y       z     vdW  Elec       q    Type
REMARK                         _______ _______ _______ _____ _____    ______ ____
ROOT
ATOM      1  C   UNL     1      -5.970   3.343  -3.130  0.00  0.00    +0.197 C 
ENDROOT
BRANCH   1   5
ATOM      2  C   UNL     1      -7.455  -0.567  -4.021  0.00  0.00    +0.162 A 
ATOM      3  C   UNL     1      -7.789   0.048  -2.825  0.00  0.00    +0.050 A 
ATOM      4  C   UNL     1      -7.307   1.312  -2.540  0.00  0.00    +0.010 A 
ATOM      5  C   UNL     1      -6.492   1.965  -3.445  0.00  0.00    -0.014 A 
ATOM      6  C   UNL     1      -6.159   1.359  -4.642  0.00  0.00    +0.055 A 
ATOM      7  C   UNL     1      -6.633   0.090  -4.932  0.00  0.00    +0.162 A 
BRANCH   7   8
ATOM      8  O   UNL     1      -6.302  -0.510  -6.107  0.00  0.00    -0.491 OA
ATOM      9  C   UNL     1      -5.455   0.224  -6.994  0.00  0.00    +0.277 C 
ENDBRANCH   7   8
BRANCH   2  10
ATOM     10  O   UNL     1      -7.928  -1.810  -4.304  0.00  0.00    -0.489 OA
BRANCH  10  12
ATOM     11  C   UNL     1      -9.198  -3.807  -3.813  0.00  0.00    +0.048 C 
ATOM     12  C   UNL     1      -8.766  -2.424  -3.322  0.00  0.00    +0.226 C 
ENDBRANCH  10  12
ENDBRANCH   2  10
ENDBRANCH   1   5
BRANCH   1  13
ATOM     13  C   UNL     1      -7.128   4.297  -2.983  0.00  0.00    +0.239 C 
ATOM     14  O   UNL     1      -7.300   4.885  -1.936  0.00  0.00    -0.273 OA
ATOM     15  N   UNL     1      -7.971   4.497  -4.015  0.00  0.00    -0.309 N 
ATOM     16  H   UNL     1      -7.833   4.027  -4.852  0.00  0.00    +0.149 HD
BRANCH  15  17
ATOM     17  C   UNL     1      -9.096   5.424  -3.873  0.00  0.00    +0.026 C 
ATOM     18  C   UNL     1      -8.567   6.823  -3.552  0.00  0.00    +0.031 C 
ATOM     19  C   UNL     1      -9.891   5.467  -5.179  0.00  0.00    +0.031 C 
ATOM     20  C   UNL     1     -10.007   4.951  -2.737  0.00  0.00    +0.031 C 
ENDBRANCH  15  17
ENDBRANCH   1  13
BRANCH   1  21
ATOM     21  N   UNL     1      -5.210   3.303  -1.878  0.00  0.00    -0.254 N 
ATOM     22  C   UNL     1      -4.545   4.397  -1.458  0.00  0.00    +0.242 C 
ATOM     23  O   UNL     1      -4.649   5.441  -2.066  0.00  0.00    -0.273 OA
BRANCH  21  24
ATOM     24  C   UNL     1      -5.173   2.127  -1.120  0.00  0.00    +0.037 A 
ATOM     25  C   UNL     1      -5.819   2.071   0.109  0.00  0.00    +0.024 A 
ATOM     26  C   UNL     1      -5.786   0.908   0.852  0.00  0.00    +0.005 A 
ATOM     27  C   UNL     1      -5.101  -0.197   0.380  0.00  0.00    -0.050 A 
ATOM     28  C   UNL     1      -4.452  -0.142  -0.840  0.00  0.00    +0.005 A 
ATOM     29  C   UNL     1      -4.486   1.016  -1.591  0.00  0.00    +0.024 A 
ATOM     30  C   UNL     1      -5.062  -1.462   1.197  0.00  0.00    +0.044 C 
ENDBRANCH  21  24
BRANCH  22  31
ATOM     31  C   UNL     1      -3.672   4.324  -0.231  0.00  0.00    +0.242 C 
BRANCH  31  32
ATOM     32  N   UNL     1      -2.966   5.596  -0.058  0.00  0.00    -0.235 N 
ATOM     33  C   UNL     1      -1.738   5.931  -0.575  0.00  0.00    +0.090 A 
ATOM     34  C   UNL     1      -0.811   5.268  -1.372  0.00  0.00    +0.029 A 
ATOM     35  C   UNL     1       0.353   5.893  -1.722  0.00  0.00    +0.002 A 
ATOM     36  C   UNL     1       0.616   7.189  -1.298  0.00  0.00    +0.002 A 
ATOM     37  C   UNL     1      -0.279   7.863  -0.520  0.00  0.00    +0.032 A 
ATOM     38  C   UNL     1      -1.478   7.244  -0.142  0.00  0.00    +0.113 A 
ATOM     39  N   UNL     1      -2.529   7.645   0.601  0.00  0.00    -0.129 NA
ATOM     40  N   UNL     1      -3.410   6.710   0.669  0.00  0.00    -0.064 NA
ENDBRANCH  31  32
ENDBRANCH  22  31
ENDBRANCH   1  21
TORSDOF 10
