REMARK  Name = ZINC16608076
REMARK  8 active torsions:
REMARK  status: ('A' for Active; 'I' for Inactive)
REMARK    1  A    between atoms: C_1  and  C_2
REMARK    2  A    between atoms: N_6  and  C_32
REMARK    3  A    between atoms: N_15  and  C_18
REMARK    4  A    between atoms: C_18  and  N_19
REMARK    5  A    between atoms: C_22  and  C_25
REMARK    6  A    between atoms: C_25  and  C_26
REMARK    7  A    between atoms: C_35  and  O_38
REMARK    8  A    between atoms: O_38  and  C_39
REMARK                            x       y       z     vdW  Elec       q    Type
REMARK                         _______ _______ _______ _____ _____    ______ ____
ROOT
ATOM      1  C   UNL     1       0.073   1.158  -0.677  0.00  0.00    +0.029 C 
ATOM      2  C   UNL     1       0.113  -0.296  -0.202  0.00  0.00    +0.132 C 
ATOM      3  C   UNL     1      -1.287  -0.887  -0.119  0.00  0.00    +0.234 C 
ATOM      4  O   UNL     1      -2.078  -0.761  -1.030  0.00  0.00    -0.274 OA
ATOM      5  N   UNL     1      -1.611  -1.547   0.992  0.00  0.00    -0.243 N 
ATOM      6  C   UNL     1      -0.622  -1.655   2.060  0.00  0.00    +0.193 C 
ATOM      7  S   UNL     1       0.630  -0.406   1.569  0.00  0.00    -0.108 S 
ATOM      8  C   UNL     1      -0.008  -3.015   2.169  0.00  0.00    +0.017 A 
ATOM      9  C   UNL     1       0.654  -3.838   1.285  0.00  0.00    +0.009 A 
ATOM     10  C   UNL     1       1.114  -5.075   1.701  0.00  0.00    +0.000 A 
ATOM     11  C   UNL     1       0.908  -5.483   3.006  0.00  0.00    +0.002 A 
ATOM     12  C   UNL     1       0.246  -4.663   3.895  0.00  0.00    +0.024 A 
ATOM     13  C   UNL     1      -0.220  -3.416   3.486  0.00  0.00    +0.041 A 
ATOM     14  N   UNL     1      -0.906  -2.422   4.190  0.00  0.00    -0.285 N 
ATOM     15  C   UNL     1      -1.178  -1.350   3.418  0.00  0.00    +0.257 C 
ATOM     16  O   UNL     1      -1.758  -0.339   3.756  0.00  0.00    -0.272 OA
ENDROOT
BRANCH   5  17
ATOM     17  C   UNL     1      -2.879  -2.127   1.133  0.00  0.00    +0.039 A 
ATOM     18  C   UNL     1      -3.069  -3.466   0.817  0.00  0.00    +0.027 A 
ATOM     19  C   UNL     1      -4.318  -4.037   0.956  0.00  0.00    +0.047 A 
ATOM     20  C   UNL     1      -5.383  -3.274   1.412  0.00  0.00    +0.120 A 
ATOM     21  C   UNL     1      -5.194  -1.937   1.728  0.00  0.00    +0.047 A 
ATOM     22  C   UNL     1      -3.944  -1.365   1.595  0.00  0.00    +0.027 A 
BRANCH  20  23
ATOM     23  O   UNL     1      -6.613  -3.837   1.549  0.00  0.00    -0.495 OA
ATOM     24  C   UNL     1      -7.664  -2.993   2.023  0.00  0.00    +0.277 C 
ENDBRANCH  20  23
ENDBRANCH   5  17
BRANCH  14  25
ATOM     25  C   UNL     1      -1.284  -2.531   5.601  0.00  0.00    +0.038 C 
BRANCH  25  26
ATOM     26  N   UNL     1      -0.203  -1.996   6.440  0.00  0.00    +0.390 N 
ATOM     27  C   UNL     1       0.994  -2.830   6.284  0.00  0.00    -0.076 C 
ATOM     28  C   UNL     1       2.147  -2.230   7.093  0.00  0.00    -0.015 C 
ATOM     29  C   UNL     1       1.750  -2.174   8.571  0.00  0.00    -0.010 C 
ATOM     30  C   UNL     1       0.459  -1.364   8.713  0.00  0.00    -0.015 C 
ATOM     31  C   UNL     1      -0.631  -1.995   7.844  0.00  0.00    -0.076 C 
ATOM     32  H   UNL     1       0.007  -1.052   6.153  0.00  0.00    -0.080 HD
BRANCH  29  33
ATOM     33  C   UNL     1       2.866  -1.503   9.375  0.00  0.00    +0.038 C 
BRANCH  33  34
ATOM     34  C   UNL     1       2.531  -1.558  10.843  0.00  0.00    -0.047 A 
ATOM     35  C   UNL     1       1.805  -0.535  11.425  0.00  0.00    +0.003 A 
ATOM     36  C   UNL     1       1.497  -0.586  12.772  0.00  0.00    +0.000 A 
ATOM     37  C   UNL     1       1.915  -1.659  13.537  0.00  0.00    +0.000 A 
ATOM     38  C   UNL     1       2.640  -2.682  12.954  0.00  0.00    +0.000 A 
ATOM     39  C   UNL     1       2.944  -2.634  11.607  0.00  0.00    +0.003 A 
ENDBRANCH  33  34
ENDBRANCH  29  33
ENDBRANCH  25  26
ENDBRANCH  14  25
TORSDOF 6
