REMARK  Name = ZINC63139420
REMARK  7 active torsions:
REMARK  status: ('A' for Active; 'I' for Inactive)
REMARK    1  A    between atoms: C_1  and  O_2
REMARK    2  A    between atoms: O_2  and  C_3
REMARK    3  A    between atoms: C_6  and  C_9
REMARK    4  A    between atoms: C_9  and  C_10
REMARK    5  A    between atoms: C_10  and  N_11
REMARK    6  A    between atoms: C_31  and  C_33
REMARK    7  A    between atoms: C_37  and  N_39
REMARK                            x       y       z     vdW  Elec       q    Type
REMARK                         _______ _______ _______ _____ _____    ______ ____
ROOT
ATOM      1  N   UNL     1       4.662  -3.372  -5.192  0.00  0.00    -0.291 N 
ATOM      2  C   UNL     1       4.684  -4.825  -5.233  0.00  0.00    +0.203 C 
ATOM      3  C   UNL     1       5.381  -5.344  -6.447  0.00  0.00    +0.234 C 
ATOM      4  O   UNL     1       5.459  -6.547  -6.580  0.00  0.00    -0.274 OA
ATOM      5  N   UNL     1       5.925  -4.577  -7.399  0.00  0.00    -0.279 N 
ATOM      6  C   UNL     1       5.879  -3.119  -7.358  0.00  0.00    +0.167 C 
ATOM      7  C   UNL     1       5.188  -2.600  -6.141  0.00  0.00    +0.237 C 
ATOM      8  O   UNL     1       5.105  -1.398  -6.005  0.00  0.00    -0.274 OA
ATOM      9  C   UNL     1       5.175  -2.581  -8.617  0.00  0.00    +0.065 C 
ATOM     10  C   UNL     1       5.762  -3.326  -9.790  0.00  0.00    -0.034 C 
ATOM     11  C   UNL     1       6.284  -2.898 -10.933  0.00  0.00    -0.001 A 
ATOM     12  C   UNL     1       6.379  -1.554 -11.524  0.00  0.00    +0.010 A 
ATOM     13  C   UNL     1       7.009  -1.471 -12.726  0.00  0.00    +0.001 A 
ATOM     14  C   UNL     1       7.548  -2.577 -13.391  0.00  0.00    +0.002 A 
ATOM     15  C   UNL     1       7.497  -3.850 -12.925  0.00  0.00    +0.026 A 
ATOM     16  C   UNL     1       6.851  -4.066 -11.673  0.00  0.00    +0.043 A 
ATOM     17  N   UNL     1       6.641  -5.168 -11.014  0.00  0.00    -0.375 N 
ATOM     18  C   UNL     1       5.868  -4.847  -9.814  0.00  0.00    +0.131 C 
ATOM     19  C   UNL     1       6.598  -5.254  -8.531  0.00  0.00    +0.133 C 
ATOM     20  H   UNL     1       6.946  -6.051 -11.274  0.00  0.00    +0.160 HD
ENDROOT
BRANCH  19  21
ATOM     21  C   UNL     1       6.521  -6.748  -8.352  0.00  0.00    -0.023 A 
ATOM     22  C   UNL     1       5.410  -7.441  -8.793  0.00  0.00    +0.005 A 
ATOM     23  C   UNL     1       5.340  -8.812  -8.629  0.00  0.00    +0.003 A 
ATOM     24  C   UNL     1       6.382  -9.489  -8.023  0.00  0.00    +0.033 A 
ATOM     25  C   UNL     1       7.493  -8.796  -7.582  0.00  0.00    +0.127 A 
ATOM     26  C   UNL     1       7.565  -7.426  -7.751  0.00  0.00    +0.038 A 
BRANCH  25  27
ATOM     27  N   UNL     1       8.609  -9.522  -6.933  0.00  0.00    +0.056 N 
ATOM     28  O   UNL     1       8.547 -10.720  -6.789  0.00  0.00    -0.126 OA
ATOM     29  O   UNL     1       9.581  -8.915  -6.548  0.00  0.00    -0.126 OA
ENDBRANCH  25  27
ENDBRANCH  19  21
BRANCH   1  30
ATOM     30  C   UNL     1       4.020  -2.722  -4.047  0.00  0.00    +0.113 C 
BRANCH  30  31
ATOM     31  C   UNL     1       2.537  -2.501  -4.351  0.00  0.00    +0.054 C 
BRANCH  31  35
ATOM     32  C   UNL     1       0.663  -0.605  -1.012  0.00  0.00    +0.120 A 
ATOM     33  C   UNL     1       1.224   0.163  -2.022  0.00  0.00    +0.046 A 
ATOM     34  C   UNL     1       1.829  -0.453  -3.100  0.00  0.00    +0.007 A 
ATOM     35  C   UNL     1       1.876  -1.833  -3.174  0.00  0.00    -0.046 A 
ATOM     36  C   UNL     1       1.318  -2.600  -2.168  0.00  0.00    +0.007 A 
ATOM     37  C   UNL     1       0.717  -1.989  -1.084  0.00  0.00    +0.046 A 
BRANCH  32  39
ATOM     38  C   UNL     1       0.049   1.427   0.059  0.00  0.00    +0.277 C 
ATOM     39  O   UNL     1       0.068  -0.002   0.051  0.00  0.00    -0.495 OA
ENDBRANCH  32  39
ENDBRANCH  31  35
ENDBRANCH  30  31
ENDBRANCH   1  30
TORSDOF 6
