REMARK  Name = ZINC39662186
REMARK  5 active torsions:
REMARK  status: ('A' for Active; 'I' for Inactive)
REMARK    1  A    between atoms: C_4  and  C_7
REMARK    2  A    between atoms: C_7  and  C_9
REMARK    3  A    between atoms: C_7  and  N_11
REMARK    4  A    between atoms: C_12  and  C_14
REMARK    5  A    between atoms: C_25  and  C_27
REMARK                            x       y       z     vdW  Elec       q    Type
REMARK                         _______ _______ _______ _____ _____    ______ ____
ROOT
ATOM      1  C   UNL     1       4.612  -3.561  -2.420  0.00  0.00    +0.100 C 
ATOM      2  C   UNL     1       4.213  -4.822  -1.621  0.00  0.00    +0.121 C 
ATOM      3  N   UNL     1       4.980  -5.923  -2.252  0.00  0.00    -0.296 N 
ATOM      4  C   UNL     1       6.304  -5.326  -2.549  0.00  0.00    +0.115 C 
ATOM      5  C   UNL     1       5.985  -3.895  -3.026  0.00  0.00    -0.004 C 
ATOM      6  C   UNL     1       7.041  -2.921  -2.513  0.00  0.00    -0.010 C 
ATOM      7  C   UNL     1       8.385  -3.236  -3.174  0.00  0.00    -0.082 C 
ATOM      8  N   UNL     1       8.254  -3.124  -4.632  0.00  0.00    +0.379 N 
ATOM      9  C   UNL     1       7.305  -4.128  -5.128  0.00  0.00    -0.082 C 
ATOM     10  C   UNL     1       5.915  -3.850  -4.549  0.00  0.00    -0.010 C 
ATOM     11  C   UNL     1       4.566  -7.181  -2.500  0.00  0.00    +0.248 C 
ATOM     12  O   UNL     1       3.411  -7.495  -2.286  0.00  0.00    -0.270 OA
ATOM     13  H   UNL     1       7.919  -2.201  -4.868  0.00  0.00    -0.086 HD
ATOM     14  H   UNL     1       9.154  -3.272  -5.062  0.00  0.00    -0.086 HD
ENDROOT
BRANCH  11  15
ATOM     15  C   UNL     1       5.516  -8.179  -3.031  0.00  0.00    +0.055 A 
ATOM     16  C   UNL     1       6.854  -8.157  -2.631  0.00  0.00    +0.016 A 
ATOM     17  C   UNL     1       7.736  -9.091  -3.130  0.00  0.00    +0.021 A 
ATOM     18  C   UNL     1       7.299 -10.051  -4.029  0.00  0.00    +0.042 A 
ATOM     19  C   UNL     1       5.975 -10.079  -4.431  0.00  0.00    +0.040 A 
ATOM     20  C   UNL     1       5.080  -9.153  -3.933  0.00  0.00    +0.054 A 
ATOM     21 CL   UNL     1       3.417  -9.195  -4.432  0.00  0.00    -0.083 Cl
ATOM     22 CL   UNL     1       8.417 -11.223  -4.653  0.00  0.00    -0.083 Cl
ENDBRANCH  11  15
BRANCH   1  24
ATOM     23  N   UNL     1       4.642  -1.123  -2.004  0.00  0.00    -0.296 N 
ATOM     24  C   UNL     1       4.719  -2.371  -1.501  0.00  0.00    +0.219 C 
ATOM     25  O   UNL     1       4.875  -2.537  -0.310  0.00  0.00    -0.275 OA
ATOM     26  H   UNL     1       4.517  -0.991  -2.957  0.00  0.00    +0.150 HD
BRANCH  23  27
ATOM     27  C   UNL     1       4.746   0.034  -1.111  0.00  0.00    +0.207 C 
BRANCH  27  31
ATOM     28  C   UNL     1       6.145   3.413  -3.319  0.00  0.00    +0.000 A 
ATOM     29  C   UNL     1       6.608   3.185  -2.036  0.00  0.00    +0.000 A 
ATOM     30  C   UNL     1       6.155   2.092  -1.322  0.00  0.00    +0.006 A 
ATOM     31  C   UNL     1       5.239   1.226  -1.890  0.00  0.00    -0.013 A 
ATOM     32  C   UNL     1       4.776   1.454  -3.172  0.00  0.00    +0.006 A 
ATOM     33  C   UNL     1       5.230   2.547  -3.887  0.00  0.00    +0.000 A 
ENDBRANCH  27  31
BRANCH  27  34
ATOM     34  C   UNL     1       3.423   0.334  -0.540  0.00  0.00    +0.090 C 
ATOM     35  N   UNL     1       2.402   0.565  -0.099  0.00  0.00    -0.194 NA
ENDBRANCH  27  34
ENDBRANCH  23  27
ENDBRANCH   1  24
TORSDOF 5
