REMARK  Name = ZINC64185867
REMARK  4 active torsions:
REMARK  status: ('A' for Active; 'I' for Inactive)
REMARK    1  A    between atoms: C_7  and  C_10
REMARK    2  A    between atoms: C_10  and  C_12
REMARK    3  A    between atoms: C_10  and  C_28
REMARK    4  A    between atoms: C_12  and  N_13
REMARK                            x       y       z     vdW  Elec       q    Type
REMARK                         _______ _______ _______ _____ _____    ______ ____
ROOT
ATOM      1  C   UNL     1       0.894  -4.051   1.152  0.00  0.00    +0.114 C 
ENDROOT
BRANCH   1   2
ATOM      2  N   UNL     1      -0.184  -5.039   1.246  0.00  0.00    -0.299 N 
ATOM      3  C   UNL     1      -0.247  -5.868   2.307  0.00  0.00    +0.302 C 
ATOM      4  O   UNL     1       0.639  -5.860   3.139  0.00  0.00    -0.253 OA
ATOM      5  N   UNL     1      -1.292  -6.708   2.445  0.00  0.00    -0.283 N 
ATOM      6  C   UNL     1      -1.435  -7.534   3.652  0.00  0.00    +0.128 C 
ATOM      7  C   UNL     1      -2.811  -7.263   4.272  0.00  0.00    +0.127 C 
ATOM      8  N   UNL     1      -3.830  -7.368   3.217  0.00  0.00    -0.297 N 
ATOM      9  C   UNL     1      -3.688  -6.542   2.010  0.00  0.00    +0.127 C 
ATOM     10  C   UNL     1      -2.314  -6.809   1.393  0.00  0.00    +0.128 C 
ATOM     11  C   UNL     1      -4.903  -8.230   3.359  0.00  0.00    +0.218 A 
ATOM     12  N   UNL     1      -5.007  -8.958   4.461  0.00  0.00    -0.223 NA
ATOM     13  C   UNL     1      -6.021  -9.791   4.628  0.00  0.00    +0.116 A 
ATOM     14  C   UNL     1      -6.981  -9.896   3.633  0.00  0.00    +0.039 A 
ATOM     15  C   UNL     1      -6.841  -9.120   2.493  0.00  0.00    +0.116 A 
ATOM     16  N   UNL     1      -5.806  -8.303   2.392  0.00  0.00    -0.223 NA
ATOM     17  H   UNL     1      -0.852  -5.096   0.546  0.00  0.00    +0.150 HD
ENDBRANCH   1   2
BRANCH   1  18
ATOM     18  C   UNL     1       0.664  -3.160  -0.070  0.00  0.00    +0.048 C 
BRANCH  18  25
ATOM     19  C   UNL     1      -3.246  -2.934  -2.461  0.00  0.00    +0.001 A 
ATOM     20  C   UNL     1      -4.184  -2.043  -1.922  0.00  0.00    +0.002 A 
ATOM     21  C   UNL     1      -3.948  -1.325  -0.804  0.00  0.00    +0.026 A 
ATOM     22  C   UNL     1      -2.709  -1.450  -0.117  0.00  0.00    +0.043 A 
ATOM     23  N   UNL     1      -2.249  -0.873   0.967  0.00  0.00    -0.380 N 
ATOM     24  C   UNL     1      -0.896  -1.377   1.227  0.00  0.00    +0.145 C 
ATOM     25  C   UNL     1      -0.601  -2.363   0.120  0.00  0.00    -0.036 C 
ATOM     26  C   UNL     1      -1.702  -2.385  -0.666  0.00  0.00    -0.001 A 
ATOM     27  C   UNL     1      -2.037  -3.128  -1.886  0.00  0.00    +0.010 A 
ATOM     28  H   UNL     1      -2.724  -0.221   1.506  0.00  0.00    +0.160 HD
ENDBRANCH  18  25
BRANCH  18  29
ATOM     29  C   UNL     1       1.848  -2.206  -0.236  0.00  0.00    +0.063 C 
ATOM     30  C   UNL     1       3.135  -2.963  -0.657  0.00  0.00    +0.042 C 
ATOM     31  C   UNL     1       3.916  -2.167  -1.652  0.00  0.00    -0.019 C 
ATOM     32  C   UNL     1       3.331  -1.186  -2.313  0.00  0.00    +0.036 C 
ATOM     33  S   UNL     1       1.649  -1.133  -1.720  0.00  0.00    -0.129 S 
ENDBRANCH  18  29
ENDBRANCH   1  18
TORSDOF 4
