REMARK  Name = ZINC12382128
REMARK  7 active torsions:
REMARK  status: ('A' for Active; 'I' for Inactive)
REMARK    1  A    between atoms: C_1  and  C_2
REMARK    2  A    between atoms: C_2  and  C_3
REMARK    3  A    between atoms: C_2  and  C_4
REMARK    4  A    between atoms: C_4  and  C_5
REMARK    5  A    between atoms: C_5  and  C_7
REMARK    6  A    between atoms: C_5  and  N_16
REMARK    7  A    between atoms: N_9  and  C_10
REMARK                            x       y       z     vdW  Elec       q    Type
REMARK                         _______ _______ _______ _____ _____    ______ ____
ROOT
ATOM      1  N   UNL     1      -0.509  -0.188   2.224  0.00  0.00    -0.230 N 
ATOM      2  C   UNL     1      -1.818  -0.590   2.155  0.00  0.00    +0.227 C 
ATOM      3  O   UNL     1      -2.385  -1.074   1.199  0.00  0.00    -0.275 OA
ATOM      4  C   UNL     1      -2.399  -0.309   3.504  0.00  0.00    +0.100 C 
ATOM      5  C   UNL     1      -3.860   0.089   3.680  0.00  0.00    +0.062 C 
ATOM      6  C   UNL     1      -4.071   1.568   3.385  0.00  0.00    -0.035 A 
ATOM      7  C   UNL     1      -5.043   2.038   2.540  0.00  0.00    +0.004 A 
ATOM      8  C   UNL     1      -5.210   3.408   2.402  0.00  0.00    +0.000 A 
ATOM      9  C   UNL     1      -4.412   4.296   3.098  0.00  0.00    +0.000 A 
ATOM     10  C   UNL     1      -3.408   3.820   3.936  0.00  0.00    +0.004 A 
ATOM     11  C   UNL     1      -3.244   2.478   4.048  0.00  0.00    -0.035 A 
ATOM     12  C   UNL     1      -2.157   1.776   4.883  0.00  0.00    +0.062 C 
ATOM     13  C   UNL     1      -1.555   0.954   3.817  0.00  0.00    +0.100 C 
ATOM     14  C   UNL     1      -0.235   0.581   3.336  0.00  0.00    +0.227 C 
ATOM     15  O   UNL     1       0.845   0.875   3.800  0.00  0.00    -0.275 OA
ATOM     16  C   UNL     1      -2.988   0.925   5.829  0.00  0.00    -0.035 A 
ATOM     17  C   UNL     1      -3.915   0.078   5.221  0.00  0.00    -0.035 A 
ATOM     18  C   UNL     1      -4.768  -0.687   5.955  0.00  0.00    +0.004 A 
ATOM     19  C   UNL     1      -4.679  -0.639   7.341  0.00  0.00    +0.000 A 
ATOM     20  C   UNL     1      -3.737   0.169   7.950  0.00  0.00    +0.000 A 
ATOM     21  C   UNL     1      -2.884   0.959   7.192  0.00  0.00    +0.004 A 
ENDROOT
BRANCH   1  22
ATOM     22  C   UNL     1       0.495  -0.534   1.215  0.00  0.00    +0.170 C 
BRANCH  22  23
ATOM     23  C   UNL     1       0.634  -2.033   1.139  0.00  0.00    +0.238 C 
ATOM     24  O   UNL     1      -0.040  -2.742   1.855  0.00  0.00    -0.273 OA
ATOM     25  N   UNL     1       1.507  -2.585   0.273  0.00  0.00    -0.284 N 
ATOM     26  H   UNL     1       1.990  -2.024  -0.353  0.00  0.00    +0.155 HD
BRANCH  25  27
ATOM     27  C   UNL     1       1.716  -3.969   0.278  0.00  0.00    +0.033 A 
ATOM     28  C   UNL     1       1.644  -4.679   1.469  0.00  0.00    +0.023 A 
ATOM     29  C   UNL     1       1.846  -6.045   1.470  0.00  0.00    +0.002 A 
ATOM     30  C   UNL     1       2.131  -6.704   0.288  0.00  0.00    +0.000 A 
ATOM     31  C   UNL     1       2.209  -5.999  -0.899  0.00  0.00    +0.002 A 
ATOM     32  C   UNL     1       2.003  -4.633  -0.907  0.00  0.00    +0.023 A 
ENDBRANCH  25  27
ENDBRANCH  22  23
BRANCH  22  33
ATOM     33  C   UNL     1       0.059   0.008  -0.147  0.00  0.00    +0.035 C 
BRANCH  33  35
ATOM     34  C   UNL     1       1.461   2.061   0.102  0.00  0.00    +0.007 C 
ATOM     35  C   UNL     1       0.038   1.538  -0.105  0.00  0.00    -0.015 C 
ATOM     36  C   UNL     1      -0.517   2.077  -1.424  0.00  0.00    +0.007 C 
ENDBRANCH  33  35
ENDBRANCH  22  33
ENDBRANCH   1  22
TORSDOF 5
