REMARK  Name = ZINC15974590
REMARK  8 active torsions:
REMARK  status: ('A' for Active; 'I' for Inactive)
REMARK    1  A    between atoms: C_1  and  C_2
REMARK    2  A    between atoms: C_3  and  C_15
REMARK    3  A    between atoms: N_5  and  C_7
REMARK    4  A    between atoms: C_15  and  C_17
REMARK    5  A    between atoms: C_15  and  C_24
REMARK    6  A    between atoms: C_21  and  O_23
REMARK    7  A    between atoms: C_26  and  C_38
REMARK    8  A    between atoms: N_28  and  C_31
REMARK                            x       y       z     vdW  Elec       q    Type
REMARK                         _______ _______ _______ _____ _____    ______ ____
ROOT
ATOM      1  C   UNL     1      -0.489   4.072  -0.737  0.00  0.00    +0.074 C 
ENDROOT
BRANCH   1   4
ATOM      2  C   UNL     1       0.155   1.157   0.151  0.00  0.00    +0.065 C 
ATOM      3  C   UNL     1      -0.583   1.555  -1.101  0.00  0.00    +0.039 A 
ATOM      4  C   UNL     1      -0.861   2.818  -1.484  0.00  0.00    +0.047 A 
ATOM      5  C   UNL     1      -1.564   2.759  -2.711  0.00  0.00    +0.276 A 
ATOM      6  N   UNL     1      -1.696   1.459  -3.044  0.00  0.00    -0.219 N 
ATOM      7  N   UNL     1      -1.079   0.698  -2.042  0.00  0.00    -0.294 N 
ATOM      8  O   UNL     1      -1.975   3.711  -3.350  0.00  0.00    -0.266 OA
ATOM      9  H   UNL     1      -1.017  -0.269  -2.020  0.00  0.00    +0.187 HD
BRANCH   6  10
ATOM     10  C   UNL     1      -2.331   0.960  -4.187  0.00  0.00    +0.067 A 
ATOM     11  C   UNL     1      -2.894   1.834  -5.107  0.00  0.00    +0.030 A 
ATOM     12  C   UNL     1      -3.520   1.340  -6.235  0.00  0.00    +0.040 A 
ATOM     13  C   UNL     1      -3.587  -0.027  -6.448  0.00  0.00    +0.124 A 
ATOM     14  C   UNL     1      -3.026  -0.900  -5.531  0.00  0.00    +0.040 A 
ATOM     15  C   UNL     1      -2.394  -0.410  -4.405  0.00  0.00    +0.030 A 
ATOM     16  F   UNL     1      -4.200  -0.508  -7.551  0.00  0.00    -0.205 F 
ENDBRANCH   6  10
ENDBRANCH   1   4
BRANCH   1  17
ATOM     17  C   UNL     1      -1.738   4.930  -0.527  0.00  0.00    +0.135 C 
ATOM     18  C   UNL     1      -1.402   6.174   0.269  0.00  0.00    +0.047 C 
ATOM     19  N   UNL     1      -2.084   6.127   1.347  0.00  0.00    -0.181 NA
ATOM     20  N   UNL     1      -2.884   4.992   1.439  0.00  0.00    -0.160 N 
ATOM     21  C   UNL     1      -2.744   4.205   0.347  0.00  0.00    +0.249 C 
ATOM     22  O   UNL     1      -3.298   3.151   0.116  0.00  0.00    -0.273 OA
ATOM     23  C   UNL     1      -0.443   7.264  -0.136  0.00  0.00    +0.063 C 
BRANCH  20  24
ATOM     24  C   UNL     1      -3.726   4.702   2.520  0.00  0.00    +0.060 A 
ATOM     25  C   UNL     1      -4.481   3.537   2.520  0.00  0.00    +0.028 A 
ATOM     26  C   UNL     1      -5.311   3.253   3.587  0.00  0.00    +0.040 A 
ATOM     27  C   UNL     1      -5.389   4.130   4.657  0.00  0.00    +0.124 A 
ATOM     28  C   UNL     1      -4.637   5.292   4.658  0.00  0.00    +0.040 A 
ATOM     29  C   UNL     1      -3.801   5.577   3.596  0.00  0.00    +0.028 A 
ATOM     30  F   UNL     1      -6.202   3.850   5.699  0.00  0.00    -0.205 F 
ENDBRANCH  20  24
ENDBRANCH   1  17
BRANCH   1  31
ATOM     31  C   UNL     1       0.527   4.849  -1.534  0.00  0.00    -0.035 A 
ATOM     32  C   UNL     1       0.152   5.473  -2.710  0.00  0.00    +0.004 A 
ATOM     33  C   UNL     1       1.081   6.187  -3.443  0.00  0.00    +0.004 A 
ATOM     34  C   UNL     1       2.388   6.278  -3.003  0.00  0.00    +0.045 A 
ATOM     35  C   UNL     1       2.766   5.653  -1.824  0.00  0.00    +0.117 A 
ATOM     36  C   UNL     1       1.830   4.942  -1.087  0.00  0.00    +0.049 A 
BRANCH  35  37
ATOM     37  O   UNL     1       4.051   5.742  -1.389  0.00  0.00    -0.507 OA
ATOM     38  H   UNL     1       4.219   6.498  -0.810  0.00  0.00    +0.292 HD
ENDBRANCH  35  37
ENDBRANCH   1  31
TORSDOF 6
