REMARK  Name = ZINC44960112
REMARK  13 active torsions:
REMARK  status: ('A' for Active; 'I' for Inactive)
REMARK    1  A    between atoms: C_1  and  C_2
REMARK    2  A    between atoms: C_2  and  O_4
REMARK    3  A    between atoms: O_4  and  C_5
REMARK    4  A    between atoms: C_12  and  C_14
REMARK    5  A    between atoms: C_14  and  C_16
REMARK    6  A    between atoms: C_14  and  O_37
REMARK    7  A    between atoms: C_16  and  O_17
REMARK    8  A    between atoms: O_17  and  C_18
REMARK    9  A    between atoms: C_18  and  C_19
REMARK   10  A    between atoms: C_18  and  C_25
REMARK   11  A    between atoms: C_18  and  C_31
REMARK   12  A    between atoms: C_39  and  C_41
REMARK   13  A    between atoms: C_39  and  C_42
REMARK                            x       y       z     vdW  Elec       q    Type
REMARK                         _______ _______ _______ _____ _____    ______ ____
ROOT
ATOM      1  O   UNL     1       4.934  -0.992  -1.157  0.00  0.00    -0.357 OA
ENDROOT
BRANCH   1   2
ATOM      2  C   UNL     1       4.137  -2.122  -0.797  0.00  0.00    +0.196 C 
BRANCH   2   3
ATOM      3  C   UNL     1       2.938  -1.658   0.032  0.00  0.00    +0.173 C 
BRANCH   3   8
ATOM      4  C   UNL     1       0.793  -2.390   1.156  0.00  0.00    +0.241 C 
ATOM      5  C   UNL     1      -0.367  -2.611   0.204  0.00  0.00    +0.220 C 
ATOM      6  C   UNL     1       0.207  -3.838  -0.603  0.00  0.00    +0.286 C 
ATOM      7  O   UNL     1       1.474  -3.368  -0.958  0.00  0.00    -0.339 OA
ATOM      8  C   UNL     1       2.019  -2.849   0.312  0.00  0.00    +0.195 C 
ATOM      9  O   UNL     1      -0.893  -4.099  -1.432  0.00  0.00    -0.318 OA
ATOM     10  C   UNL     1      -2.010  -4.008  -0.497  0.00  0.00    +0.168 C 
ATOM     11  O   UNL     1      -1.611  -3.132   0.608  0.00  0.00    -0.337 OA
ATOM     12  C   UNL     1      -2.357  -5.401   0.032  0.00  0.00    +0.074 C 
ATOM     13  C   UNL     1      -3.227  -3.405  -1.202  0.00  0.00    +0.074 C 
BRANCH   4  14
ATOM     14  O   UNL     1       0.906  -1.010   1.507  0.00  0.00    -0.456 OA
BRANCH  14  16
ATOM     15  C   UNL     1       1.609   0.707   3.136  0.00  0.00    +0.136 C 
ATOM     16  C   UNL     1       1.457  -0.727   2.698  0.00  0.00    +0.304 C 
ATOM     17  O   UNL     1       1.831  -1.622   3.419  0.00  0.00    -0.251 OA
ENDBRANCH  14  16
ENDBRANCH   4  14
ENDBRANCH   3   8
BRANCH   3  18
ATOM     18  O   UNL     1       3.398  -1.111   1.269  0.00  0.00    -0.387 OA
ATOM     19  H   UNL     1       3.898  -1.735   1.814  0.00  0.00    +0.210 HD
ENDBRANCH   3  18
ENDBRANCH   2   3
ENDBRANCH   1   2
BRANCH   1  20
ATOM     20  C   UNL     1       6.153  -1.329  -1.822  0.00  0.00    +0.144 C 
BRANCH  20  21
ATOM     21  C   UNL     1       5.845  -2.106  -3.075  0.00  0.00    -0.007 A 
ATOM     22  C   UNL     1       5.582  -3.461  -3.002  0.00  0.00    +0.007 A 
ATOM     23  C   UNL     1       5.299  -4.174  -4.152  0.00  0.00    +0.000 A 
ATOM     24  C   UNL     1       5.277  -3.531  -5.376  0.00  0.00    +0.000 A 
ATOM     25  C   UNL     1       5.538  -2.175  -5.449  0.00  0.00    +0.000 A 
ATOM     26  C   UNL     1       5.818  -1.462  -4.298  0.00  0.00    +0.007 A 
ENDBRANCH  20  21
BRANCH  20  27
ATOM     27  C   UNL     1       6.894  -0.067  -2.182  0.00  0.00    -0.007 A 
ATOM     28  C   UNL     1       8.130  -0.142  -2.795  0.00  0.00    +0.007 A 
ATOM     29  C   UNL     1       8.810   1.015  -3.126  0.00  0.00    +0.000 A 
ATOM     30  C   UNL     1       8.252   2.248  -2.844  0.00  0.00    +0.000 A 
ATOM     31  C   UNL     1       7.015   2.324  -2.232  0.00  0.00    +0.000 A 
ATOM     32  C   UNL     1       6.334   1.166  -1.905  0.00  0.00    +0.007 A 
ENDBRANCH  20  27
BRANCH  20  33
ATOM     33  C   UNL     1       7.008  -2.169  -0.908  0.00  0.00    -0.007 A 
ATOM     34  C   UNL     1       7.879  -3.101  -1.440  0.00  0.00    +0.007 A 
ATOM     35  C   UNL     1       8.663  -3.872  -0.602  0.00  0.00    +0.000 A 
ATOM     36  C   UNL     1       8.576  -3.710   0.769  0.00  0.00    +0.000 A 
ATOM     37  C   UNL     1       7.705  -2.777   1.300  0.00  0.00    +0.000 A 
ATOM     38  C   UNL     1       6.924  -2.004   0.462  0.00  0.00    +0.007 A 
ENDBRANCH  20  33
ENDBRANCH   1  20
TORSDOF 10
