REMARK  Name = ZINC20458786
REMARK  8 active torsions:
REMARK  status: ('A' for Active; 'I' for Inactive)
REMARK    1  A    between atoms: C_1  and  C_2
REMARK    2  A    between atoms: C_2  and  N_3
REMARK    3  A    between atoms: C_6  and  C_7
REMARK    4  A    between atoms: C_12  and  C_13
REMARK    5  A    between atoms: C_17  and  C_25
REMARK    6  A    between atoms: C_19  and  C_23
REMARK    7  A    between atoms: C_20  and  N_22
REMARK    8  A    between atoms: C_30  and  C_31
REMARK                            x       y       z     vdW  Elec       q    Type
REMARK                         _______ _______ _______ _____ _____    ______ ____
ROOT
ATOM      1  N   UNL     1      -0.165   6.720  -3.709  0.00  0.00    -0.294 NA
ATOM      2  C   UNL     1       1.193   6.476  -4.230  0.00  0.00    +0.123 C 
ATOM      3  C   UNL     1       2.143   6.586  -3.057  0.00  0.00    +0.010 C 
ATOM      4  C   UNL     1       3.332   7.203  -3.178  0.00  0.00    +0.016 C 
ATOM      5  C   UNL     1       1.717   5.990  -1.774  0.00  0.00    +0.136 C 
ATOM      6  C   UNL     1       0.457   5.581  -1.622  0.00  0.00    -0.001 C 
ATOM      7  C   UNL     1      -0.543   5.686  -2.744  0.00  0.00    +0.120 C 
ATOM      8  C   UNL     1      -0.000   4.989  -0.310  0.00  0.00    +0.095 C 
ATOM      9  C   UNL     1       0.963   5.339   0.788  0.00  0.00    +0.098 C 
ATOM     10  C   UNL     1       2.218   5.765   0.499  0.00  0.00    +0.199 C 
ATOM     11  O   UNL     1       2.628   5.884  -0.775  0.00  0.00    -0.441 OA
ENDROOT
BRANCH   4  12
ATOM     12  C   UNL     1       3.798   7.649  -4.503  0.00  0.00    -0.022 A 
ATOM     13  C   UNL     1       3.594   6.843  -5.627  0.00  0.00    +0.008 A 
ATOM     14  C   UNL     1       4.033   7.267  -6.863  0.00  0.00    +0.001 A 
ATOM     15  C   UNL     1       4.676   8.486  -6.993  0.00  0.00    +0.000 A 
ATOM     16  C   UNL     1       4.883   9.288  -5.885  0.00  0.00    +0.004 A 
ATOM     17  C   UNL     1       4.443   8.881  -4.643  0.00  0.00    -0.043 A 
ATOM     18  C   UNL     1       4.663   9.759  -3.438  0.00  0.00    +0.044 C 
ENDBRANCH   4  12
BRANCH   8  19
ATOM     19  C   UNL     1      -0.082   3.490  -0.442  0.00  0.00    -0.032 A 
ATOM     20  C   UNL     1       1.025   2.770  -0.853  0.00  0.00    +0.005 A 
ATOM     21  C   UNL     1       0.951   1.395  -0.973  0.00  0.00    +0.000 A 
ATOM     22  C   UNL     1      -0.231   0.739  -0.683  0.00  0.00    +0.000 A 
ATOM     23  C   UNL     1      -1.340   1.459  -0.278  0.00  0.00    +0.003 A 
ATOM     24  C   UNL     1      -1.263   2.833  -0.152  0.00  0.00    -0.046 A 
ATOM     25  C   UNL     1      -2.470   3.617   0.296  0.00  0.00    +0.044 C 
ENDBRANCH   8  19
BRANCH  10  26
ATOM     26  N   UNL     1       3.079   6.078   1.521  0.00  0.00    -0.328 N 
ATOM     27  H   UNL     1       4.098   6.424   1.294  0.00  0.00    +0.145 HD
ATOM     28  H   UNL     1       2.750   5.983   2.566  0.00  0.00    +0.145 HD
ENDBRANCH  10  26
BRANCH   1  30
ATOM     29  C   UNL     1      -0.855   8.046  -5.649  0.00  0.00    +0.020 C 
ATOM     30  C   UNL     1      -1.141   6.803  -4.803  0.00  0.00    +0.082 C 
ENDBRANCH   1  30
BRANCH   9  31
ATOM     31  C   UNL     1       0.551   5.223   2.154  0.00  0.00    +0.101 C 
ATOM     32  N   UNL     1       0.225   5.130   3.239  0.00  0.00    -0.191 NA
ENDBRANCH   9  31
TORSDOF 5
