REMARK  Name = ZINC36591718
REMARK  16 active torsions:
REMARK  status: ('A' for Active; 'I' for Inactive)
REMARK    1  A    between atoms: C_1  and  C_2
REMARK    2  A    between atoms: C_2  and  C_3
REMARK    3  A    between atoms: C_3  and  C_4
REMARK    4  A    between atoms: C_5  and  C_6
REMARK    5  A    between atoms: C_6  and  C_8
REMARK    6  A    between atoms: C_6  and  N_22
REMARK    7  A    between atoms: N_10  and  C_11
REMARK    8  A    between atoms: C_11  and  S_12
REMARK    9  A    between atoms: S_12  and  C_15
REMARK   10  A    between atoms: C_18  and  C_21
REMARK   11  A    between atoms: N_22  and  C_34
REMARK   12  A    between atoms: C_23  and  C_25
REMARK   13  A    between atoms: C_29  and  N_31
REMARK   14  A    between atoms: C_34  and  C_35
REMARK   15  A    between atoms: C_34  and  C_36
REMARK   16  A    between atoms: C_34  and  C_37
REMARK                            x       y       z     vdW  Elec       q    Type
REMARK                         _______ _______ _______ _____ _____    ______ ____
ROOT
ATOM      1  C   UNL     1      -1.291  -5.170   0.480  0.00  0.00    +0.186 C 
ENDROOT
BRANCH   1   2
ATOM      2  C   UNL     1      -2.566  -5.894   0.132  0.00  0.00    +0.239 C 
ATOM      3  O   UNL     1      -2.815  -6.161  -1.025  0.00  0.00    -0.273 OA
ATOM      4  N   UNL     1      -3.429  -6.244   1.105  0.00  0.00    -0.294 N 
ATOM      5  H   UNL     1      -3.230  -6.030   2.030  0.00  0.00    +0.150 HD
BRANCH   4   6
ATOM      6  C   UNL     1      -4.668  -6.949   0.767  0.00  0.00    +0.278 C 
BRANCH   6   7
ATOM      7  S   UNL     1      -4.416  -8.736   0.944  0.00  0.00    +0.013 S 
ATOM      8  O   UNL     1      -5.628  -9.430   0.680  0.00  0.00    -0.168 OA
ATOM      9  O   UNL     1      -3.205  -9.125   0.309  0.00  0.00    -0.168 OA
BRANCH   7  10
ATOM     10  C   UNL     1      -4.122  -8.983   2.664  0.00  0.00    +0.090 A 
ATOM     11  C   UNL     1      -2.832  -8.927   3.159  0.00  0.00    +0.027 A 
ATOM     12  C   UNL     1      -2.601  -9.121   4.508  0.00  0.00    +0.005 A 
ATOM     13  C   UNL     1      -3.659  -9.371   5.362  0.00  0.00    -0.050 A 
ATOM     14  C   UNL     1      -4.949  -9.427   4.866  0.00  0.00    +0.005 A 
ATOM     15  C   UNL     1      -5.180  -9.228   3.518  0.00  0.00    +0.027 A 
ATOM     16  C   UNL     1      -3.408  -9.584   6.832  0.00  0.00    +0.044 C 
ENDBRANCH   7  10
ENDBRANCH   6   7
ENDBRANCH   4   6
ENDBRANCH   1   2
BRANCH   1  17
ATOM     17  N   UNL     1      -0.651  -4.689  -0.748  0.00  0.00    -0.278 N 
ATOM     18  C   UNL     1       0.630  -5.012  -1.011  0.00  0.00    +0.248 C 
ATOM     19  O   UNL     1       1.296  -5.590  -0.173  0.00  0.00    -0.270 OA
BRANCH  18  20
ATOM     20  C   UNL     1       1.227  -4.665  -2.318  0.00  0.00    +0.039 A 
ATOM     21  C   UNL     1       0.511  -3.888  -3.231  0.00  0.00    +0.013 A 
ATOM     22  C   UNL     1       1.073  -3.567  -4.449  0.00  0.00    +0.003 A 
ATOM     23  C   UNL     1       2.344  -4.014  -4.767  0.00  0.00    +0.033 A 
ATOM     24  C   UNL     1       3.058  -4.785  -3.868  0.00  0.00    +0.127 A 
ATOM     25  C   UNL     1       2.510  -5.108  -2.643  0.00  0.00    +0.045 A 
BRANCH  24  26
ATOM     26  N   UNL     1       4.416  -5.260  -4.216  0.00  0.00    +0.056 N 
ATOM     27  O   UNL     1       4.900  -4.973  -5.287  0.00  0.00    -0.126 OA
ATOM     28  O   UNL     1       5.041  -5.933  -3.431  0.00  0.00    -0.126 OA
ENDBRANCH  24  26
ENDBRANCH  18  20
BRANCH  17  29
ATOM     29  C   UNL     1      -1.405  -3.857  -1.688  0.00  0.00    +0.030 C 
ATOM     30  C   UNL     1      -2.771  -3.517  -1.088  0.00  0.00    +0.031 C 
ATOM     31  C   UNL     1      -0.631  -2.564  -1.959  0.00  0.00    +0.031 C 
ATOM     32  C   UNL     1      -1.600  -4.619  -3.001  0.00  0.00    +0.031 C 
ENDBRANCH  17  29
ENDBRANCH   1  17
BRANCH   1  34
ATOM     33  C   UNL     1      -1.129  -2.812   1.092  0.00  0.00    -0.029 C 
ATOM     34  C   UNL     1      -1.607  -3.998   1.374  0.00  0.00    +0.000 C 
BRANCH  33  35
ATOM     35  C   UNL     1      -1.554  -1.615   1.904  0.00  0.00    +0.027 C 
BRANCH  35  37
ATOM     36  C   UNL     1      -0.748   0.305   3.284  0.00  0.00    +0.004 C 
ATOM     37  C   UNL     1      -0.316  -0.910   2.460  0.00  0.00    +0.001 C 
ENDBRANCH  35  37
ENDBRANCH  33  35
ENDBRANCH   1  34
TORSDOF 11
