REMARK  Name = ZINC61079725
REMARK  5 active torsions:
REMARK  status: ('A' for Active; 'I' for Inactive)
REMARK    1  A    between atoms: C_2  and  C_10
REMARK    2  A    between atoms: C_6  and  N_7
REMARK    3  A    between atoms: N_12  and  C_13
REMARK    4  A    between atoms: C_13  and  C_14
REMARK    5  A    between atoms: C_14  and  C_15
REMARK                            x       y       z     vdW  Elec       q    Type
REMARK                         _______ _______ _______ _____ _____    ______ ____
ROOT
ATOM      1  C   UNL     1      -0.017   1.380   0.010  0.00  0.00    +0.039 A 
ATOM      2  C   UNL     1       1.186   2.091   0.002  0.00  0.00    +0.053 A 
ATOM      3  C   UNL     1       2.400   1.400  -0.013  0.00  0.00    +0.033 A 
ATOM      4  C   UNL     1       2.409   0.020  -0.021  0.00  0.00    +0.056 A 
ATOM      5  C   UNL     1       1.218  -0.684  -0.013  0.00  0.00    +0.145 A 
ATOM      6  C   UNL     1       0.002  -0.004   0.002  0.00  0.00    +0.061 A 
ATOM      7  F   UNL     1       1.234  -2.035  -0.021  0.00  0.00    -0.204 F 
ATOM      8 BR   UNL     1       4.031   2.357  -0.024  0.00  0.00    -0.049 Br
ENDROOT
BRANCH   2   9
ATOM      9  C   UNL     1       1.173   3.567   0.009  0.00  0.00    +0.245 C 
ATOM     10  O   UNL     1       2.221   4.184   0.003  0.00  0.00    -0.270 OA
ATOM     11  N   UNL     1       0.000   4.231   0.024  0.00  0.00    -0.311 N 
ATOM     12  H   UNL     1      -0.836   3.739   0.029  0.00  0.00    +0.149 HD
BRANCH  11  13
ATOM     13  C   UNL     1      -0.012   5.696   0.031  0.00  0.00    +0.113 C 
BRANCH  13  14
ATOM     14  C   UNL     1      -1.459   6.194   0.047  0.00  0.00    +0.114 C 
BRANCH  14  15
ATOM     15  C   UNL     1      -1.472   7.701   0.055  0.00  0.00    +0.212 C 
ATOM     16  O   UNL     1      -0.427   8.316   0.048  0.00  0.00    -0.276 OA
ATOM     17  N   UNL     1      -2.645   8.364   0.069  0.00  0.00    -0.329 N 
ATOM     18  H   UNL     1      -3.481   7.872   0.075  0.00  0.00    +0.145 HD
ATOM     19  H   UNL     1      -2.653   9.334   0.074  0.00  0.00    +0.145 HD
ENDBRANCH  14  15
ENDBRANCH  13  14
ENDBRANCH  11  13
ENDBRANCH   2   9
BRANCH   6  20
ATOM     20  N   UNL     1      -1.200  -0.720   0.010  0.00  0.00    -0.356 N 
ATOM     21  H   UNL     1      -2.046  -0.246   0.020  0.00  0.00    +0.142 HD
ATOM     22  H   UNL     1      -1.187  -1.690   0.004  0.00  0.00    +0.142 HD
ENDBRANCH   6  20
TORSDOF 5
