REMARK  Name = ZINC08767199
REMARK  9 active torsions:
REMARK  status: ('A' for Active; 'I' for Inactive)
REMARK    1  A    between atoms: C_1  and  C_2
REMARK    2  A    between atoms: C_2  and  O_3
REMARK    3  A    between atoms: O_3  and  C_4
REMARK    4  A    between atoms: C_4  and  C_6
REMARK    5  A    between atoms: C_7  and  C_34
REMARK    6  A    between atoms: C_14  and  C_15
REMARK    7  A    between atoms: C_18  and  N_20
REMARK    8  A    between atoms: C_25  and  N_67
REMARK    9  A    between atoms: C_27  and  C_29
REMARK                            x       y       z     vdW  Elec       q    Type
REMARK                         _______ _______ _______ _____ _____    ______ ____
ROOT
ATOM      1  C   UNL     1      -2.661   1.866   1.198  0.00  0.00    +0.090 C 
ATOM      2  C   UNL     1      -3.972   1.870   1.663  0.00  0.00    +0.086 C 
ATOM      3  N   UNL     1      -4.988   1.936   0.799  0.00  0.00    -0.222 NA
ATOM      4  C   UNL     1      -4.857   2.000  -0.499  0.00  0.00    +0.178 A 
ATOM      5  N   UNL     1      -3.650   2.010  -1.161  0.00  0.00    -0.274 N 
ATOM      6  C   UNL     1      -3.664   2.079  -2.498  0.00  0.00    +0.268 A 
ATOM      7  O   UNL     1      -2.618   2.089  -3.123  0.00  0.00    -0.266 OA
ATOM      8  C   UNL     1      -4.903   2.140  -3.180  0.00  0.00    +0.084 A 
ATOM      9  C   UNL     1      -5.154   2.216  -4.534  0.00  0.00    +0.067 C 
ATOM     10  S   UNL     1      -6.055   2.094  -1.815  0.00  0.00    -0.046 S 
ATOM     11  C   UNL     1      -2.440   1.939  -0.296  0.00  0.00    +0.169 C 
ENDROOT
BRANCH   2  12
ATOM     12  C   UNL     1      -4.240   1.801   3.117  0.00  0.00    +0.001 A 
ATOM     13  C   UNL     1      -3.824   0.692   3.854  0.00  0.00    +0.010 A 
ATOM     14  C   UNL     1      -4.072   0.636   5.211  0.00  0.00    +0.001 A 
ATOM     15  C   UNL     1      -4.742   1.672   5.837  0.00  0.00    +0.000 A 
ATOM     16  C   UNL     1      -5.164   2.771   5.110  0.00  0.00    +0.001 A 
ATOM     17  C   UNL     1      -4.916   2.841   3.755  0.00  0.00    +0.010 A 
ENDBRANCH   2  12
BRANCH   9  18
ATOM     18  C   UNL     1      -4.120   1.972  -5.455  0.00  0.00    +0.131 A 
ATOM     19  C   UNL     1      -4.253   1.911  -6.833  0.00  0.00    +0.051 A 
ATOM     20  C   UNL     1      -2.980   1.652  -7.347  0.00  0.00    +0.066 A 
ATOM     21  C   UNL     1      -2.127   1.555  -6.285  0.00  0.00    +0.189 A 
ATOM     22  O   UNL     1      -2.820   1.748  -5.152  0.00  0.00    -0.442 OA
BRANCH  21  23
ATOM     23  N   UNL     1      -0.773   1.300  -6.364  0.00  0.00    -0.305 N 
ATOM     24  C   UNL     1      -0.514   0.049  -7.091  0.00  0.00    +0.089 C 
ATOM     25  C   UNL     1       0.997  -0.156  -7.225  0.00  0.00    -0.060 C 
ATOM     26  C   UNL     1       1.346   1.059  -5.161  0.00  0.00    -0.060 C 
ATOM     27  C   UNL     1      -0.165   1.264  -5.027  0.00  0.00    +0.089 C 
ATOM     28  C   UNL     1       3.046  -0.463  -5.972  0.00  0.00    -0.096 C 
ATOM     29  N   UNL     1       1.592  -0.212  -5.873  0.00  0.00    +0.380 N 
ATOM     30  H   UNL     1       1.156  -0.979  -5.348  0.00  0.00    -0.082 HD
ENDBRANCH  21  23
ENDBRANCH   9  18
BRANCH  11  31
ATOM     31  C   UNL     1      -1.596   3.154  -0.580  0.00  0.00    +0.017 A 
ATOM     32  C   UNL     1      -0.254   3.240  -0.753  0.00  0.00    +0.013 A 
ATOM     33  C   UNL     1       0.311   4.474  -1.014  0.00  0.00    +0.008 A 
ATOM     34  C   UNL     1      -0.493   5.563  -1.084  0.00  0.00    +0.045 A 
ATOM     35  S   UNL     1      -2.103   4.855  -0.775  0.00  0.00    -0.099 S 
ENDBRANCH  11  31
BRANCH   1  36
ATOM     36  C   UNL     1      -1.581   1.797   2.085  0.00  0.00    +0.340 C 
ATOM     37  O   UNL     1      -1.774   1.857   3.286  0.00  0.00    -0.245 OA
BRANCH  36  38
ATOM     38  O   UNL     1      -0.323   1.663   1.608  0.00  0.00    -0.462 OA
BRANCH  38  40
ATOM     39  C   UNL     1       2.072   1.448   1.849  0.00  0.00    +0.048 C 
ATOM     40  C   UNL     1       0.732   1.599   2.571  0.00  0.00    +0.229 C 
ENDBRANCH  38  40
ENDBRANCH  36  38
ENDBRANCH   1  36
TORSDOF 7
