REMARK  Name = ZINC25436091
REMARK  14 active torsions:
REMARK  status: ('A' for Active; 'I' for Inactive)
REMARK    1  A    between atoms: C_1  and  C_2
REMARK    2  A    between atoms: C_2  and  O_3
REMARK    3  A    between atoms: O_3  and  C_4
REMARK    4  A    between atoms: C_4  and  C_6
REMARK    5  A    between atoms: C_10  and  N_11
REMARK    6  A    between atoms: C_12  and  C_14
REMARK    7  A    between atoms: C_14  and  N_15
REMARK    8  A    between atoms: N_15  and  C_16
REMARK    9  A    between atoms: N_15  and  C_17
REMARK   10  A    between atoms: N_20  and  C_23
REMARK   11  A    between atoms: C_24  and  C_30
REMARK   12  A    between atoms: C_24  and  C_31
REMARK   13  A    between atoms: C_26  and  C_28
REMARK   14  A    between atoms: C_26  and  C_29
REMARK                            x       y       z     vdW  Elec       q    Type
REMARK                         _______ _______ _______ _____ _____    ______ ____
ROOT
ATOM      1  C   UNL     1       1.357   3.432   0.007  0.00  0.00    +0.091 A 
ATOM      2  C   UNL     1       2.719   3.921   0.002  0.00  0.00    -0.024 A 
ATOM      3  C   UNL     1       3.681   2.970  -0.018  0.00  0.00    -0.016 A 
ATOM      4  S   UNL     1       2.795   1.439  -0.019  0.00  0.00    -0.079 S 
ATOM      5  C   UNL     1       1.174   2.053   0.002  0.00  0.00    +0.086 A 
ATOM      6  C   UNL     1       5.157   3.197  -0.042  0.00  0.00    -0.041 C 
ATOM      7  N   UNL     1       5.490   4.603   0.163  0.00  0.00    +0.389 N 
ATOM      8  C   UNL     1       4.484   5.463   0.764  0.00  0.00    -0.069 C 
ATOM      9  C   UNL     1       3.144   5.383   0.024  0.00  0.00    +0.024 C 
ATOM     10  C   UNL     1       4.268   5.109   2.239  0.00  0.00    -0.010 C 
ATOM     11  C   UNL     1       4.976   6.920   0.695  0.00  0.00    -0.010 C 
ATOM     12  C   UNL     1       5.824   2.329   1.034  0.00  0.00    -0.005 C 
ATOM     13  C   UNL     1       5.695   2.750  -1.414  0.00  0.00    -0.005 C 
ATOM     14  H   UNL     1       6.365   4.680   0.826  0.00  0.00    -0.084 HD
ATOM     15  H   UNL     1       5.723   5.070  -0.806  0.00  0.00    -0.084 HD
ENDROOT
BRANCH   5  16
ATOM     16  N   UNL     1      -0.016   1.344   0.009  0.00  0.00    -0.281 N 
ATOM     17  C   UNL     1       0.002  -0.004   0.002  0.00  0.00    +0.201 C 
ATOM     18  O   UNL     1       1.060  -0.596  -0.011  0.00  0.00    -0.278 OA
ATOM     19  H   UNL     1      -0.976   1.881   0.021  0.00  0.00    +0.155 HD
BRANCH  17  20
ATOM     20  C   UNL     1      -1.293  -0.775   0.010  0.00  0.00    +0.019 C 
BRANCH  20  21
ATOM     21  N   UNL     1      -1.005  -2.216  -0.000  0.00  0.00    +0.385 N 
ATOM     22  C   UNL     1      -0.367  -2.616  -1.262  0.00  0.00    -0.095 C 
ATOM     23  H   UNL     1      -0.298  -2.425   0.817  0.00  0.00    -0.081 HD
BRANCH  21  24
ATOM     24  C   UNL     1      -2.224  -2.998   0.245  0.00  0.00    -0.066 C 
ATOM     25  C   UNL     1      -2.800  -2.630   1.615  0.00  0.00    +0.000 C 
ATOM     26  C   UNL     1      -4.035  -3.491   1.891  0.00  0.00    +0.082 C 
ATOM     27  N   UNL     1      -3.659  -4.911   1.864  0.00  0.00    -0.305 NA
ATOM     28  C   UNL     1      -3.146  -5.299   0.544  0.00  0.00    +0.082 C 
ATOM     29  C   UNL     1      -1.885  -4.491   0.227  0.00  0.00    +0.000 C 
ATOM     30  C   UNL     1      -4.788  -5.762   2.261  0.00  0.00    +0.104 C 
ENDBRANCH  21  24
ENDBRANCH  20  21
ENDBRANCH  17  20
ENDBRANCH   5  16
BRANCH   1  31
ATOM     31  C   UNL     1       0.209   4.341   0.015  0.00  0.00    +0.342 C 
ATOM     32  O   UNL     1      -0.265   4.714   1.072  0.00  0.00    -0.245 OA
BRANCH  31  33
ATOM     33  O   UNL     1      -0.324   4.765  -1.149  0.00  0.00    -0.461 OA
BRANCH  33  35
ATOM     34  C   UNL     1      -1.924   6.033  -2.477  0.00  0.00    +0.048 C 
ATOM     35  C   UNL     1      -1.461   5.664  -1.066  0.00  0.00    +0.229 C 
ENDBRANCH  33  35
ENDBRANCH  31  33
ENDBRANCH   1  31
TORSDOF 7
