REMARK  Name = ZINC27528350
REMARK  8 active torsions:
REMARK  status: ('A' for Active; 'I' for Inactive)
REMARK    1  A    between atoms: C_1  and  C_2
REMARK    2  A    between atoms: C_2  and  O_3
REMARK    3  A    between atoms: O_3  and  C_4
REMARK    4  A    between atoms: C_4  and  C_6
REMARK    5  A    between atoms: C_7  and  C_23
REMARK    6  A    between atoms: C_10  and  N_11
REMARK    7  A    between atoms: C_12  and  C_14
REMARK    8  A    between atoms: C_17  and  N_20
REMARK                            x       y       z     vdW  Elec       q    Type
REMARK                         _______ _______ _______ _____ _____    ______ ____
ROOT
ATOM      1  C   UNL     1       1.329   2.063   0.001  0.00  0.00    +0.094 A 
ATOM      2  C   UNL     1       2.269   0.968  -0.014  0.00  0.00    +0.019 A 
ATOM      3  C   UNL     1       1.762  -0.278  -0.016  0.00  0.00    +0.055 A 
ATOM      4  S   UNL     1       0.002  -0.004   0.002  0.00  0.00    -0.081 S 
ATOM      5  C   UNL     1      -0.021   1.727   0.011  0.00  0.00    +0.086 A 
ENDROOT
BRANCH   2   6
ATOM      6  C   UNL     1       3.757   1.209  -0.028  0.00  0.00    +0.242 C 
ATOM      7  C   UNL     1       4.266   1.379   1.410  0.00  0.00    +0.278 C 
ATOM      8  O   UNL     1       5.681   1.594   1.361  0.00  0.00    -0.484 OA
ATOM      9  C   UNL     1       6.398   0.762   0.557  0.00  0.00    +0.162 A 
ATOM     10  C   UNL     1       7.772   0.669   0.726  0.00  0.00    +0.049 A 
ATOM     11  C   UNL     1       8.514  -0.167  -0.087  0.00  0.00    +0.004 A 
ATOM     12  C   UNL     1       7.890  -0.912  -1.070  0.00  0.00    +0.004 A 
ATOM     13  C   UNL     1       6.522  -0.825  -1.243  0.00  0.00    +0.049 A 
ATOM     14  C   UNL     1       5.771   0.011  -0.430  0.00  0.00    +0.163 A 
ATOM     15  O   UNL     1       4.423   0.084  -0.610  0.00  0.00    -0.477 OA
ENDBRANCH   2   6
BRANCH   5  16
ATOM     16  N   UNL     1      -1.118   2.573   0.022  0.00  0.00    -0.275 N 
ATOM     17  C   UNL     1      -2.365   2.060   0.026  0.00  0.00    +0.249 C 
ATOM     18  O   UNL     1      -2.526   0.855   0.020  0.00  0.00    -0.270 OA
ATOM     19  H   UNL     1      -0.972   3.663   0.026  0.00  0.00    +0.156 HD
BRANCH  17  20
ATOM     20  C   UNL     1      -3.535   2.962   0.036  0.00  0.00    +0.037 A 
ATOM     21  C   UNL     1      -3.353   4.346   0.048  0.00  0.00    +0.015 A 
ATOM     22  C   UNL     1      -4.450   5.183   0.052  0.00  0.00    +0.033 A 
ATOM     23  C   UNL     1      -5.728   4.653   0.056  0.00  0.00    +0.126 A 
ATOM     24  C   UNL     1      -5.915   3.282   0.051  0.00  0.00    +0.033 A 
ATOM     25  C   UNL     1      -4.827   2.434   0.041  0.00  0.00    +0.015 A 
BRANCH  23  26
ATOM     26  N   UNL     1      -6.900   5.557   0.066  0.00  0.00    +0.056 N 
ATOM     27  O   UNL     1      -8.027   5.093   0.069  0.00  0.00    -0.126 OA
ATOM     28  O   UNL     1      -6.739   6.764   0.071  0.00  0.00    -0.126 OA
ENDBRANCH  23  26
ENDBRANCH  17  20
ENDBRANCH   5  16
BRANCH   1  29
ATOM     29  C   UNL     1       1.774   3.458   0.003  0.00  0.00    +0.342 C 
ATOM     30  O   UNL     1       1.969   4.032   1.058  0.00  0.00    -0.245 OA
BRANCH  29  31
ATOM     31  O   UNL     1       1.967   4.106  -1.164  0.00  0.00    -0.461 OA
BRANCH  31  33
ATOM     32  C   UNL     1       2.572   6.052  -2.498  0.00  0.00    +0.048 C 
ATOM     33  C   UNL     1       2.409   5.487  -1.085  0.00  0.00    +0.229 C 
ENDBRANCH  31  33
ENDBRANCH  29  31
ENDBRANCH   1  29
TORSDOF 7
