REMARK  Name = ZINC48521118
REMARK  6 active torsions:
REMARK  status: ('A' for Active; 'I' for Inactive)
REMARK    1  A    between atoms: C_1  and  C_2
REMARK    2  A    between atoms: C_2  and  C_4
REMARK    3  A    between atoms: C_2  and  N_10
REMARK    4  A    between atoms: N_13  and  C_14
REMARK    5  A    between atoms: C_17  and  S_20
REMARK    6  A    between atoms: S_20  and  C_21
REMARK                            x       y       z     vdW  Elec       q    Type
REMARK                         _______ _______ _______ _____ _____    ______ ____
ROOT
ATOM      1  N   UNL     1       0.687  -0.482  -1.202  0.00  0.00    -0.294 N 
ATOM      2  C   UNL     1       2.031  -0.585  -1.216  0.00  0.00    +0.304 C 
ATOM      3  O   UNL     1       2.674  -0.284  -0.229  0.00  0.00    -0.252 OA
ATOM      4  N   UNL     1       2.662  -1.022  -2.324  0.00  0.00    -0.269 N 
ATOM      5  H   UNL     1       0.174  -0.722  -1.989  0.00  0.00    +0.151 HD
ATOM      6  H   UNL     1       2.147  -1.325  -3.088  0.00  0.00    +0.156 HD
ENDROOT
BRANCH   4   7
ATOM      7  C   UNL     1       4.063  -1.037  -2.373  0.00  0.00    +0.035 A 
ATOM      8  C   UNL     1       4.719  -0.758  -3.564  0.00  0.00    +0.024 A 
ATOM      9  C   UNL     1       6.098  -0.773  -3.612  0.00  0.00    +0.017 A 
ATOM     10  C   UNL     1       6.830  -1.067  -2.469  0.00  0.00    +0.016 A 
ATOM     11  C   UNL     1       6.173  -1.347  -1.277  0.00  0.00    +0.017 A 
ATOM     12  C   UNL     1       4.794  -1.326  -1.228  0.00  0.00    +0.024 A 
BRANCH  10  13
ATOM     13  S   UNL     1       8.591  -1.087  -2.530  0.00  0.00    -0.016 S 
BRANCH  13  14
ATOM     14  C   UNL     1       9.085  -1.511  -0.837  0.00  0.00    +0.448 C 
ATOM     15  F   UNL     1       8.555  -2.760  -0.496  0.00  0.00    -0.160 F 
ATOM     16  F   UNL     1      10.481  -1.558  -0.756  0.00  0.00    -0.160 F 
ATOM     17  F   UNL     1       8.599  -0.542   0.047  0.00  0.00    -0.160 F 
ENDBRANCH  13  14
ENDBRANCH  10  13
ENDBRANCH   4   7
BRANCH   1  19
ATOM     18  C   UNL     1      -0.028   1.522   0.004  0.00  0.00    +0.030 C 
ATOM     19  C   UNL     1       0.002  -0.008   0.003  0.00  0.00    +0.100 C 
BRANCH  19  20
ATOM     20  C   UNL     1      -1.431  -0.545   0.019  0.00  0.00    +0.138 C 
ATOM     21  C   UNL     1      -2.146  -0.130   1.330  0.00  0.00    +0.035 C 
ATOM     22  C   UNL     1      -3.632  -0.174   0.881  0.00  0.00    +0.031 C 
ATOM     23  C   UNL     1      -3.544   0.281  -0.591  0.00  0.00    +0.160 C 
ATOM     24  O   UNL     1      -2.200   0.053  -1.036  0.00  0.00    -0.375 OA
ENDBRANCH  19  20
ENDBRANCH   1  19
TORSDOF 5
