REMARK  Name = ZINC12563900
REMARK  14 active torsions:
REMARK  status: ('A' for Active; 'I' for Inactive)
REMARK    1  A    between atoms: C_1  and  C_2
REMARK    2  A    between atoms: C_5  and  N_9
REMARK    3  A    between atoms: C_6  and  C_8
REMARK    4  A    between atoms: N_9  and  S_10
REMARK    5  A    between atoms: S_10  and  C_13
REMARK    6  A    between atoms: C_16  and  N_22
REMARK    7  A    between atoms: C_17  and  N_19
REMARK    8  A    between atoms: N_22  and  N_23
REMARK    9  A    between atoms: C_24  and  C_25
REMARK   10  A    between atoms: C_24  and  C_26
REMARK   11  A    between atoms: C_29  and  O_34
REMARK   12  A    between atoms: C_31  and  O_32
REMARK   13  A    between atoms: O_32  and  C_33
REMARK   14  A    between atoms: O_34  and  C_35
REMARK                            x       y       z     vdW  Elec       q    Type
REMARK                         _______ _______ _______ _____ _____    ______ ____
ROOT
ATOM      1  C   UNL     1      -0.051  -0.063   0.155  0.00  0.00    +0.111 A 
ATOM      2  C   UNL     1       1.069  -0.878   0.229  0.00  0.00    +0.031 A 
ATOM      3  C   UNL     1       2.327  -0.321   0.286  0.00  0.00    +0.029 A 
ATOM      4  C   UNL     1       2.474   1.072   0.270  0.00  0.00    +0.079 A 
ATOM      5  C   UNL     1       1.338   1.888   0.195  0.00  0.00    +0.150 A 
ATOM      6  C   UNL     1       0.086   1.316   0.139  0.00  0.00    +0.063 A 
ENDROOT
BRANCH   1   7
ATOM      7  S   UNL     1      -1.657  -0.785   0.082  0.00  0.00    +0.072 S 
ATOM      8  O   UNL     1      -1.547  -2.078   0.662  0.00  0.00    -0.150 OA
ATOM      9  O   UNL     1      -2.564   0.194   0.569  0.00  0.00    -0.150 OA
BRANCH   7  10
ATOM     10  N   UNL     1      -2.019  -1.013  -1.518  0.00  0.00    -0.216 N 
ATOM     11  H   UNL     1      -2.789  -0.572  -1.908  0.00  0.00    +0.174 HD
BRANCH  10  16
ATOM     12  C   UNL     1       1.245  -4.372  -4.715  0.00  0.00    +0.044 C 
ATOM     13  C   UNL     1       0.378  -3.479  -3.865  0.00  0.00    -0.050 A 
ATOM     14  C   UNL     1       0.154  -3.795  -2.537  0.00  0.00    +0.005 A 
ATOM     15  C   UNL     1      -0.640  -2.980  -1.756  0.00  0.00    +0.025 A 
ATOM     16  C   UNL     1      -1.214  -1.840  -2.305  0.00  0.00    +0.051 A 
ATOM     17  C   UNL     1      -0.991  -1.527  -3.639  0.00  0.00    -0.028 A 
ATOM     18  C   UNL     1      -0.191  -2.345  -4.414  0.00  0.00    +0.008 A 
ATOM     19  C   UNL     1      -1.616  -0.295  -4.241  0.00  0.00    +0.046 C 
ENDBRANCH  10  16
ENDBRANCH   7  10
ENDBRANCH   1   7
BRANCH   5  20
ATOM     20  N   UNL     1       1.483   3.362   0.177  0.00  0.00    +0.058 N 
ATOM     21  O   UNL     1       0.426   4.125  -0.011  0.00  0.00    -0.126 OA
ATOM     22  O   UNL     1       2.668   3.909   0.349  0.00  0.00    -0.126 OA
ENDBRANCH   5  20
BRANCH   4  23
ATOM     23  N   UNL     1       3.724   1.634   0.327  0.00  0.00    -0.235 N 
ATOM     24  H   UNL     1       3.821   2.597   0.397  0.00  0.00    +0.174 HD
BRANCH  23  25
ATOM     25  N   UNL     1       4.772   0.882   0.287  0.00  0.00    -0.187 NA
ATOM     26  C   UNL     1       5.998   1.434   0.343  0.00  0.00    +0.067 C 
ATOM     27  C   UNL     1       6.148   2.929   0.452  0.00  0.00    +0.068 C 
BRANCH  26  28
ATOM     28  C   UNL     1       7.127   0.624   0.300  0.00  0.00    +0.039 A 
ATOM     29  C   UNL     1       8.472   1.207   0.353  0.00  0.00    +0.017 A 
ATOM     30  C   UNL     1       9.550   0.389   0.313  0.00  0.00    +0.046 A 
ATOM     31  C   UNL     1       9.401  -1.007   0.212  0.00  0.00    +0.124 A 
ATOM     32  C   UNL     1       8.148  -1.607   0.153  0.00  0.00    +0.091 A 
ATOM     33  C   UNL     1       7.001  -0.843   0.193  0.00  0.00    +0.132 A 
BRANCH  33  34
ATOM     34  O   UNL     1       5.783  -1.427   0.136  0.00  0.00    -0.494 OA
ATOM     35  C   UNL     1       5.751  -2.852   0.034  0.00  0.00    +0.277 C 
ENDBRANCH  33  34
BRANCH  31  36
ATOM     36  O   UNL     1      10.504  -1.785   0.170  0.00  0.00    -0.495 OA
ATOM     37  C   UNL     1      11.768  -1.121   0.234  0.00  0.00    +0.277 C 
ENDBRANCH  31  36
ENDBRANCH  26  28
ENDBRANCH  23  25
ENDBRANCH   4  23
TORSDOF 9
