REMARK  Name = ZINC06763252
REMARK  8 active torsions:
REMARK  status: ('A' for Active; 'I' for Inactive)
REMARK    1  A    between atoms: C_1  and  C_2
REMARK    2  A    between atoms: C_2  and  C_3
REMARK    3  A    between atoms: C_2  and  N_4
REMARK    4  A    between atoms: C_13  and  C_15
REMARK    5  A    between atoms: C_15  and  O_17
REMARK    6  A    between atoms: O_17  and  C_18
REMARK    7  A    between atoms: C_18  and  C_19
REMARK    8  A    between atoms: C_19  and  N_20
REMARK                            x       y       z     vdW  Elec       q    Type
REMARK                         _______ _______ _______ _____ _____    ______ ____
ROOT
ATOM      1  C   UNL     1       2.441  -2.949  -0.038  0.00  0.00    +0.360 C 
ATOM      2  O   UNL     1       3.515  -2.381  -0.045  0.00  0.00    -0.243 OA
ENDROOT
BRANCH   1  12
ATOM      3  N   UNL     1      -1.098  -2.162   0.000  0.00  0.00    -0.226 N 
ATOM      4  C   UNL     1      -1.221  -0.819   0.009  0.00  0.00    +0.275 A 
ATOM      5  O   UNL     1      -2.319  -0.294   0.022  0.00  0.00    -0.266 OA
ATOM      6  C   UNL     1       0.002  -0.004   0.002  0.00  0.00    +0.050 A 
ATOM      7  C   UNL     1      -0.017   1.387   0.010  0.00  0.00    +0.014 A 
ATOM      8  C   UNL     1       1.176   2.079   0.002  0.00  0.00    +0.001 A 
ATOM      9  C   UNL     1       2.389   1.403  -0.013  0.00  0.00    +0.001 A 
ATOM     10  C   UNL     1       2.428   0.024  -0.021  0.00  0.00    +0.011 A 
ATOM     11  C   UNL     1       1.237  -0.693  -0.013  0.00  0.00    +0.021 A 
ATOM     12  C   UNL     1       1.192  -2.164  -0.021  0.00  0.00    +0.176 A 
ATOM     13  N   UNL     1       0.028  -2.769  -0.014  0.00  0.00    -0.161 NA
BRANCH   3  15
ATOM     14  C   UNL     1      -2.360  -3.846  -1.247  0.00  0.00    +0.032 C 
ATOM     15  C   UNL     1      -2.320  -2.970   0.007  0.00  0.00    +0.105 C 
ATOM     16  C   UNL     1      -2.336  -3.860   1.251  0.00  0.00    +0.032 C 
ENDBRANCH   3  15
ENDBRANCH   1  12
BRANCH   1  17
ATOM     17  O   UNL     1       2.390  -4.296  -0.045  0.00  0.00    -0.458 OA
BRANCH  17  18
ATOM     18  C   UNL     1       3.658  -5.003  -0.062  0.00  0.00    +0.252 C 
BRANCH  18  19
ATOM     19  C   UNL     1       3.401  -6.511  -0.068  0.00  0.00    +0.158 C 
BRANCH  19  20
ATOM     20  N   UNL     1       2.731  -6.887  -1.315  0.00  0.00    -0.231 N 
ATOM     21  C   UNL     1       1.397  -6.922  -1.482  0.00  0.00    +0.254 C 
ATOM     22  O   UNL     1       0.569  -6.650  -0.636  0.00  0.00    -0.270 OA
ATOM     23  C   UNL     1       1.107  -7.343  -2.869  0.00  0.00    +0.049 A 
ATOM     24  C   UNL     1      -0.055  -7.550  -3.595  0.00  0.00    +0.014 A 
ATOM     25  C   UNL     1       0.023  -7.962  -4.916  0.00  0.00    +0.001 A 
ATOM     26  C   UNL     1       1.252  -8.169  -5.513  0.00  0.00    +0.001 A 
ATOM     27  C   UNL     1       2.423  -7.966  -4.800  0.00  0.00    +0.014 A 
ATOM     28  C   UNL     1       2.360  -7.554  -3.478  0.00  0.00    +0.049 A 
ATOM     29  C   UNL     1       3.370  -7.249  -2.443  0.00  0.00    +0.254 C 
ATOM     30  O   UNL     1       4.574  -7.314  -2.586  0.00  0.00    -0.270 OA
ENDBRANCH  19  20
ENDBRANCH  18  19
ENDBRANCH  17  18
ENDBRANCH   1  17
TORSDOF 6
