REMARK  Name = ZINC40958702
REMARK  8 active torsions:
REMARK  status: ('A' for Active; 'I' for Inactive)
REMARK    1  A    between atoms: C_1  and  C_2
REMARK    2  A    between atoms: C_5  and  C_9
REMARK    3  A    between atoms: C_7  and  C_8
REMARK    4  A    between atoms: C_10  and  C_11
REMARK    5  A    between atoms: N_13  and  C_14
REMARK    6  A    between atoms: N_17  and  C_20
REMARK    7  A    between atoms: C_20  and  C_21
REMARK    8  A    between atoms: C_23  and  C_26
REMARK                            x       y       z     vdW  Elec       q    Type
REMARK                         _______ _______ _______ _____ _____    ______ ____
ROOT
ATOM      1  C   UNL     1       0.104  -8.510  -2.380  0.00  0.00    +0.070 C 
ATOM      2  C   UNL     1       1.550  -9.003  -2.274  0.00  0.00    +0.004 C 
ATOM      3  C   UNL     1       1.569 -10.531  -2.363  0.00  0.00    -0.076 C 
ATOM      4  N   UNL     1       0.998 -10.957  -3.646  0.00  0.00    +0.386 N 
ATOM      5  C   UNL     1      -0.410 -10.550  -3.724  0.00  0.00    -0.076 C 
ATOM      6  C   UNL     1      -0.506  -9.023  -3.687  0.00  0.00    +0.004 C 
ATOM      7  H   UNL     1       1.513 -10.530  -4.401  0.00  0.00    -0.081 HD
ENDROOT
BRANCH   1  10
ATOM      8  C   UNL     1       0.082  -6.378  -1.201  0.00  0.00    +0.237 C 
ATOM      9  O   UNL     1       0.095  -6.992  -0.150  0.00  0.00    -0.271 OA
ATOM     10  N   UNL     1       0.085  -7.045  -2.372  0.00  0.00    -0.309 N 
ATOM     11  H   UNL     1       0.074  -6.555  -3.209  0.00  0.00    +0.149 HD
BRANCH   8  13
ATOM     12  C   UNL     1       0.059  -4.246  -0.021  0.00  0.00    +0.013 C 
ATOM     13  C   UNL     1       0.062  -4.913  -1.192  0.00  0.00    +0.068 C 
BRANCH  12  18
ATOM     14  C   UNL     1      -0.018   1.503   0.010  0.00  0.00    +0.044 C 
ATOM     15  C   UNL     1       0.002  -0.004   0.002  0.00  0.00    -0.048 A 
ATOM     16  C   UNL     1       0.006  -0.686  -1.203  0.00  0.00    +0.004 A 
ATOM     17  C   UNL     1       0.024  -2.064  -1.218  0.00  0.00    +0.008 A 
ATOM     18  C   UNL     1       0.040  -2.774  -0.013  0.00  0.00    -0.025 A 
ATOM     19  C   UNL     1       0.036  -2.078   1.199  0.00  0.00    +0.011 A 
ATOM     20  C   UNL     1       0.023  -0.699   1.199  0.00  0.00    -0.047 A 
ATOM     21  C   UNL     1       0.025   0.054   2.504  0.00  0.00    +0.044 C 
ENDBRANCH  12  18
ENDBRANCH   8  13
ENDBRANCH   1  10
BRANCH   4  22
ATOM     22  C   UNL     1       1.090 -12.419  -3.760  0.00  0.00    +0.022 C 
BRANCH  22  23
ATOM     23  C   UNL     1       0.617 -12.847  -5.125  0.00  0.00    +0.211 A 
ATOM     24  N   UNL     1       1.366 -12.977  -6.183  0.00  0.00    -0.193 NA
ATOM     25  C   UNL     1       0.619 -13.375  -7.229  0.00  0.00    +0.202 A 
ATOM     26  N   UNL     1      -0.624 -13.500  -6.832  0.00  0.00    -0.056 NA
ATOM     27  O   UNL     1      -0.642 -13.164  -5.453  0.00  0.00    -0.340 OA
BRANCH  25  28
ATOM     28  C   UNL     1       1.119 -13.630  -8.602  0.00  0.00    +0.023 A 
ATOM     29  C   UNL     1       2.472 -13.465  -8.895  0.00  0.00    +0.014 A 
ATOM     30  C   UNL     1       2.933 -13.703 -10.174  0.00  0.00    +0.039 A 
ATOM     31  C   UNL     1       2.053 -14.105 -11.166  0.00  0.00    +0.123 A 
ATOM     32  C   UNL     1       0.707 -14.270 -10.879  0.00  0.00    +0.039 A 
ATOM     33  C   UNL     1       0.239 -14.040  -9.602  0.00  0.00    +0.014 A 
ATOM     34  F   UNL     1       2.508 -14.337 -12.416  0.00  0.00    -0.205 F 
ENDBRANCH  25  28
ENDBRANCH  22  23
ENDBRANCH   4  22
TORSDOF 6
