REMARK  Name = ZINC36606490
REMARK  15 active torsions:
REMARK  status: ('A' for Active; 'I' for Inactive)
REMARK    1  A    between atoms: C_1  and  C_2
REMARK    2  A    between atoms: C_2  and  C_3
REMARK    3  A    between atoms: C_3  and  C_4
REMARK    4  A    between atoms: C_4  and  C_5
REMARK    5  A    between atoms: C_5  and  C_6
REMARK    6  A    between atoms: C_7  and  C_8
REMARK    7  A    between atoms: N_10  and  C_11
REMARK    8  A    between atoms: N_10  and  C_17
REMARK    9  A    between atoms: C_17  and  C_19
REMARK   10  A    between atoms: C_17  and  C_26
REMARK   11  A    between atoms: C_22  and  C_25
REMARK   12  A    between atoms: N_28  and  C_29
REMARK   13  A    between atoms: C_29  and  S_30
REMARK   14  A    between atoms: S_30  and  C_33
REMARK   15  A    between atoms: C_36  and  C_39
REMARK                            x       y       z     vdW  Elec       q    Type
REMARK                         _______ _______ _______ _____ _____    ______ ____
ROOT
ATOM      1  C   UNL     1      -5.353  -4.243   4.622  0.00  0.00    +0.197 C 
ENDROOT
BRANCH   1   2
ATOM      2  C   UNL     1      -6.671  -4.765   5.134  0.00  0.00    -0.018 A 
ATOM      3  C   UNL     1      -6.897  -6.127   5.197  0.00  0.00    +0.006 A 
ATOM      4  C   UNL     1      -8.106  -6.606   5.667  0.00  0.00    +0.004 A 
ATOM      5  C   UNL     1      -9.089  -5.722   6.073  0.00  0.00    -0.050 A 
ATOM      6  C   UNL     1      -8.862  -4.360   6.011  0.00  0.00    +0.004 A 
ATOM      7  C   UNL     1      -7.651  -3.881   5.545  0.00  0.00    +0.006 A 
ATOM      8  C   UNL     1     -10.407  -6.244   6.584  0.00  0.00    +0.044 C 
ENDBRANCH   1   2
BRANCH   1   9
ATOM      9  C   UNL     1      -4.237  -4.755   5.496  0.00  0.00    +0.240 C 
ATOM     10  O   UNL     1      -3.356  -5.436   5.017  0.00  0.00    -0.273 OA
ATOM     11  N   UNL     1      -4.218  -4.454   6.810  0.00  0.00    -0.294 N 
ATOM     12  H   UNL     1      -4.923  -3.909   7.193  0.00  0.00    +0.150 HD
BRANCH  11  13
ATOM     13  C   UNL     1      -3.133  -4.951   7.660  0.00  0.00    +0.278 C 
BRANCH  13  14
ATOM     14  S   UNL     1      -1.841  -3.684   7.794  0.00  0.00    +0.013 S 
ATOM     15  O   UNL     1      -0.811  -4.127   8.666  0.00  0.00    -0.168 OA
ATOM     16  O   UNL     1      -1.529  -3.165   6.508  0.00  0.00    -0.168 OA
BRANCH  14  17
ATOM     17  C   UNL     1      -2.607  -2.345   8.645  0.00  0.00    +0.090 A 
ATOM     18  C   UNL     1      -3.261  -1.357   7.934  0.00  0.00    +0.027 A 
ATOM     19  C   UNL     1      -3.862  -0.306   8.602  0.00  0.00    +0.005 A 
ATOM     20  C   UNL     1      -3.809  -0.245   9.982  0.00  0.00    -0.050 A 
ATOM     21  C   UNL     1      -3.156  -1.234  10.694  0.00  0.00    +0.005 A 
ATOM     22  C   UNL     1      -2.559  -2.286  10.026  0.00  0.00    +0.027 A 
ATOM     23  C   UNL     1      -4.463   0.901  10.710  0.00  0.00    +0.044 C 
ENDBRANCH  14  17
ENDBRANCH  13  14
ENDBRANCH  11  13
ENDBRANCH   1   9
BRANCH   1  26
ATOM     24  C   UNL     1      -4.072  -4.285   2.550  0.00  0.00    +0.244 C 
ATOM     25  O   UNL     1      -3.325  -3.451   3.027  0.00  0.00    -0.270 OA
ATOM     26  N   UNL     1      -5.146  -4.704   3.247  0.00  0.00    -0.252 N 
BRANCH  26  27
ATOM     27  C   UNL     1      -6.064  -5.578   2.657  0.00  0.00    +0.038 A 
ATOM     28  C   UNL     1      -5.713  -6.901   2.421  0.00  0.00    +0.023 A 
ATOM     29  C   UNL     1      -6.622  -7.762   1.838  0.00  0.00    +0.002 A 
ATOM     30  C   UNL     1      -7.881  -7.309   1.490  0.00  0.00    +0.000 A 
ATOM     31  C   UNL     1      -8.234  -5.992   1.723  0.00  0.00    +0.002 A 
ATOM     32  C   UNL     1      -7.332  -5.128   2.311  0.00  0.00    +0.023 A 
ENDBRANCH  26  27
BRANCH  24  34
ATOM     33  C   UNL     1      -2.667  -4.535   0.587  0.00  0.00    -0.022 C 
ATOM     34  C   UNL     1      -3.801  -4.835   1.214  0.00  0.00    +0.063 C 
BRANCH  33  35
ATOM     35  C   UNL     1      -1.524  -3.919   1.353  0.00  0.00    +0.027 C 
BRANCH  35  36
ATOM     36  C   UNL     1      -0.243  -4.711   1.081  0.00  0.00    +0.004 C 
BRANCH  36  37
ATOM     37  C   UNL     1       0.917  -4.086   1.858  0.00  0.00    +0.000 C 
BRANCH  37  39
ATOM     38  C   UNL     1       3.359  -4.253   2.363  0.00  0.00    +0.004 C 
ATOM     39  C   UNL     1       2.198  -4.878   1.586  0.00  0.00    -0.003 C 
ENDBRANCH  37  39
ENDBRANCH  36  37
ENDBRANCH  35  36
ENDBRANCH  33  35
ENDBRANCH  24  34
ENDBRANCH   1  26
TORSDOF 12
