REMARK  Name = ZINC09781480
REMARK  9 active torsions:
REMARK  status: ('A' for Active; 'I' for Inactive)
REMARK    1  A    between atoms: C_1  and  C_2
REMARK    2  A    between atoms: C_2  and  C_4
REMARK    3  A    between atoms: C_2  and  C_29
REMARK    4  A    between atoms: C_4  and  N_5
REMARK    5  A    between atoms: C_6  and  C_8
REMARK    6  A    between atoms: C_8  and  S_9
REMARK    7  A    between atoms: S_9  and  C_10
REMARK    8  A    between atoms: C_13  and  C_23
REMARK    9  A    between atoms: N_14  and  C_15
REMARK                            x       y       z     vdW  Elec       q    Type
REMARK                         _______ _______ _______ _____ _____    ______ ____
ROOT
ATOM      1  C   UNL     1       1.906   5.621   0.053  0.00  0.00    +0.197 A 
ATOM      2  N   UNL     1       0.604   5.566   0.232  0.00  0.00    -0.122 NA
ATOM      3  N   UNL     1       0.193   4.354   0.118  0.00  0.00    -0.128 NA
ATOM      4  C   UNL     1       1.205   3.558  -0.140  0.00  0.00    +0.169 A 
ATOM      5  N   UNL     1       2.336   4.345  -0.184  0.00  0.00    -0.270 N 
ENDROOT
BRANCH   5   6
ATOM      6  C   UNL     1       3.652   3.925  -0.426  0.00  0.00    +0.052 A 
ATOM      7  C   UNL     1       4.297   4.299  -1.597  0.00  0.00    +0.028 A 
ATOM      8  C   UNL     1       5.593   3.885  -1.833  0.00  0.00    +0.023 A 
ATOM      9  C   UNL     1       6.250   3.098  -0.903  0.00  0.00    +0.059 A 
ATOM     10  C   UNL     1       5.609   2.723   0.266  0.00  0.00    +0.061 A 
ATOM     11  C   UNL     1       4.313   3.140   0.508  0.00  0.00    +0.047 A 
ATOM     12 CL   UNL     1       6.435   1.736   1.430  0.00  0.00    -0.082 Cl
ATOM     13 CL   UNL     1       7.879   2.579  -1.204  0.00  0.00    -0.082 Cl
ENDBRANCH   5   6
BRANCH   4  14
ATOM     14  C   UNL     1       1.145   2.096  -0.340  0.00  0.00    +0.022 A 
ATOM     15  C   UNL     1       0.032   1.357   0.082  0.00  0.00    +0.031 A 
ATOM     16  C   UNL     1       0.018  -0.006  -0.125  0.00  0.00    +0.111 A 
ATOM     17  N   UNL     1       1.032  -0.614  -0.712  0.00  0.00    -0.263 NA
ATOM     18  C   UNL     1       2.098   0.044  -1.125  0.00  0.00    +0.111 A 
ATOM     19  C   UNL     1       2.197   1.409  -0.958  0.00  0.00    +0.031 A 
ENDBRANCH   4  14
BRANCH   1  20
ATOM     20  S   UNL     1       2.910   7.067   0.116  0.00  0.00    -0.076 S 
BRANCH  20  21
ATOM     21  C   UNL     1       1.645   8.312   0.476  0.00  0.00    +0.173 C 
BRANCH  21  23
ATOM     22  N   UNL     1       1.539  10.756   0.841  0.00  0.00    -0.314 N 
ATOM     23  C   UNL     1       2.292   9.669   0.577  0.00  0.00    +0.223 C 
ATOM     24  O   UNL     1       3.489   9.784   0.422  0.00  0.00    -0.275 OA
ATOM     25  H   UNL     1       0.581  10.664   0.965  0.00  0.00    +0.149 HD
BRANCH  22  26
ATOM     26  C   UNL     1       2.167  12.076   0.939  0.00  0.00    +0.112 C 
BRANCH  26  28
ATOM     27  C   UNL     1       0.130  13.227   0.062  0.00  0.00    +0.014 C 
ATOM     28  C   UNL     1       1.098  13.128   1.243  0.00  0.00    +0.033 C 
BRANCH  28  29
ATOM     29  C   UNL     1       1.757  14.464   1.466  0.00  0.00    -0.043 A 
ATOM     30  C   UNL     1       2.519  15.035   0.464  0.00  0.00    +0.004 A 
ATOM     31  C   UNL     1       3.120  16.263   0.667  0.00  0.00    +0.000 A 
ATOM     32  C   UNL     1       2.968  16.916   1.875  0.00  0.00    +0.000 A 
ATOM     33  C   UNL     1       2.211  16.343   2.880  0.00  0.00    +0.000 A 
ATOM     34  C   UNL     1       1.605  15.117   2.675  0.00  0.00    +0.004 A 
ENDBRANCH  28  29
ENDBRANCH  26  28
ENDBRANCH  22  26
ENDBRANCH  21  23
ENDBRANCH  20  21
ENDBRANCH   1  20
TORSDOF 8
