REMARK  Name = ZINC38746874
REMARK  9 active torsions:
REMARK  status: ('A' for Active; 'I' for Inactive)
REMARK    1  A    between atoms: C_1  and  C_2
REMARK    2  A    between atoms: C_2  and  O_3
REMARK    3  A    between atoms: O_3  and  C_4
REMARK    4  A    between atoms: C_4  and  C_6
REMARK    5  A    between atoms: C_10  and  N_11
REMARK    6  A    between atoms: C_12  and  C_14
REMARK    7  A    between atoms: C_14  and  S_15
REMARK    8  A    between atoms: S_15  and  C_16
REMARK    9  A    between atoms: C_24  and  C_32
REMARK                            x       y       z     vdW  Elec       q    Type
REMARK                         _______ _______ _______ _____ _____    ______ ____
ROOT
ATOM      1  N   UNL     1      -0.604  -2.455  -3.925  0.00  0.00    -0.279 N 
ATOM      2  C   UNL     1      -1.119  -2.783  -5.126  0.00  0.00    +0.228 C 
ATOM      3  O   UNL     1      -0.397  -3.225  -5.995  0.00  0.00    -0.275 OA
ATOM      4  H   UNL     1      -1.181  -2.102  -3.230  0.00  0.00    +0.155 HD
ENDROOT
BRANCH   1   9
ATOM      5  C   UNL     1       1.449  -2.344  -2.516  0.00  0.00    +0.091 A 
ATOM      6  C   UNL     1       2.876  -2.619  -2.515  0.00  0.00    -0.021 A 
ATOM      7  C   UNL     1       3.343  -3.117  -3.680  0.00  0.00    -0.004 A 
ATOM      8  S   UNL     1       1.922  -3.212  -4.730  0.00  0.00    -0.077 S 
ATOM      9  C   UNL     1       0.750  -2.624  -3.681  0.00  0.00    +0.086 A 
ATOM     10  C   UNL     1       4.757  -3.498  -3.993  0.00  0.00    +0.043 C 
ATOM     11  C   UNL     1       5.669  -2.887  -2.920  0.00  0.00    +0.005 C 
ATOM     12  C   UNL     1       5.082  -3.191  -1.538  0.00  0.00    +0.005 C 
ATOM     13  C   UNL     1       3.799  -2.383  -1.329  0.00  0.00    +0.037 C 
BRANCH   5  14
ATOM     14  C   UNL     1       0.776  -1.800  -1.335  0.00  0.00    +0.342 C 
ATOM     15  O   UNL     1       0.312  -2.552  -0.499  0.00  0.00    -0.245 OA
BRANCH  14  16
ATOM     16  O   UNL     1       0.671  -0.465  -1.174  0.00  0.00    -0.461 OA
BRANCH  16  18
ATOM     17  C   UNL     1      -0.019   1.526   0.010  0.00  0.00    +0.048 C 
ATOM     18  C   UNL     1       0.002  -0.004   0.002  0.00  0.00    +0.229 C 
ENDBRANCH  16  18
ENDBRANCH  14  16
ENDBRANCH   5  14
ENDBRANCH   1   9
BRANCH   2  19
ATOM     19  C   UNL     1      -2.591  -2.599  -5.391  0.00  0.00    +0.173 C 
BRANCH  19  20
ATOM     20  S   UNL     1      -2.971  -3.126  -7.085  0.00  0.00    -0.079 S 
BRANCH  20  21
ATOM     21  C   UNL     1      -4.705  -2.853  -7.236  0.00  0.00    +0.182 C 
ATOM     22  N   UNL     1      -5.358  -2.359  -6.199  0.00  0.00    -0.151 NA
ATOM     23  C   UNL     1      -6.668  -2.114  -6.222  0.00  0.00    +0.272 C 
ATOM     24  O   UNL     1      -7.239  -1.659  -5.245  0.00  0.00    -0.268 OA
ATOM     25  C   UNL     1      -7.418  -2.415  -7.484  0.00  0.00    +0.071 C 
ATOM     26  C   UNL     1      -8.716  -2.188  -7.744  0.00  0.00    -0.042 C 
ATOM     27  C   UNL     1      -9.645  -1.407  -6.817  0.00  0.00    +0.033 C 
ATOM     28  C   UNL     1     -10.255  -0.275  -7.655  0.00  0.00    +0.008 C 
ATOM     29  C   UNL     1     -10.890  -0.840  -8.924  0.00  0.00    -0.012 C 
ATOM     30  C   UNL     1      -9.832  -1.492  -9.819  0.00  0.00    +0.022 C 
ATOM     31  C   UNL     1      -9.244  -2.697  -9.081  0.00  0.00    +0.080 C 
ATOM     32  S   UNL     1      -7.707  -3.252  -9.911  0.00  0.00    -0.097 S 
ATOM     33  C   UNL     1      -6.580  -2.973  -8.568  0.00  0.00    +0.112 C 
ATOM     34  N   UNL     1      -5.296  -3.151  -8.394  0.00  0.00    -0.217 NA
ATOM     35  C   UNL     1     -11.938  -1.886  -8.540  0.00  0.00    +0.007 C 
ENDBRANCH  20  21
ENDBRANCH  19  20
ENDBRANCH   2  19
TORSDOF 7
