REMARK  Name = ZINC19938757
REMARK  9 active torsions:
REMARK  status: ('A' for Active; 'I' for Inactive)
REMARK    1  A    between atoms: C_1  and  C_2
REMARK    2  A    between atoms: C_2  and  O_3
REMARK    3  A    between atoms: O_3  and  C_4
REMARK    4  A    between atoms: C_6  and  C_14
REMARK    5  A    between atoms: C_8  and  N_11
REMARK    6  A    between atoms: C_9  and  O_10
REMARK    7  A    between atoms: C_19  and  C_24
REMARK    8  A    between atoms: C_27  and  O_30
REMARK    9  A    between atoms: O_30  and  C_31
REMARK                            x       y       z     vdW  Elec       q    Type
REMARK                         _______ _______ _______ _____ _____    ______ ____
ROOT
ATOM      1  C   UNL     1       0.202   6.490  -0.471  0.00  0.00    +0.136 C 
ATOM      2  C   UNL     1      -0.864   6.777  -1.503  0.00  0.00    +0.036 C 
ATOM      3  C   UNL     1      -1.503   7.946  -1.673  0.00  0.00    +0.017 C 
ATOM      4  C   UNL     1      -2.588   8.083  -2.728  0.00  0.00    +0.059 C 
ATOM      5  C   UNL     1      -2.258   7.197  -3.930  0.00  0.00    +0.032 C 
ATOM      6  C   UNL     1      -2.181   5.748  -3.434  0.00  0.00    +0.088 C 
ATOM      7  C   UNL     1      -1.166   5.672  -2.334  0.00  0.00    +0.163 C 
ATOM      8  O   UNL     1      -0.581   4.623  -2.149  0.00  0.00    -0.292 OA
ATOM      9  N   UNL     1      -1.273   9.070  -0.948  0.00  0.00    -0.316 N 
ATOM     10  C   UNL     1      -1.173   9.112   0.438  0.00  0.00    +0.052 A 
ATOM     11  C   UNL     1      -2.051   9.843   1.219  0.00  0.00    +0.025 A 
ATOM     12  C   UNL     1      -1.832   9.931   2.584  0.00  0.00    +0.002 A 
ATOM     13  C   UNL     1      -0.748   9.294   3.159  0.00  0.00    +0.002 A 
ATOM     14  C   UNL     1       0.119   8.546   2.381  0.00  0.00    +0.025 A 
ATOM     15  C   UNL     1      -0.106   8.443   1.018  0.00  0.00    +0.049 A 
ATOM     16  N   UNL     1       0.714   7.665   0.202  0.00  0.00    -0.331 N 
ATOM     17  H   UNL     1      -1.152  10.037  -1.458  0.00  0.00    +0.152 HD
ATOM     18  H   UNL     1       1.766   7.958   0.073  0.00  0.00    +0.147 HD
ENDROOT
BRANCH   1  21
ATOM     19  C   UNL     1      -0.395   3.422   1.650  0.00  0.00    +0.164 A 
ATOM     20  C   UNL     1       0.133   4.279   0.699  0.00  0.00    +0.055 A 
ATOM     21  C   UNL     1      -0.374   5.559   0.564  0.00  0.00    -0.017 A 
ATOM     22  C   UNL     1      -1.407   5.985   1.378  0.00  0.00    +0.042 A 
ATOM     23  C   UNL     1      -1.938   5.135   2.330  0.00  0.00    +0.171 A 
ATOM     24  C   UNL     1      -1.438   3.849   2.465  0.00  0.00    +0.189 A 
BRANCH  23  25
ATOM     25  N   UNL     1      -3.043   5.595   3.199  0.00  0.00    +0.060 N 
ATOM     26  O   UNL     1      -3.485   6.723   3.077  0.00  0.00    -0.126 OA
ATOM     27  O   UNL     1      -3.511   4.845   4.038  0.00  0.00    -0.126 OA
ENDBRANCH  23  25
BRANCH  24  28
ATOM     28  O   UNL     1      -1.963   3.009   3.397  0.00  0.00    -0.502 OA
ATOM     29  H   UNL     1      -2.788   3.348   4.041  0.00  0.00    +0.292 HD
ENDBRANCH  24  28
BRANCH  19  30
ATOM     30  O   UNL     1       0.103   2.163   1.784  0.00  0.00    -0.488 OA
BRANCH  30  32
ATOM     31  C   UNL     1       1.594   0.351   1.206  0.00  0.00    +0.048 C 
ATOM     32  C   UNL     1       1.170   1.791   0.909  0.00  0.00    +0.226 C 
ENDBRANCH  30  32
ENDBRANCH  19  30
ENDBRANCH   1  21
BRANCH   5  33
ATOM     33  C   UNL     1      -3.341   7.324  -4.970  0.00  0.00    -0.043 A 
ATOM     34  C   UNL     1      -4.649   7.011  -4.647  0.00  0.00    +0.007 A 
ATOM     35  C   UNL     1      -5.644   7.132  -5.597  0.00  0.00    +0.046 A 
ATOM     36  C   UNL     1      -5.329   7.557  -6.880  0.00  0.00    +0.120 A 
ATOM     37  C   UNL     1      -4.016   7.865  -7.203  0.00  0.00    +0.046 A 
ATOM     38  C   UNL     1      -3.025   7.748  -6.247  0.00  0.00    +0.007 A 
BRANCH  36  39
ATOM     39  O   UNL     1      -6.306   7.672  -7.817  0.00  0.00    -0.495 OA
ATOM     40  C   UNL     1      -7.635   7.338  -7.414  0.00  0.00    +0.277 C 
ENDBRANCH  36  39
ENDBRANCH   5  33
TORSDOF 7
