REMARK  Name = ZINC39737883
REMARK  11 active torsions:
REMARK  status: ('A' for Active; 'I' for Inactive)
REMARK    1  A    between atoms: C_1  and  C_2
REMARK    2  A    between atoms: C_3  and  C_34
REMARK    3  A    between atoms: C_4  and  C_33
REMARK    4  A    between atoms: C_7  and  C_8
REMARK    5  A    between atoms: C_8  and  C_10
REMARK    6  A    between atoms: C_10  and  C_12
REMARK    7  A    between atoms: C_10  and  S_13
REMARK    8  A    between atoms: S_13  and  C_14
REMARK    9  A    between atoms: C_18  and  C_27
REMARK   10  A    between atoms: N_19  and  C_20
REMARK   11  A    between atoms: C_34  and  C_36
REMARK                            x       y       z     vdW  Elec       q    Type
REMARK                         _______ _______ _______ _____ _____    ______ ____
ROOT
ATOM      1  C   UNL     1       0.527  -2.247   5.728  0.00  0.00    +0.242 C 
ATOM      2  N   UNL     1      -0.845  -2.780   5.779  0.00  0.00    -0.237 N 
ATOM      3  N   UNL     1      -0.730  -4.132   6.125  0.00  0.00    -0.168 NA
ATOM      4  C   UNL     1       0.506  -4.476   6.285  0.00  0.00    +0.153 C 
ATOM      5  N   UNL     1       1.374  -3.402   6.070  0.00  0.00    -0.254 N 
ATOM      6  H   UNL     1      -1.665  -2.292   5.608  0.00  0.00    +0.171 HD
ENDROOT
BRANCH   5   7
ATOM      7  C   UNL     1       2.769  -3.419   6.159  0.00  0.00    +0.038 A 
ATOM      8  C   UNL     1       3.538  -3.607   5.018  0.00  0.00    +0.026 A 
ATOM      9  C   UNL     1       4.916  -3.623   5.109  0.00  0.00    +0.040 A 
ATOM     10  C   UNL     1       5.531  -3.453   6.337  0.00  0.00    +0.124 A 
ATOM     11  C   UNL     1       4.767  -3.266   7.477  0.00  0.00    +0.040 A 
ATOM     12  C   UNL     1       3.389  -3.243   7.390  0.00  0.00    +0.026 A 
ATOM     13  F   UNL     1       6.879  -3.470   6.424  0.00  0.00    -0.205 F 
ENDBRANCH   5   7
BRANCH   4  14
ATOM     14  C   UNL     1       0.947  -5.838   6.652  0.00  0.00    +0.020 A 
ATOM     15  C   UNL     1       2.307  -6.172   6.676  0.00  0.00    +0.029 A 
ATOM     16  C   UNL     1       2.674  -7.455   7.025  0.00  0.00    +0.083 A 
ATOM     17  N   UNL     1       1.764  -8.360   7.333  0.00  0.00    -0.367 N 
ATOM     18  C   UNL     1       0.473  -8.087   7.323  0.00  0.00    +0.083 A 
ATOM     19  C   UNL     1       0.018  -6.829   6.992  0.00  0.00    +0.029 A 
ATOM     20  H   UNL     1       2.054  -9.254   7.575  0.00  0.00    +0.165 HD
ENDBRANCH   4  14
BRANCH   1  21
ATOM     21  S   UNL     1       0.914  -1.646   4.061  0.00  0.00    -0.107 S 
BRANCH  21  22
ATOM     22  C   UNL     1       0.626  -3.087   2.997  0.00  0.00    +0.119 C 
ATOM     23  C   UNL     1      -0.858  -3.456   3.029  0.00  0.00    +0.027 C 
BRANCH  22  24
ATOM     24  C   UNL     1       1.032  -2.757   1.583  0.00  0.00    +0.192 C 
ATOM     25  O   UNL     1       1.034  -1.603   1.207  0.00  0.00    -0.289 OA
BRANCH  24  32
ATOM     26  C   UNL     1       1.903  -2.329  -1.368  0.00  0.00    +0.047 C 
ATOM     27  C   UNL     1       1.800  -3.631  -0.616  0.00  0.00    -0.012 A 
ATOM     28  C   UNL     1       2.091  -4.920  -1.118  0.00  0.00    +0.041 A 
ATOM     29  C   UNL     1       1.859  -5.820  -0.088  0.00  0.00    +0.024 A 
ATOM     30  N   UNL     1       1.449  -5.140   0.991  0.00  0.00    -0.355 N 
ATOM     31  H   UNL     1       1.219  -5.533   1.848  0.00  0.00    +0.166 HD
ATOM     32  C   UNL     1       1.410  -3.792   0.695  0.00  0.00    +0.087 A 
ATOM     33  C   UNL     1       2.038  -7.314  -0.170  0.00  0.00    +0.064 C 
BRANCH  28  34
ATOM     34  C   UNL     1       2.550  -5.244  -2.472  0.00  0.00    +0.162 C 
ATOM     35  O   UNL     1       1.744  -5.501  -3.341  0.00  0.00    -0.292 OA
ATOM     36  C   UNL     1       4.024  -5.259  -2.784  0.00  0.00    +0.091 C 
ENDBRANCH  28  34
ENDBRANCH  24  32
ENDBRANCH  22  24
ENDBRANCH  21  22
ENDBRANCH   1  21
TORSDOF 7
