REMARK  Name = ZINC13499095
REMARK  12 active torsions:
REMARK  status: ('A' for Active; 'I' for Inactive)
REMARK    1  A    between atoms: C_1  and  C_2
REMARK    2  A    between atoms: C_4  and  C_36
REMARK    3  A    between atoms: C_7  and  C_14
REMARK    4  A    between atoms: C_14  and  N_69
REMARK    5  A    between atoms: C_15  and  N_69
REMARK    6  A    between atoms: C_20  and  C_22
REMARK    7  A    between atoms: C_20  and  C_33
REMARK    8  A    between atoms: C_20  and  N_69
REMARK    9  A    between atoms: N_26  and  C_27
REMARK   10  A    between atoms: C_27  and  C_28
REMARK   11  A    between atoms: C_33  and  C_34
REMARK   12  A    between atoms: C_33  and  C_35
REMARK                            x       y       z     vdW  Elec       q    Type
REMARK                         _______ _______ _______ _____ _____    ______ ____
ROOT
ATOM      1  N   UNL     1      -0.373   1.405  -0.370  0.00  0.00    +0.391 N 
ATOM      2  H   UNL     1      -0.518   1.503   0.642  0.00  0.00    -0.080 HD
ENDROOT
BRANCH   1   3
ATOM      3  C   UNL     1      -0.867   0.079  -0.799  0.00  0.00    -0.067 C 
ATOM      4  C   UNL     1      -0.769  -0.081  -2.330  0.00  0.00    -0.015 C 
ATOM      5  C   UNL     1      -2.040  -0.881  -2.710  0.00  0.00    -0.002 C 
ATOM      6  C   UNL     1      -3.112  -0.293  -1.759  0.00  0.00    -0.002 C 
ATOM      7  C   UNL     1      -2.356  -0.056  -0.436  0.00  0.00    -0.015 C 
ENDBRANCH   1   3
BRANCH   1   8
ATOM      8  C   UNL     1       1.071   1.525  -0.662  0.00  0.00    -0.036 C 
BRANCH   8  15
ATOM      9  C   UNL     1       5.108  -4.055   3.361  0.00  0.00    +0.044 C 
ATOM     10  C   UNL     1       4.353  -3.150   2.421  0.00  0.00    -0.048 A 
ATOM     11  C   UNL     1       4.099  -3.568   1.122  0.00  0.00    +0.007 A 
ATOM     12  C   UNL     1       3.416  -2.763   0.255  0.00  0.00    -0.041 A 
ATOM     13  C   UNL     1       2.970  -1.507   0.679  0.00  0.00    +0.002 A 
ATOM     14  C   UNL     1       2.232  -0.621  -0.223  0.00  0.00    +0.017 A 
ATOM     15  C   UNL     1       1.829   0.587   0.242  0.00  0.00    +0.001 A 
ATOM     16  C   UNL     1       2.112   0.968   1.571  0.00  0.00    +0.251 A 
ATOM     17  O   UNL     1       1.737   2.056   1.970  0.00  0.00    -0.268 OA
ATOM     18  N   UNL     1       2.785   0.159   2.408  0.00  0.00    -0.322 N 
ATOM     19  H   UNL     1       2.963   0.452   3.316  0.00  0.00    +0.169 HD
ATOM     20  C   UNL     1       3.227  -1.080   1.995  0.00  0.00    +0.050 A 
ATOM     21  C   UNL     1       3.923  -1.917   2.861  0.00  0.00    +0.029 A 
ATOM     22  C   UNL     1       3.144  -3.227  -1.153  0.00  0.00    +0.044 C 
ENDBRANCH   8  15
ENDBRANCH   1   8
BRANCH   1  23
ATOM     23  C   UNL     1      -1.120   2.472  -1.068  0.00  0.00    +0.006 C 
BRANCH  23  24
ATOM     24  C   UNL     1      -0.414   2.861  -2.341  0.00  0.00    +0.139 A 
ATOM     25  N   UNL     1       0.852   3.175  -2.469  0.00  0.00    -0.115 NA
ATOM     26  N   UNL     1       1.072   3.444  -3.710  0.00  0.00    -0.023 NA
ATOM     27  N   UNL     1      -0.022   3.316  -4.376  0.00  0.00    -0.044 NA
ATOM     28  N   UNL     1      -0.962   2.958  -3.567  0.00  0.00    -0.223 N 
BRANCH  28  29
ATOM     29  C   UNL     1      -2.362   2.704  -3.917  0.00  0.00    +0.221 C 
BRANCH  29  30
ATOM     30  C   UNL     1      -3.150   3.982  -3.791  0.00  0.00    +0.126 A 
ATOM     31  C   UNL     1      -3.339   4.889  -4.766  0.00  0.00    +0.046 A 
ATOM     32  C   UNL     1      -4.135   5.921  -4.218  0.00  0.00    +0.041 A 
ATOM     33  C   UNL     1      -4.377   5.587  -2.937  0.00  0.00    +0.195 A 
ATOM     34  O   UNL     1      -3.778   4.412  -2.684  0.00  0.00    -0.466 OA
ENDBRANCH  29  30
ENDBRANCH  28  29
ENDBRANCH  23  24
BRANCH  23  35
ATOM     35  C   UNL     1      -1.211   3.688  -0.144  0.00  0.00    -0.024 C 
ATOM     36  C   UNL     1      -1.933   3.295   1.147  0.00  0.00    +0.006 C 
ATOM     37  C   UNL     1       0.199   4.180   0.191  0.00  0.00    +0.006 C 
ENDBRANCH  23  35
ENDBRANCH   1  23
TORSDOF 8
