REMARK  Name = ZINC25256154
REMARK  5 active torsions:
REMARK  status: ('A' for Active; 'I' for Inactive)
REMARK    1  A    between atoms: C_1  and  C_2
REMARK    2  A    between atoms: C_2  and  C_4
REMARK    3  A    between atoms: C_2  and  S_17
REMARK    4  A    between atoms: S_17  and  C_18
REMARK    5  A    between atoms: N_26  and  C_29
REMARK                            x       y       z     vdW  Elec       q    Type
REMARK                         _______ _______ _______ _____ _____    ______ ____
ROOT
ATOM      1  C   UNL     1       1.675   1.838   2.550  0.00  0.00    +0.172 A 
ATOM      2  N   UNL     1       2.650   1.660   3.488  0.00  0.00    -0.301 N 
ATOM      3  H   UNL     1       2.474   0.992   4.344  0.00  0.00    +0.171 HD
ATOM      4  C   UNL     1       3.834   2.301   3.371  0.00  0.00    +0.263 A 
ATOM      5  O   UNL     1       4.713   2.146   4.200  0.00  0.00    -0.267 OA
ATOM      6  C   UNL     1       4.025   3.162   2.261  0.00  0.00    +0.103 A 
ATOM      7  C   UNL     1       5.089   3.976   1.821  0.00  0.00    +0.150 A 
ATOM      8  N   UNL     1       4.725   4.568   0.718  0.00  0.00    -0.172 NA
ATOM      9  N   UNL     1       3.423   4.178   0.383  0.00  0.00    -0.214 N 
ATOM     10  C   UNL     1       2.981   3.307   1.333  0.00  0.00    +0.171 A 
ATOM     11  N   UNL     1       1.838   2.634   1.516  0.00  0.00    -0.204 NA
ENDROOT
BRANCH   9  12
ATOM     12  C   UNL     1       2.699   4.609  -0.737  0.00  0.00    +0.069 A 
ATOM     13  C   UNL     1       1.834   3.736  -1.384  0.00  0.00    +0.028 A 
ATOM     14  C   UNL     1       1.118   4.164  -2.484  0.00  0.00    +0.003 A 
ATOM     15  C   UNL     1       1.270   5.458  -2.949  0.00  0.00    +0.020 A 
ATOM     16  C   UNL     1       2.135   6.329  -2.310  0.00  0.00    +0.043 A 
ATOM     17  C   UNL     1       2.850   5.907  -1.205  0.00  0.00    +0.047 A 
ATOM     18 CL   UNL     1       2.322   7.951  -2.897  0.00  0.00    -0.083 Cl
ENDBRANCH   9  12
BRANCH   1  19
ATOM     19  S   UNL     1       0.147   0.980   2.733  0.00  0.00    -0.075 S 
BRANCH  19  21
ATOM     20  C   UNL     1      -0.013   1.086   0.008  0.00  0.00    +0.029 C 
ATOM     21  C   UNL     1      -0.729   1.579   1.267  0.00  0.00    +0.137 C 
BRANCH  21  22
ATOM     22  C   UNL     1      -2.143   1.058   1.278  0.00  0.00    +0.233 C 
ATOM     23  O   UNL     1      -2.427   0.089   1.950  0.00  0.00    -0.274 OA
ATOM     24  N   UNL     1      -3.091   1.667   0.539  0.00  0.00    -0.260 N 
ATOM     25  C   UNL     1      -2.774   2.847  -0.280  0.00  0.00    +0.209 C 
ATOM     26  C   UNL     1      -3.881   3.856  -0.145  0.00  0.00    +0.235 C 
ATOM     27  O   UNL     1      -3.632   5.036  -0.270  0.00  0.00    -0.274 OA
ATOM     28  N   UNL     1      -5.143   3.466   0.117  0.00  0.00    -0.283 N 
ATOM     29  C   UNL     1      -5.447   2.115   0.314  0.00  0.00    +0.055 A 
ATOM     30  C   UNL     1      -4.415   1.200   0.533  0.00  0.00    +0.058 A 
ATOM     31  C   UNL     1      -4.702  -0.137   0.737  0.00  0.00    +0.025 A 
ATOM     32  C   UNL     1      -6.017  -0.567   0.720  0.00  0.00    +0.002 A 
ATOM     33  C   UNL     1      -7.041   0.336   0.501  0.00  0.00    +0.002 A 
ATOM     34  C   UNL     1      -6.761   1.675   0.298  0.00  0.00    +0.025 A 
ATOM     35  H   UNL     1      -5.948   4.213   0.178  0.00  0.00    +0.155 HD
ENDBRANCH  21  22
ENDBRANCH  19  21
ENDBRANCH   1  19
TORSDOF 4
