REMARK  Name = ZINC16973111
REMARK  6 active torsions:
REMARK  status: ('A' for Active; 'I' for Inactive)
REMARK    1  A    between atoms: C_1  and  O_2
REMARK    2  A    between atoms: O_2  and  C_3
REMARK    3  A    between atoms: C_8  and  C_9
REMARK    4  A    between atoms: C_22  and  S_24
REMARK    5  A    between atoms: S_24  and  C_25
REMARK    6  A    between atoms: C_25  and  C_26
REMARK                            x       y       z     vdW  Elec       q    Type
REMARK                         _______ _______ _______ _____ _____    ______ ____
ROOT
ATOM      1  C   UNL     1       0.018  -2.829  -0.013  0.00  0.00    +0.166 C 
ATOM      2  C   UNL     1       0.606  -2.813   1.386  0.00  0.00    +0.041 C 
ATOM      3  C   UNL     1       0.800  -4.028   2.015  0.00  0.00    +0.027 C 
ATOM      4  C   UNL     1       1.377  -4.068   3.410  0.00  0.00    +0.054 C 
ATOM      5  C   UNL     1       2.309  -2.872   3.612  0.00  0.00    +0.014 C 
ATOM      6  C   UNL     1       1.519  -1.580   3.378  0.00  0.00    +0.080 C 
ATOM      7  C   UNL     1       0.930  -1.610   1.991  0.00  0.00    +0.163 C 
ATOM      8  O   UNL     1       0.737  -0.566   1.396  0.00  0.00    -0.292 OA
ATOM      9  N   UNL     1       0.487  -5.165   1.412  0.00  0.00    -0.330 N 
ATOM     10  C   UNL     1      -0.026  -5.268   0.193  0.00  0.00    +0.215 C 
ATOM     11  N   UNL     1      -0.285  -4.155  -0.564  0.00  0.00    -0.208 N 
ATOM     12  N   UNL     1      -0.818  -4.602  -1.776  0.00  0.00    -0.239 N 
ATOM     13  C   UNL     1      -0.857  -5.967  -1.696  0.00  0.00    +0.174 C 
ATOM     14  N   UNL     1      -0.383  -6.338  -0.529  0.00  0.00    -0.192 NA
ATOM     15  H   UNL     1       0.646  -5.988   1.901  0.00  0.00    +0.168 HD
ATOM     16  H   UNL     1      -1.103  -4.054  -2.524  0.00  0.00    +0.172 HD
ENDROOT
BRANCH   1  22
ATOM     17  C   UNL     1      -1.725  -1.444  -1.166  0.00  0.00    +0.125 A 
ATOM     18  C   UNL     1      -2.901  -0.707  -1.149  0.00  0.00    +0.046 A 
ATOM     19  C   UNL     1      -3.598  -0.549   0.032  0.00  0.00    +0.004 A 
ATOM     20  C   UNL     1      -3.125  -1.123   1.198  0.00  0.00    +0.001 A 
ATOM     21  C   UNL     1      -1.953  -1.857   1.184  0.00  0.00    +0.009 A 
ATOM     22  C   UNL     1      -1.255  -2.023   0.003  0.00  0.00    +0.021 A 
BRANCH  17  24
ATOM     23  C   UNL     1      -1.580  -0.977  -3.493  0.00  0.00    +0.277 C 
ATOM     24  O   UNL     1      -1.038  -1.602  -2.328  0.00  0.00    -0.495 OA
ENDBRANCH  17  24
ENDBRANCH   1  22
BRANCH  13  25
ATOM     25  S   UNL     1      -1.444  -7.052  -2.954  0.00  0.00    -0.084 S 
BRANCH  25  26
ATOM     26  C   UNL     1      -1.232  -8.706  -2.241  0.00  0.00    +0.115 C 
BRANCH  26  27
ATOM     27  C   UNL     1      -1.703  -9.743  -3.229  0.00  0.00    -0.002 A 
ATOM     28  C   UNL     1      -3.022 -10.155  -3.223  0.00  0.00    +0.007 A 
ATOM     29  C   UNL     1      -3.453 -11.106  -4.129  0.00  0.00    +0.000 A 
ATOM     30  C   UNL     1      -2.566 -11.645  -5.042  0.00  0.00    +0.003 A 
ATOM     31  C   UNL     1      -1.247 -11.234  -5.050  0.00  0.00    +0.038 A 
ATOM     32  C   UNL     1      -0.815 -10.278  -4.146  0.00  0.00    +0.127 A 
ATOM     33  F   UNL     1       0.474  -9.871  -4.157  0.00  0.00    -0.205 F 
ENDBRANCH  26  27
ENDBRANCH  25  26
ENDBRANCH  13  25
TORSDOF 5
