REMARK  Name = ZINC03240842
REMARK  10 active torsions:
REMARK  status: ('A' for Active; 'I' for Inactive)
REMARK    1  A    between atoms: C_1  and  O_2
REMARK    2  A    between atoms: O_2  and  C_3
REMARK    3  A    between atoms: C_8  and  N_9
REMARK    4  A    between atoms: C_10  and  C_12
REMARK    5  A    between atoms: C_12  and  S_13
REMARK    6  A    between atoms: S_13  and  C_14
REMARK    7  A    between atoms: C_17  and  C_29
REMARK    8  A    between atoms: N_18  and  C_19
REMARK    9  A    between atoms: C_22  and  S_25
REMARK   10  A    between atoms: S_25  and  C_26
REMARK                            x       y       z     vdW  Elec       q    Type
REMARK                         _______ _______ _______ _____ _____    ______ ____
ROOT
ATOM      1  C   UNL     1      -2.180   1.831   0.958  0.00  0.00    +0.197 A 
ATOM      2  N   UNL     1      -3.098   2.697   0.591  0.00  0.00    -0.122 NA
ATOM      3  N   UNL     1      -2.763   3.253  -0.518  0.00  0.00    -0.128 NA
ATOM      4  C   UNL     1      -1.608   2.782  -0.926  0.00  0.00    +0.171 A 
ATOM      5  N   UNL     1      -1.200   1.851   0.004  0.00  0.00    -0.270 N 
ENDROOT
BRANCH   5   6
ATOM      6  C   UNL     1      -0.023   1.087  -0.019  0.00  0.00    +0.051 A 
ATOM      7  C   UNL     1       1.209   1.706   0.142  0.00  0.00    +0.027 A 
ATOM      8  C   UNL     1       2.367   0.955   0.113  0.00  0.00    +0.017 A 
ATOM      9  C   UNL     1       2.300  -0.419  -0.077  0.00  0.00    +0.013 A 
ATOM     10  C   UNL     1       1.066  -1.038  -0.239  0.00  0.00    +0.017 A 
ATOM     11  C   UNL     1      -0.091  -0.287  -0.210  0.00  0.00    +0.027 A 
BRANCH   9  12
ATOM     12  S   UNL     1       3.778  -1.378  -0.115  0.00  0.00    -0.056 S 
BRANCH  12  13
ATOM     13  C   UNL     1       5.098  -0.158   0.134  0.00  0.00    +0.404 C 
ATOM     14  F   UNL     1       5.057   0.789  -0.895  0.00  0.00    -0.197 F 
ATOM     15  F   UNL     1       4.916   0.482   1.364  0.00  0.00    -0.197 F 
ENDBRANCH  12  13
ENDBRANCH   9  12
ENDBRANCH   5   6
BRANCH   4  16
ATOM     16  C   UNL     1      -0.883   3.173  -2.153  0.00  0.00    +0.038 A 
ATOM     17  C   UNL     1       0.131   2.358  -2.672  0.00  0.00    +0.014 A 
ATOM     18  C   UNL     1       0.779   2.769  -3.823  0.00  0.00    +0.020 A 
ATOM     19  C   UNL     1       0.408   3.961  -4.420  0.00  0.00    +0.111 A 
ATOM     20  N   UNL     1      -0.551   4.709  -3.909  0.00  0.00    -0.263 NA
ATOM     21  C   UNL     1      -1.201   4.357  -2.818  0.00  0.00    +0.122 A 
ENDBRANCH   4  16
BRANCH   1  22
ATOM     22  S   UNL     1      -2.207   0.831   2.409  0.00  0.00    -0.076 S 
BRANCH  22  23
ATOM     23  C   UNL     1      -3.778   1.367   3.131  0.00  0.00    +0.173 C 
BRANCH  23  25
ATOM     24  N   UNL     1      -5.134   0.859   5.136  0.00  0.00    -0.282 N 
ATOM     25  C   UNL     1      -4.018   0.622   4.419  0.00  0.00    +0.228 C 
ATOM     26  O   UNL     1      -3.207  -0.190   4.810  0.00  0.00    -0.275 OA
ATOM     27  H   UNL     1      -5.815   1.458   4.790  0.00  0.00    +0.155 HD
BRANCH  24  33
ATOM     28  C   UNL     1      -5.994   0.904   7.399  0.00  0.00    +0.141 A 
ATOM     29  C   UNL     1      -6.166   0.288   8.628  0.00  0.00    +0.047 A 
ATOM     30  C   UNL     1      -5.662  -0.982   8.841  0.00  0.00    +0.004 A 
ATOM     31  C   UNL     1      -4.986  -1.640   7.831  0.00  0.00    +0.002 A 
ATOM     32  C   UNL     1      -4.814  -1.035   6.601  0.00  0.00    +0.027 A 
ATOM     33  C   UNL     1      -5.312   0.241   6.381  0.00  0.00    +0.076 A 
BRANCH  28  35
ATOM     34  C   UNL     1      -7.178   2.771   8.276  0.00  0.00    +0.277 C 
ATOM     35  O   UNL     1      -6.489   2.152   7.187  0.00  0.00    -0.493 OA
ENDBRANCH  28  35
ENDBRANCH  24  33
ENDBRANCH  23  25
ENDBRANCH  22  23
ENDBRANCH   1  22
TORSDOF 9
