REMARK  Name = ZINC64644202
REMARK  6 active torsions:
REMARK  status: ('A' for Active; 'I' for Inactive)
REMARK    1  A    between atoms: C_5  and  C_7
REMARK    2  A    between atoms: N_9  and  N_10
REMARK    3  A    between atoms: N_13  and  C_14
REMARK    4  A    between atoms: C_14  and  C_15
REMARK    5  A    between atoms: N_19  and  C_21
REMARK    6  A    between atoms: C_21  and  C_22
REMARK                            x       y       z     vdW  Elec       q    Type
REMARK                         _______ _______ _______ _____ _____    ______ ____
ROOT
ATOM      1  N   UNL     1       0.121  -4.256  -0.022  0.00  0.00    -0.218 N 
ATOM      2  C   UNL     1      -1.033  -4.952  -0.015  0.00  0.00    +0.316 C 
ATOM      3  O   UNL     1      -1.010  -6.167  -0.022  0.00  0.00    -0.251 OA
ATOM      4  N   UNL     1      -2.212  -4.300   0.001  0.00  0.00    -0.298 N 
ATOM      5  H   UNL     1       0.970  -4.725  -0.034  0.00  0.00    +0.174 HD
ATOM      6  H   UNL     1      -2.231  -3.330   0.007  0.00  0.00    +0.150 HD
ENDROOT
BRANCH   1   9
ATOM      7  C   UNL     1       1.250  -2.160  -0.022  0.00  0.00    +0.263 C 
ATOM      8  O   UNL     1       2.314  -2.748  -0.036  0.00  0.00    -0.269 OA
ATOM      9  N   UNL     1       0.095  -2.855  -0.014  0.00  0.00    -0.229 N 
ATOM     10  H   UNL     1      -0.753  -2.386  -0.003  0.00  0.00    +0.173 HD
BRANCH   7  15
ATOM     11  C   UNL     1      -0.017   1.374   0.010  0.00  0.00    +0.001 A 
ATOM     12  C   UNL     1       1.170   2.087   0.002  0.00  0.00    +0.003 A 
ATOM     13  C   UNL     1       2.383   1.425  -0.013  0.00  0.00    +0.039 A 
ATOM     14  C   UNL     1       2.418   0.042  -0.021  0.00  0.00    +0.136 A 
ATOM     15  C   UNL     1       1.222  -0.683  -0.013  0.00  0.00    +0.073 A 
ATOM     16  C   UNL     1       0.002  -0.004   0.002  0.00  0.00    +0.016 A 
ATOM     17  F   UNL     1       3.603  -0.606  -0.037  0.00  0.00    -0.205 F 
ENDBRANCH   7  15
ENDBRANCH   1   9
BRANCH   4  18
ATOM     18  C   UNL     1      -3.467  -5.056   0.009  0.00  0.00    +0.107 C 
BRANCH  18  19
ATOM     19  C   UNL     1      -4.648  -4.083   0.027  0.00  0.00    -0.011 C 
ATOM     20  C   UNL     1      -4.645  -3.299   1.342  0.00  0.00    +0.001 C 
ATOM     21  C   UNL     1      -5.874  -2.386   1.383  0.00  0.00    -0.018 C 
ATOM     22  C   UNL     1      -7.138  -3.233   1.216  0.00  0.00    -0.078 C 
ATOM     23  N   UNL     1      -7.093  -3.937  -0.071  0.00  0.00    +0.383 N 
ATOM     24  C   UNL     1      -5.957  -4.867  -0.090  0.00  0.00    -0.073 C 
ATOM     25  H   UNL     1      -6.988  -3.265  -0.817  0.00  0.00    -0.081 HD
BRANCH  23  26
ATOM     26  C   UNL     1      -8.341  -4.686  -0.262  0.00  0.00    -0.036 C 
BRANCH  26  27
ATOM     27  C   UNL     1      -9.494  -3.722  -0.374  0.00  0.00    -0.027 A 
ATOM     28  C   UNL     1     -10.015  -3.140  -1.482  0.00  0.00    +0.009 A 
ATOM     29  C   UNL     1     -11.086  -2.278  -1.346  0.00  0.00    +0.008 A 
ATOM     30  C   UNL     1     -11.585  -2.039  -0.108  0.00  0.00    +0.045 A 
ATOM     31  S   UNL     1     -10.532  -3.055   0.916  0.00  0.00    -0.103 S 
ENDBRANCH  26  27
ENDBRANCH  23  26
ENDBRANCH  18  19
ENDBRANCH   4  18
TORSDOF 6
