REMARK  Name = ZINC36486835
REMARK  10 active torsions:
REMARK  status: ('A' for Active; 'I' for Inactive)
REMARK    1  A    between atoms: C_1  and  C_2
REMARK    2  A    between atoms: C_2  and  C_3
REMARK    3  A    between atoms: C_3  and  C_4
REMARK    4  A    between atoms: C_4  and  N_5
REMARK    5  A    between atoms: C_6  and  C_8
REMARK    6  A    between atoms: C_8  and  C_10
REMARK    7  A    between atoms: C_8  and  N_19
REMARK    8  A    between atoms: N_19  and  C_20
REMARK    9  A    between atoms: C_27  and  C_29
REMARK   10  A    between atoms: C_29  and  C_30
REMARK                            x       y       z     vdW  Elec       q    Type
REMARK                         _______ _______ _______ _____ _____    ______ ____
ROOT
ATOM      1  N   UNL     1      -4.707  -6.034   0.261  0.00  0.00    -0.255 N 
ATOM      2  C   UNL     1      -4.409  -6.418   1.518  0.00  0.00    +0.225 C 
ATOM      3  O   UNL     1      -3.736  -5.700   2.228  0.00  0.00    -0.275 OA
ENDROOT
BRANCH   1   4
ATOM      4  C   UNL     1      -5.395  -6.904  -0.591  0.00  0.00    +0.039 A 
ATOM      5  C   UNL     1      -4.787  -8.073  -1.031  0.00  0.00    +0.023 A 
ATOM      6  C   UNL     1      -5.469  -8.931  -1.872  0.00  0.00    +0.003 A 
ATOM      7  C   UNL     1      -6.755  -8.626  -2.278  0.00  0.00    +0.020 A 
ATOM      8  C   UNL     1      -7.364  -7.462  -1.843  0.00  0.00    +0.043 A 
ATOM      9  C   UNL     1      -6.689  -6.604  -0.995  0.00  0.00    +0.043 A 
ATOM     10 CL   UNL     1      -8.979  -7.084  -2.355  0.00  0.00    -0.083 Cl
ENDBRANCH   1   4
BRANCH   1  11
ATOM     11  C   UNL     1      -4.309  -4.706  -0.213  0.00  0.00    +0.197 C 
BRANCH  11  12
ATOM     12  C   UNL     1      -4.901  -4.462  -1.577  0.00  0.00    -0.014 A 
ATOM     13  C   UNL     1      -4.626  -5.335  -2.614  0.00  0.00    +0.010 A 
ATOM     14  C   UNL     1      -5.167  -5.116  -3.867  0.00  0.00    +0.050 A 
ATOM     15  C   UNL     1      -5.985  -4.020  -4.088  0.00  0.00    +0.166 A 
ATOM     16  C   UNL     1      -6.261  -3.141  -3.043  0.00  0.00    +0.167 A 
ATOM     17  C   UNL     1      -5.721  -3.370  -1.788  0.00  0.00    +0.055 A 
ATOM     18  O   UNL     1      -7.081  -2.154  -3.509  0.00  0.00    -0.453 OA
ATOM     19  C   UNL     1      -6.974  -2.210  -4.944  0.00  0.00    +0.466 C 
ATOM     20  O   UNL     1      -6.632  -3.584  -5.208  0.00  0.00    -0.453 OA
ENDBRANCH  11  12
BRANCH  11  22
ATOM     21  N   UNL     1      -2.210  -3.496  -0.711  0.00  0.00    -0.313 N 
ATOM     22  C   UNL     1      -2.807  -4.631  -0.296  0.00  0.00    +0.238 C 
ATOM     23  O   UNL     1      -2.133  -5.592   0.011  0.00  0.00    -0.273 OA
ATOM     24  H   UNL     1      -2.749  -2.727  -0.956  0.00  0.00    +0.149 HD
BRANCH  21  25
ATOM     25  C   UNL     1      -0.749  -3.423  -0.792  0.00  0.00    +0.104 C 
BRANCH  25  26
ATOM     26  C   UNL     1      -0.335  -2.036  -1.287  0.00  0.00    +0.018 C 
BRANCH  26  28
ATOM     27  C   UNL     1       1.606  -0.573  -1.867  0.00  0.00    +0.004 C 
ATOM     28  C   UNL     1       1.191  -1.960  -1.371  0.00  0.00    -0.002 C 
ENDBRANCH  26  28
ENDBRANCH  25  26
ENDBRANCH  21  25
ENDBRANCH  11  22
ENDBRANCH   1  11
BRANCH   2  29
ATOM     29  C   UNL     1      -4.912  -7.738   2.042  0.00  0.00    +0.131 C 
BRANCH  29  30
ATOM     30  C   UNL     1      -4.560  -7.866   3.502  0.00  0.00    -0.035 A 
ATOM     31  C   UNL     1      -3.356  -8.433   3.875  0.00  0.00    +0.008 A 
ATOM     32  C   UNL     1      -3.029  -8.552   5.213  0.00  0.00    +0.050 A 
ATOM     33  C   UNL     1      -3.908  -8.103   6.184  0.00  0.00    +0.166 A 
ATOM     34  C   UNL     1      -5.122  -7.531   5.809  0.00  0.00    +0.166 A 
ATOM     35  C   UNL     1      -5.440  -7.410   4.466  0.00  0.00    +0.053 A 
ATOM     36  O   UNL     1      -5.802  -7.173   6.937  0.00  0.00    -0.453 OA
ATOM     37  C   UNL     1      -5.177  -7.901   8.011  0.00  0.00    +0.466 C 
ATOM     38  O   UNL     1      -3.829  -8.103   7.547  0.00  0.00    -0.453 OA
ENDBRANCH  29  30
ENDBRANCH   2  29
TORSDOF 9
