REMARK  Name = ZINC09720469
REMARK  8 active torsions:
REMARK  status: ('A' for Active; 'I' for Inactive)
REMARK    1  A    between atoms: C_1  and  C_2
REMARK    2  A    between atoms: C_2  and  C_4
REMARK    3  A    between atoms: C_2  and  N_10
REMARK    4  A    between atoms: N_10  and  C_11
REMARK    5  A    between atoms: C_13  and  N_20
REMARK    6  A    between atoms: C_16  and  N_17
REMARK    7  A    between atoms: C_26  and  C_28
REMARK    8  A    between atoms: C_29  and  C_30
REMARK                            x       y       z     vdW  Elec       q    Type
REMARK                         _______ _______ _______ _____ _____    ______ ____
ROOT
ATOM      1  C   UNL     1      -1.284   3.582   0.231  0.00  0.00    +0.060 A 
ATOM      2  C   UNL     1       0.037   4.003   0.172  0.00  0.00    +0.048 A 
ATOM      3  C   UNL     1       1.062   3.069   0.226  0.00  0.00    +0.032 A 
ATOM      4  C   UNL     1       0.762   1.716   0.338  0.00  0.00    +0.025 A 
ATOM      5  C   UNL     1      -0.554   1.301   0.396  0.00  0.00    +0.036 A 
ATOM      6  C   UNL     1      -1.577   2.228   0.337  0.00  0.00    +0.147 A 
ENDROOT
BRANCH   3   7
ATOM      7  N   UNL     1       2.393   3.487   0.166  0.00  0.00    -0.327 N 
ATOM      8  C   UNL     1       2.639   4.291  -1.039  0.00  0.00    +0.124 C 
ATOM      9  C   UNL     1       4.052   4.879  -0.977  0.00  0.00    +0.127 C 
ATOM     10  N   UNL     1       5.006   3.781  -0.756  0.00  0.00    -0.295 N 
ATOM     11  C   UNL     1       4.750   2.849   0.352  0.00  0.00    +0.127 C 
ATOM     12  C   UNL     1       3.309   2.341   0.238  0.00  0.00    +0.124 C 
ATOM     13  C   UNL     1       6.086   3.634  -1.549  0.00  0.00    +0.240 C 
ATOM     14  O   UNL     1       6.231   4.352  -2.521  0.00  0.00    -0.271 OA
BRANCH  13  15
ATOM     15  C   UNL     1       7.085   2.609  -1.241  0.00  0.00    +0.068 C 
ATOM     16  C   UNL     1       8.214   2.526  -1.974  0.00  0.00    +0.013 C 
BRANCH  16  17
ATOM     17  C   UNL     1       9.219   1.496  -1.664  0.00  0.00    -0.025 A 
ATOM     18  C   UNL     1       9.008   0.606  -0.607  0.00  0.00    +0.009 A 
ATOM     19  C   UNL     1       9.951  -0.360  -0.326  0.00  0.00    +0.020 A 
ATOM     20  C   UNL     1      11.110  -0.442  -1.081  0.00  0.00    +0.041 A 
ATOM     21  C   UNL     1      11.327   0.441  -2.127  0.00  0.00    +0.020 A 
ATOM     22  C   UNL     1      10.391   1.408  -2.422  0.00  0.00    +0.009 A 
ATOM     23 CL   UNL     1      12.295  -1.657  -0.716  0.00  0.00    -0.084 Cl
ENDBRANCH  16  17
ENDBRANCH  13  15
ENDBRANCH   3   7
BRANCH   6  24
ATOM     24  N   UNL     1      -2.986   1.779   0.394  0.00  0.00    +0.058 N 
ATOM     25  O   UNL     1      -3.246   0.589   0.392  0.00  0.00    -0.126 OA
ATOM     26  O   UNL     1      -3.885   2.599   0.442  0.00  0.00    -0.126 OA
ENDBRANCH   6  24
BRANCH   1  27
ATOM     27  N   UNL     1      -2.319   4.519   0.177  0.00  0.00    -0.335 N 
ATOM     28  H   UNL     1      -3.238   4.234   0.295  0.00  0.00    +0.147 HD
BRANCH  27  30
ATOM     29  C   UNL     1      -1.904   6.188  -1.562  0.00  0.00    +0.033 C 
ATOM     30  C   UNL     1      -2.015   5.933  -0.057  0.00  0.00    +0.098 C 
BRANCH  30  31
ATOM     31  C   UNL     1      -3.118   6.785   0.516  0.00  0.00    -0.028 A 
ATOM     32  C   UNL     1      -4.436   6.393   0.382  0.00  0.00    +0.005 A 
ATOM     33  C   UNL     1      -5.447   7.172   0.911  0.00  0.00    +0.000 A 
ATOM     34  C   UNL     1      -5.141   8.349   1.568  0.00  0.00    +0.000 A 
ATOM     35  C   UNL     1      -3.822   8.745   1.698  0.00  0.00    +0.000 A 
ATOM     36  C   UNL     1      -2.811   7.963   1.172  0.00  0.00    +0.005 A 
ENDBRANCH  30  31
ENDBRANCH  27  30
ENDBRANCH   1  27
TORSDOF 7
