REMARK  Name = ZINC39325162
REMARK  8 active torsions:
REMARK  status: ('A' for Active; 'I' for Inactive)
REMARK    1  A    between atoms: C_1  and  C_2
REMARK    2  A    between atoms: C_5  and  C_36
REMARK    3  A    between atoms: C_10  and  C_14
REMARK    4  A    between atoms: C_14  and  N_15
REMARK    5  A    between atoms: N_15  and  C_16
REMARK    6  A    between atoms: N_15  and  S_26
REMARK    7  A    between atoms: C_16  and  C_17
REMARK    8  A    between atoms: S_26  and  C_29
REMARK                            x       y       z     vdW  Elec       q    Type
REMARK                         _______ _______ _______ _____ _____    ______ ____
ROOT
ATOM      1  N   UNL     1      -1.073  -1.297   5.879  0.00  0.00    -0.171 NA
ENDROOT
BRANCH   1   2
ATOM      2  S   UNL     1      -1.699  -2.823   6.020  0.00  0.00    +0.061 S 
ATOM      3  O   UNL     1      -2.210  -2.931   7.342  0.00  0.00    -0.153 OA
ATOM      4  O   UNL     1      -2.507  -3.038   4.871  0.00  0.00    -0.153 OA
BRANCH   2   5
ATOM      5  C   UNL     1      -0.352  -3.952   5.907  0.00  0.00    +0.106 A 
ATOM      6  C   UNL     1      -0.052  -4.552   4.698  0.00  0.00    +0.031 A 
ATOM      7  C   UNL     1       1.005  -5.437   4.608  0.00  0.00    +0.040 A 
ATOM      8  C   UNL     1       1.764  -5.724   5.729  0.00  0.00    +0.124 A 
ATOM      9  C   UNL     1       1.464  -5.123   6.940  0.00  0.00    +0.040 A 
ATOM     10  C   UNL     1       0.409  -4.234   7.026  0.00  0.00    +0.031 A 
ATOM     11  F   UNL     1       2.798  -6.590   5.643  0.00  0.00    -0.205 F 
ENDBRANCH   2   5
ENDBRANCH   1   2
BRANCH   1  12
ATOM     12  C   UNL     1      -1.082  -0.618   4.580  0.00  0.00    +0.126 C 
BRANCH  12  22
ATOM     13  C   UNL     1       0.211   2.151   0.452  0.00  0.00    +0.044 C 
ATOM     14  C   UNL     1       0.923   0.827   0.544  0.00  0.00    -0.042 A 
ATOM     15  C   UNL     1       1.569   0.313  -0.534  0.00  0.00    +0.004 A 
ATOM     16  C   UNL     1       2.234  -0.912  -0.467  0.00  0.00    +0.005 A 
ATOM     17  C   UNL     1       2.278  -1.661   0.666  0.00  0.00    -0.029 A 
ATOM     18  C   UNL     1       1.640  -1.219   1.840  0.00  0.00    +0.043 A 
ATOM     19  N   UNL     1       1.690  -1.962   2.945  0.00  0.00    -0.284 N 
ATOM     20  C   UNL     1       1.114  -1.607   4.081  0.00  0.00    +0.225 C 
ATOM     21  O   UNL     1       1.194  -2.327   5.058  0.00  0.00    -0.275 OA
ATOM     22  C   UNL     1       0.355  -0.301   4.160  0.00  0.00    +0.114 C 
ATOM     23  C   UNL     1       0.295   0.548   2.905  0.00  0.00    -0.003 C 
ATOM     24  C   UNL     1       0.935   0.074   1.799  0.00  0.00    -0.004 A 
ATOM     25  C   UNL     1       3.015  -2.976   0.665  0.00  0.00    +0.045 C 
ATOM     26  H   UNL     1       2.172  -2.804   2.915  0.00  0.00    +0.155 HD
ENDBRANCH  12  22
ENDBRANCH   1  12
BRANCH   1  27
ATOM     27  C   UNL     1      -0.508  -0.625   7.052  0.00  0.00    +0.144 C 
BRANCH  27  28
ATOM     28  C   UNL     1      -1.559   0.254   7.681  0.00  0.00    -0.028 A 
ATOM     29  C   UNL     1      -1.693   1.568   7.274  0.00  0.00    +0.009 A 
ATOM     30  C   UNL     1      -2.656   2.377   7.848  0.00  0.00    +0.050 A 
ATOM     31  C   UNL     1      -3.488   1.873   8.834  0.00  0.00    +0.166 A 
ATOM     32  C   UNL     1      -3.353   0.549   9.244  0.00  0.00    +0.167 A 
ATOM     33  C   UNL     1      -2.390  -0.258   8.661  0.00  0.00    +0.054 A 
ATOM     34  O   UNL     1      -4.278   0.297  10.215  0.00  0.00    -0.453 OA
ATOM     35  C   UNL     1      -4.707   1.589  10.683  0.00  0.00    +0.466 C 
ATOM     36  O   UNL     1      -4.498   2.450   9.547  0.00  0.00    -0.453 OA
ENDBRANCH  27  28
ENDBRANCH   1  27
TORSDOF 6
