REMARK  Name = ZINC30992247
REMARK  5 active torsions:
REMARK  status: ('A' for Active; 'I' for Inactive)
REMARK    1  A    between atoms: C_4  and  N_23
REMARK    2  A    between atoms: C_5  and  N_7
REMARK    3  A    between atoms: C_8  and  C_10
REMARK    4  A    between atoms: C_10  and  O_11
REMARK    5  A    between atoms: O_11  and  C_12
REMARK                            x       y       z     vdW  Elec       q    Type
REMARK                         _______ _______ _______ _____ _____    ______ ____
ROOT
ATOM      1  N   UNL     1       5.084  -3.961  -0.081  0.00  0.00    -0.281 N 
ATOM      2  C   UNL     1       4.847  -2.767   0.496  0.00  0.00    +0.255 C 
ATOM      3  O   UNL     1       5.754  -2.155   1.018  0.00  0.00    -0.272 OA
ATOM      4  H   UNL     1       4.248  -4.559  -0.473  0.00  0.00    +0.155 HD
ENDROOT
BRANCH   1   9
ATOM      5  C   UNL     1       8.758  -4.034  -0.281  0.00  0.00    +0.002 A 
ATOM      6  C   UNL     1       8.992  -5.393  -0.382  0.00  0.00    +0.002 A 
ATOM      7  C   UNL     1       7.935  -6.282  -0.385  0.00  0.00    +0.025 A 
ATOM      8  C   UNL     1       6.633  -5.813  -0.286  0.00  0.00    +0.051 A 
ATOM      9  C   UNL     1       6.397  -4.442  -0.182  0.00  0.00    +0.055 A 
ATOM     10  C   UNL     1       7.463  -3.557  -0.186  0.00  0.00    +0.025 A 
BRANCH   8  11
ATOM     11  N   UNL     1       5.561  -6.712  -0.289  0.00  0.00    -0.328 N 
ATOM     12  C   UNL     1       5.477  -7.441   0.996  0.00  0.00    +0.105 C 
ATOM     13  C   UNL     1       4.520  -8.602   0.946  0.00  0.00    +0.019 C 
ATOM     14  C   UNL     1       5.315  -9.877   0.594  0.00  0.00    +0.002 C 
ATOM     15  C   UNL     1       5.617  -9.961  -0.831  0.00  0.00    +0.002 C 
ATOM     16  C   UNL     1       6.485  -8.780  -1.314  0.00  0.00    +0.019 C 
ATOM     17  C   UNL     1       5.598  -7.577  -1.489  0.00  0.00    +0.105 C 
ENDBRANCH   8  11
ENDBRANCH   1   9
BRANCH   2  18
ATOM     18  C   UNL     1       3.454  -2.191   0.492  0.00  0.00    +0.324 C 
BRANCH  18  19
ATOM     19  O   UNL     1       3.459  -0.928   1.159  0.00  0.00    -0.483 OA
BRANCH  19  20
ATOM     20  C   UNL     1       2.274  -0.271   1.244  0.00  0.00    +0.125 A 
ATOM     21  C   UNL     1       1.127  -0.840   0.692  0.00  0.00    +0.046 A 
ATOM     22  C   UNL     1      -0.071  -0.192   0.769  0.00  0.00    +0.015 A 
ATOM     23  C   UNL     1      -0.150   1.051   1.407  0.00  0.00    +0.018 A 
ATOM     24  C   UNL     1      -1.422   1.772   1.499  0.00  0.00    +0.018 A 
ATOM     25  C   UNL     1      -1.434   2.973   2.135  0.00  0.00    +0.092 A 
ATOM     26  C   UNL     1      -0.240   3.494   2.673  0.00  0.00    +0.337 A 
ATOM     27  O   UNL     1      -0.264   4.573   3.236  0.00  0.00    -0.245 OA
ATOM     28  O   UNL     1       0.924   2.830   2.580  0.00  0.00    -0.422 OA
ATOM     29  C   UNL     1       1.004   1.631   1.966  0.00  0.00    +0.143 A 
ATOM     30  C   UNL     1       2.214   0.959   1.878  0.00  0.00    +0.092 A 
ENDBRANCH  19  20
ENDBRANCH  18  19
ENDBRANCH   2  18
TORSDOF 5
