REMARK  Name = ZINC63230006
REMARK  8 active torsions:
REMARK  status: ('A' for Active; 'I' for Inactive)
REMARK    1  A    between atoms: C_1  and  C_2
REMARK    2  A    between atoms: C_2  and  O_3
REMARK    3  A    between atoms: O_3  and  C_4
REMARK    4  A    between atoms: C_7  and  N_10
REMARK    5  A    between atoms: C_11  and  C_28
REMARK    6  A    between atoms: C_14  and  S_15
REMARK    7  A    between atoms: S_15  and  C_16
REMARK    8  A    between atoms: C_16  and  N_17
REMARK                            x       y       z     vdW  Elec       q    Type
REMARK                         _______ _______ _______ _____ _____    ______ ____
ROOT
ATOM      1  N   UNL     1       1.072  -5.974  -1.614  0.00  0.00    -0.270 N 
ATOM      2  C   UNL     1       2.212  -6.749  -1.472  0.00  0.00    +0.168 A 
ATOM      3  N   UNL     1       1.843  -8.012  -1.633  0.00  0.00    -0.128 NA
ATOM      4  N   UNL     1       0.579  -8.070  -1.859  0.00  0.00    -0.122 NA
ATOM      5  C   UNL     1       0.057  -6.852  -1.853  0.00  0.00    +0.198 A 
ENDROOT
BRANCH   2   6
ATOM      6  C   UNL     1       3.510  -6.285  -1.209  0.00  0.00    +0.025 C 
ATOM      7  C   UNL     1       4.667  -7.051  -1.069  0.00  0.00    +0.006 A 
ATOM      8  C   UNL     1       4.905  -8.440  -1.140  0.00  0.00    +0.010 A 
ATOM      9  C   UNL     1       6.163  -8.918  -0.960  0.00  0.00    +0.001 A 
ATOM     10  C   UNL     1       7.240  -8.066  -0.704  0.00  0.00    +0.002 A 
ATOM     11  C   UNL     1       7.084  -6.722  -0.622  0.00  0.00    +0.026 A 
ATOM     12  C   UNL     1       5.798  -6.148  -0.800  0.00  0.00    +0.043 A 
ATOM     13  N   UNL     1       5.391  -4.895  -0.770  0.00  0.00    -0.380 N 
ATOM     14  C   UNL     1       3.948  -4.849  -1.024  0.00  0.00    +0.152 C 
ATOM     15  H   UNL     1       5.957  -4.124  -0.609  0.00  0.00    +0.160 HD
ENDBRANCH   2   6
BRANCH   1  19
ATOM     16  C   UNL     1       0.800  -1.821  -1.347  0.00  0.00    +0.121 A 
ATOM     17  C   UNL     1       0.163  -2.619  -0.409  0.00  0.00    +0.047 A 
ATOM     18  C   UNL     1       0.252  -3.994  -0.497  0.00  0.00    +0.030 A 
ATOM     19  C   UNL     1       0.980  -4.578  -1.525  0.00  0.00    +0.051 A 
ATOM     20  C   UNL     1       1.618  -3.779  -2.464  0.00  0.00    +0.030 A 
ATOM     21  C   UNL     1       1.524  -2.404  -2.378  0.00  0.00    +0.047 A 
BRANCH  16  22
ATOM     22  O   UNL     1       0.712  -0.467  -1.261  0.00  0.00    -0.492 OA
BRANCH  22  24
ATOM     23  C   UNL     1      -0.035   1.593  -0.242  0.00  0.00    +0.048 C 
ATOM     24  C   UNL     1      -0.049   0.065  -0.174  0.00  0.00    +0.225 C 
ENDBRANCH  22  24
ENDBRANCH  16  22
ENDBRANCH   1  19
BRANCH   5  25
ATOM     25  S   UNL     1      -1.637  -6.443  -2.111  0.00  0.00    -0.062 S 
BRANCH  25  26
ATOM     26  C   UNL     1      -2.414  -8.029  -2.525  0.00  0.00    +0.226 C 
BRANCH  26  27
ATOM     27  N   UNL     1      -2.079  -8.392  -3.904  0.00  0.00    -0.200 N 
ATOM     28  C   UNL     1      -2.813  -7.901  -4.930  0.00  0.00    +0.279 A 
ATOM     29  O   UNL     1      -3.757  -7.157  -4.734  0.00  0.00    -0.265 OA
ATOM     30  C   UNL     1      -2.427  -8.303  -6.291  0.00  0.00    +0.068 A 
ATOM     31  C   UNL     1      -3.120  -7.851  -7.412  0.00  0.00    +0.015 A 
ATOM     32  C   UNL     1      -2.720  -8.254  -8.667  0.00  0.00    +0.001 A 
ATOM     33  C   UNL     1      -1.633  -9.105  -8.822  0.00  0.00    +0.002 A 
ATOM     34  C   UNL     1      -0.935  -9.563  -7.727  0.00  0.00    +0.030 A 
ATOM     35  C   UNL     1      -1.322  -9.168  -6.444  0.00  0.00    +0.100 A 
ATOM     36  N   UNL     1      -0.657  -9.599  -5.343  0.00  0.00    -0.131 NA
ATOM     37  N   UNL     1      -0.997  -9.239  -4.159  0.00  0.00    -0.061 NA
ENDBRANCH  26  27
ENDBRANCH  25  26
ENDBRANCH   5  25
TORSDOF 7
