REMARK  Name = ZINC26363650
REMARK  15 active torsions:
REMARK  status: ('A' for Active; 'I' for Inactive)
REMARK    1  A    between atoms: C_1  and  C_2
REMARK    2  A    between atoms: C_2  and  C_3
REMARK    3  A    between atoms: C_3  and  C_4
REMARK    4  A    between atoms: C_4  and  C_6
REMARK    5  A    between atoms: C_4  and  N_15
REMARK    6  A    between atoms: N_10  and  C_11
REMARK    7  A    between atoms: C_11  and  C_12
REMARK    8  A    between atoms: C_12  and  O_13
REMARK    9  A    between atoms: O_13  and  C_14
REMARK   10  A    between atoms: N_15  and  C_16
REMARK   11  A    between atoms: N_15  and  C_22
REMARK   12  A    between atoms: C_16  and  C_17
REMARK   13  A    between atoms: C_22  and  C_23
REMARK   14  A    between atoms: C_26  and  C_36
REMARK   15  A    between atoms: C_28  and  C_35
REMARK                            x       y       z     vdW  Elec       q    Type
REMARK                         _______ _______ _______ _____ _____    ______ ____
ROOT
ATOM      1  N   UNL     1       5.287   4.534  -1.424  0.00  0.00    +0.392 N 
ATOM      2  H   UNL     1       5.335   3.725  -2.168  0.00  0.00    -0.080 HD
ENDROOT
BRANCH   1   3
ATOM      3  C   UNL     1       6.555   5.274  -1.480  0.00  0.00    +0.003 C 
BRANCH   3   4
ATOM      4  C   UNL     1       7.681   4.319  -1.781  0.00  0.00    +0.138 A 
ATOM      5  N   UNL     1       7.838   3.114  -1.290  0.00  0.00    -0.115 NA
ATOM      6  N   UNL     1       8.917   2.618  -1.789  0.00  0.00    -0.023 NA
ATOM      7  N   UNL     1       9.457   3.478  -2.581  0.00  0.00    -0.044 NA
ATOM      8  N   UNL     1       8.724   4.540  -2.602  0.00  0.00    -0.229 N 
BRANCH   8   9
ATOM      9  C   UNL     1       8.980   5.758  -3.375  0.00  0.00    +0.175 C 
BRANCH   9  10
ATOM     10  C   UNL     1       9.824   6.724  -2.540  0.00  0.00    +0.183 C 
BRANCH  10  11
ATOM     11  O   UNL     1      10.074   7.912  -3.294  0.00  0.00    -0.381 OA
ATOM     12  C   UNL     1      10.858   8.885  -2.602  0.00  0.00    +0.194 C 
ENDBRANCH  10  11
ENDBRANCH   9  10
ENDBRANCH   8   9
ENDBRANCH   3   4
BRANCH   3  13
ATOM     13  C   UNL     1       6.809   5.953  -0.133  0.00  0.00    -0.008 C 
BRANCH  13  15
ATOM     14  C   UNL     1       6.066   7.790   1.389  0.00  0.00    +0.004 C 
ATOM     15  C   UNL     1       5.728   7.006   0.119  0.00  0.00    -0.005 C 
ENDBRANCH  13  15
ENDBRANCH   3  13
ENDBRANCH   1   3
BRANCH   1  16
ATOM     16  C   UNL     1       4.155   5.402  -1.772  0.00  0.00    -0.034 C 
BRANCH  16  17
ATOM     17  C   UNL     1       4.210   5.735  -3.241  0.00  0.00    -0.027 A 
ATOM     18  C   UNL     1       3.739   5.025  -4.295  0.00  0.00    +0.009 A 
ATOM     19  C   UNL     1       3.903   5.531  -5.571  0.00  0.00    +0.008 A 
ATOM     20  C   UNL     1       4.530   6.722  -5.730  0.00  0.00    +0.045 A 
ATOM     21  S   UNL     1       4.907   7.170  -4.044  0.00  0.00    -0.103 S 
ENDBRANCH  16  17
ENDBRANCH   1  16
BRANCH   1  22
ATOM     22  C   UNL     1       5.093   3.921  -0.103  0.00  0.00    -0.036 C 
BRANCH  22  23
ATOM     23  C   UNL     1       3.933   2.961  -0.160  0.00  0.00    +0.001 A 
ATOM     24  C   UNL     1       4.157   1.642  -0.382  0.00  0.00    +0.017 A 
ATOM     25  C   UNL     1       3.007   0.736  -0.432  0.00  0.00    +0.002 A 
ATOM     26  C   UNL     1       3.176  -0.634  -0.658  0.00  0.00    -0.041 A 
ATOM     27  C   UNL     1       2.083  -1.452  -0.699  0.00  0.00    +0.007 A 
ATOM     28  C   UNL     1       0.806  -0.936  -0.520  0.00  0.00    -0.048 A 
ATOM     29  C   UNL     1       0.617   0.410  -0.296  0.00  0.00    +0.029 A 
ATOM     30  C   UNL     1       1.715   1.263  -0.249  0.00  0.00    +0.050 A 
ATOM     31  N   UNL     1       1.555   2.614  -0.027  0.00  0.00    -0.322 N 
ATOM     32  H   UNL     1       0.548   3.032   0.117  0.00  0.00    +0.169 HD
ATOM     33  C   UNL     1       2.616   3.438   0.017  0.00  0.00    +0.251 A 
ATOM     34  O   UNL     1       2.437   4.628   0.215  0.00  0.00    -0.268 OA
ATOM     35  C   UNL     1      -0.384  -1.859  -0.570  0.00  0.00    +0.044 C 
ATOM     36  C   UNL     1       4.556  -1.204  -0.854  0.00  0.00    +0.044 C 
ENDBRANCH  22  23
ENDBRANCH   1  22
TORSDOF 11
