REMARK  Name = ZINC24762368
REMARK  14 active torsions:
REMARK  status: ('A' for Active; 'I' for Inactive)
REMARK    1  A    between atoms: C_1  and  C_2
REMARK    2  A    between atoms: C_2  and  C_4
REMARK    3  A    between atoms: C_2  and  N_10
REMARK    4  A    between atoms: C_4  and  C_5
REMARK    5  A    between atoms: N_10  and  C_11
REMARK    6  A    between atoms: N_10  and  C_20
REMARK    7  A    between atoms: C_11  and  C_12
REMARK    8  A    between atoms: C_15  and  O_18
REMARK    9  A    between atoms: O_18  and  C_19
REMARK   10  A    between atoms: C_20  and  C_21
REMARK   11  A    between atoms: N_23  and  C_24
REMARK   12  A    between atoms: C_27  and  O_33
REMARK   13  A    between atoms: C_29  and  N_30
REMARK   14  A    between atoms: O_33  and  C_34
REMARK                            x       y       z     vdW  Elec       q    Type
REMARK                         _______ _______ _______ _____ _____    ______ ____
ROOT
ATOM      1  N   UNL     1      -5.132   1.269  -0.625  0.00  0.00    +0.390 N 
ATOM      2  H   UNL     1      -4.867   0.452  -1.312  0.00  0.00    -0.080 HD
ENDROOT
BRANCH   1   4
ATOM      3  C   UNL     1      -5.974   1.641   1.644  0.00  0.00    -0.013 C 
ATOM      4  C   UNL     1      -5.148   0.725   0.739  0.00  0.00    -0.066 C 
BRANCH   4   5
ATOM      5  C   UNL     1      -5.770  -0.673   0.724  0.00  0.00    +0.027 C 
BRANCH   5   6
ATOM      6  C   UNL     1      -4.874  -1.613  -0.040  0.00  0.00    -0.012 A 
ATOM      7  C   UNL     1      -3.916  -2.450   0.429  0.00  0.00    +0.011 A 
ATOM      8  C   UNL     1      -3.210  -3.230  -0.467  0.00  0.00    +0.008 A 
ATOM      9  C   UNL     1      -3.496  -3.136  -1.788  0.00  0.00    +0.045 A 
ATOM     10  S   UNL     1      -4.803  -1.920  -1.797  0.00  0.00    -0.102 S 
ENDBRANCH   5   6
ENDBRANCH   4   5
ENDBRANCH   1   4
BRANCH   1  11
ATOM     11  C   UNL     1      -6.460   1.766  -1.009  0.00  0.00    -0.042 C 
BRANCH  11  12
ATOM     12  C   UNL     1      -7.376   0.600  -1.274  0.00  0.00    -0.064 A 
ATOM     13  C   UNL     1      -7.168  -0.203  -2.381  0.00  0.00    +0.005 A 
ATOM     14  C   UNL     1      -8.004  -1.276  -2.624  0.00  0.00    +0.046 A 
ATOM     15  C   UNL     1      -9.058  -1.542  -1.763  0.00  0.00    +0.120 A 
ATOM     16  C   UNL     1      -9.268  -0.732  -0.656  0.00  0.00    +0.046 A 
ATOM     17  C   UNL     1      -8.427   0.337  -0.415  0.00  0.00    +0.005 A 
BRANCH  15  18
ATOM     18  O   UNL     1      -9.884  -2.594  -2.002  0.00  0.00    -0.495 OA
ATOM     19  C   UNL     1      -9.608  -3.385  -3.160  0.00  0.00    +0.277 C 
ENDBRANCH  15  18
ENDBRANCH  11  12
ENDBRANCH   1  11
BRANCH   1  20
ATOM     20  C   UNL     1      -4.116   2.321  -0.761  0.00  0.00    +0.020 C 
BRANCH  20  21
ATOM     21  C   UNL     1      -2.744   1.699  -0.742  0.00  0.00    +0.201 C 
ATOM     22  O   UNL     1      -2.619   0.510  -0.540  0.00  0.00    -0.278 OA
ATOM     23  N   UNL     1      -1.654   2.465  -0.950  0.00  0.00    -0.285 N 
ATOM     24  H   UNL     1      -1.759   3.556  -1.048  0.00  0.00    +0.155 HD
BRANCH  23  25
ATOM     25  C   UNL     1      -0.388   1.872  -1.041  0.00  0.00    +0.064 A 
ATOM     26  C   UNL     1      -0.268   0.549  -1.445  0.00  0.00    +0.029 A 
ATOM     27  C   UNL     1       0.980  -0.033  -1.540  0.00  0.00    +0.047 A 
ATOM     28  C   UNL     1       2.115   0.704  -1.232  0.00  0.00    +0.122 A 
ATOM     29  C   UNL     1       1.996   2.025  -0.830  0.00  0.00    +0.080 A 
ATOM     30  C   UNL     1       0.748   2.609  -0.734  0.00  0.00    +0.151 A 
BRANCH  30  31
ATOM     31  N   UNL     1       0.621   4.019  -0.303  0.00  0.00    +0.058 N 
ATOM     32  O   UNL     1       1.619   4.696  -0.132  0.00  0.00    -0.126 OA
ATOM     33  O   UNL     1      -0.481   4.503  -0.120  0.00  0.00    -0.126 OA
ENDBRANCH  30  31
BRANCH  28  34
ATOM     34  O   UNL     1       3.344   0.130  -1.327  0.00  0.00    -0.495 OA
ATOM     35  C   UNL     1       3.392  -1.235  -1.749  0.00  0.00    +0.277 C 
ENDBRANCH  28  34
ENDBRANCH  23  25
ENDBRANCH  20  21
ENDBRANCH   1  20
TORSDOF 11
