REMARK  Name = ZINC49421527
REMARK  6 active torsions:
REMARK  status: ('A' for Active; 'I' for Inactive)
REMARK    1  A    between atoms: C_1  and  C_2
REMARK    2  A    between atoms: C_5  and  S_9
REMARK    3  A    between atoms: C_7  and  C_8
REMARK    4  A    between atoms: S_9  and  C_12
REMARK    5  A    between atoms: C_21  and  N_22
REMARK    6  A    between atoms: N_25  and  C_28
REMARK                            x       y       z     vdW  Elec       q    Type
REMARK                         _______ _______ _______ _____ _____    ______ ____
ROOT
ATOM      1  C   UNL     1       1.730  -5.077  -0.210  0.00  0.00    +0.131 A 
ATOM      2  C   UNL     1       2.322  -5.858   0.773  0.00  0.00    +0.112 A 
ATOM      3  N   UNL     1       3.587  -6.202   0.716  0.00  0.00    -0.359 N 
ATOM      4  C   UNL     1       4.375  -5.819  -0.295  0.00  0.00    +0.048 A 
ATOM      5  C   UNL     1       5.728  -6.196  -0.342  0.00  0.00    +0.026 A 
ATOM      6  C   UNL     1       6.507  -5.792  -1.383  0.00  0.00    +0.002 A 
ATOM      7  C   UNL     1       5.984  -5.006  -2.407  0.00  0.00    +0.001 A 
ATOM      8  C   UNL     1       4.677  -4.621  -2.394  0.00  0.00    +0.012 A 
ATOM      9  C   UNL     1       3.848  -5.021  -1.338  0.00  0.00    +0.021 A 
ATOM     10  C   UNL     1       2.483  -4.646  -1.291  0.00  0.00    +0.066 A 
ATOM     11  H   UNL     1       3.960  -6.749   1.425  0.00  0.00    +0.165 HD
ENDROOT
BRANCH  10  12
ATOM     12  N   UNL     1       1.919  -3.870  -2.292  0.00  0.00    -0.325 N 
ATOM     13  C   UNL     1       2.082  -2.410  -2.287  0.00  0.00    +0.124 C 
ATOM     14  C   UNL     1       2.688  -1.980  -3.629  0.00  0.00    +0.124 C 
ATOM     15  N   UNL     1       1.918  -2.603  -4.714  0.00  0.00    -0.325 N 
ATOM     16  C   UNL     1       1.755  -4.064  -4.718  0.00  0.00    +0.124 C 
ATOM     17  C   UNL     1       1.153  -4.494  -3.380  0.00  0.00    +0.124 C 
BRANCH  15  18
ATOM     18  C   UNL     1       1.349  -1.820  -5.723  0.00  0.00    +0.065 A 
ATOM     19  C   UNL     1       2.068  -1.545  -6.879  0.00  0.00    +0.026 A 
ATOM     20  C   UNL     1       1.504  -0.772  -7.875  0.00  0.00    +0.002 A 
ATOM     21  C   UNL     1       0.224  -0.271  -7.723  0.00  0.00    +0.003 A 
ATOM     22  C   UNL     1      -0.496  -0.542  -6.574  0.00  0.00    +0.040 A 
ATOM     23  C   UNL     1       0.060  -1.321  -5.575  0.00  0.00    +0.144 A 
ATOM     24  F   UNL     1      -0.646  -1.591  -4.455  0.00  0.00    -0.204 F 
ENDBRANCH  15  18
ENDBRANCH  10  12
BRANCH   1  25
ATOM     25  S   UNL     1       0.026  -4.642  -0.089  0.00  0.00    +0.028 S 
ATOM     26  O   UNL     1      -0.480  -5.300   1.065  0.00  0.00    -0.164 OA
ATOM     27  O   UNL     1      -0.534  -4.830  -1.381  0.00  0.00    -0.164 OA
BRANCH  25  32
ATOM     28  C   UNL     1      -0.228   1.277   1.054  0.00  0.00    +0.044 C 
ATOM     29  C   UNL     1      -0.164  -0.201   0.768  0.00  0.00    -0.047 A 
ATOM     30  C   UNL     1      -0.471  -0.675  -0.494  0.00  0.00    +0.005 A 
ATOM     31  C   UNL     1      -0.412  -2.031  -0.755  0.00  0.00    +0.027 A 
ATOM     32  C   UNL     1      -0.047  -2.913   0.244  0.00  0.00    +0.094 A 
ATOM     33  C   UNL     1       0.261  -2.439   1.506  0.00  0.00    +0.031 A 
ATOM     34  C   UNL     1       0.206  -1.082   1.766  0.00  0.00    -0.046 A 
ATOM     35  C   UNL     1       0.547  -0.565   3.140  0.00  0.00    +0.044 C 
ENDBRANCH  25  32
ENDBRANCH   1  25
TORSDOF 4
