REMARK  Name = ZINC39884760
REMARK  7 active torsions:
REMARK  status: ('A' for Active; 'I' for Inactive)
REMARK    1  A    between atoms: C_6  and  C_7
REMARK    2  A    between atoms: C_10  and  C_12
REMARK    3  A    between atoms: C_13  and  C_14
REMARK    4  A    between atoms: C_13  and  C_16
REMARK    5  A    between atoms: N_18  and  C_19
REMARK    6  A    between atoms: C_22  and  O_25
REMARK    7  A    between atoms: O_25  and  C_26
REMARK                            x       y       z     vdW  Elec       q    Type
REMARK                         _______ _______ _______ _____ _____    ______ ____
ROOT
ATOM      1  C   UNL     1      -4.808  -1.052   0.040  0.00  0.00    +0.070 C 
ATOM      2  C   UNL     1      -5.354   0.224   0.048  0.00  0.00    +0.117 C 
ENDROOT
BRANCH   1   6
ATOM      3  C   UNL     1      -1.263  -0.761   0.038  0.00  0.00    +0.136 A 
ATOM      4  C   UNL     1      -1.377  -2.136   0.031  0.00  0.00    +0.050 A 
ATOM      5  C   UNL     1      -2.740  -2.433   0.031  0.00  0.00    +0.050 A 
ATOM      6  C   UNL     1      -3.414  -1.220   0.038  0.00  0.00    +0.130 A 
ATOM      7  O   UNL     1      -2.497  -0.228   0.049  0.00  0.00    -0.455 OA
BRANCH   3  13
ATOM      8  C   UNL     1      -0.017   1.394   0.055  0.00  0.00    +0.013 A 
ATOM      9  C   UNL     1       1.170   2.097   0.058  0.00  0.00    +0.021 A 
ATOM     10  C   UNL     1       2.379   1.421   0.047  0.00  0.00    +0.041 A 
ATOM     11  C   UNL     1       2.405   0.036   0.033  0.00  0.00    +0.021 A 
ATOM     12  C   UNL     1       1.226  -0.679   0.031  0.00  0.00    +0.013 A 
ATOM     13  C   UNL     1       0.002  -0.003   0.041  0.00  0.00    +0.017 A 
ATOM     14 CL   UNL     1       3.868   2.313   0.049  0.00  0.00    -0.084 Cl
ENDBRANCH   3  13
ENDBRANCH   1   6
BRANCH   2  15
ATOM     15  C   UNL     1      -6.811   0.399   0.050  0.00  0.00    +0.259 C 
ATOM     16  O   UNL     1      -7.541  -0.575   0.044  0.00  0.00    -0.269 OA
ATOM     17  N   UNL     1      -7.340   1.638   0.057  0.00  0.00    -0.281 N 
ATOM     18  H   UNL     1      -6.761   2.413   0.129  0.00  0.00    +0.155 HD
BRANCH  17  19
ATOM     19  C   UNL     1      -8.727   1.807  -0.039  0.00  0.00    +0.034 A 
ATOM     20  C   UNL     1      -9.249   2.890  -0.735  0.00  0.00    +0.027 A 
ATOM     21  C   UNL     1     -10.616   3.056  -0.830  0.00  0.00    +0.048 A 
ATOM     22  C   UNL     1     -11.469   2.141  -0.230  0.00  0.00    +0.130 A 
ATOM     23  C   UNL     1     -10.949   1.060   0.467  0.00  0.00    +0.048 A 
ATOM     24  C   UNL     1      -9.582   0.890   0.557  0.00  0.00    +0.027 A 
BRANCH  22  25
ATOM     25  O   UNL     1     -12.816   2.305  -0.323  0.00  0.00    -0.406 OA
BRANCH  25  26
ATOM     26  C   UNL     1     -13.635   1.326   0.319  0.00  0.00    +0.575 C 
ATOM     27  F   UNL     1     -13.353   1.308   1.689  0.00  0.00    -0.133 F 
ATOM     28  F   UNL     1     -14.983   1.645   0.124  0.00  0.00    -0.133 F 
ATOM     29  F   UNL     1     -13.371   0.066  -0.228  0.00  0.00    -0.133 F 
ENDBRANCH  25  26
ENDBRANCH  22  25
ENDBRANCH  17  19
ENDBRANCH   2  15
BRANCH   2  30
ATOM     30  C   UNL     1      -4.495   1.370   0.054  0.00  0.00    +0.104 C 
ATOM     31  N   UNL     1      -3.814   2.279   0.059  0.00  0.00    -0.191 NA
ENDBRANCH   2  30
TORSDOF 7
