REMARK  Name = ZINC14140373
REMARK  4 active torsions:
REMARK  status: ('A' for Active; 'I' for Inactive)
REMARK    1  A    between atoms: C_1  and  C_2
REMARK    2  A    between atoms: C_3  and  C_24
REMARK    3  A    between atoms: C_4  and  C_16
REMARK    4  A    between atoms: N_9  and  C_10
REMARK                            x       y       z     vdW  Elec       q    Type
REMARK                         _______ _______ _______ _____ _____    ______ ____
ROOT
ATOM      1  C   UNL     1      -0.770   1.074  -0.399  0.00  0.00    +0.062 C 
ATOM      2  C   UNL     1      -0.416  -0.388  -0.301  0.00  0.00    +0.027 C 
ATOM      3  C   UNL     1      -0.123  -0.921   0.903  0.00  0.00    +0.056 C 
ATOM      4  C   UNL     1       0.227  -2.394   0.956  0.00  0.00    +0.144 C 
ATOM      5  N   UNL     1       0.218  -3.129  -0.320  0.00  0.00    -0.288 N 
ATOM      6  C   UNL     1      -0.097  -2.458  -1.445  0.00  0.00    +0.311 C 
ATOM      7  O   UNL     1      -0.107  -3.056  -2.503  0.00  0.00    -0.252 OA
ATOM      8  N   UNL     1      -0.403  -1.154  -1.434  0.00  0.00    -0.228 N 
ATOM      9  H   UNL     1       0.432  -4.075  -0.349  0.00  0.00    +0.151 HD
ENDROOT
BRANCH   4  10
ATOM     10  C   UNL     1       1.603  -2.524   1.556  0.00  0.00    +0.013 A 
ATOM     11  C   UNL     1       2.714  -2.560   0.735  0.00  0.00    +0.011 A 
ATOM     12  C   UNL     1       3.977  -2.678   1.283  0.00  0.00    +0.039 A 
ATOM     13  C   UNL     1       4.130  -2.761   2.657  0.00  0.00    +0.126 A 
ATOM     14  C   UNL     1       3.019  -2.724   3.481  0.00  0.00    +0.077 A 
ATOM     15  C   UNL     1       1.755  -2.601   2.930  0.00  0.00    +0.131 A 
ATOM     16  F   UNL     1       0.669  -2.560   3.733  0.00  0.00    -0.205 F 
ATOM     17  F   UNL     1       5.365  -2.877   3.193  0.00  0.00    -0.205 F 
ENDBRANCH   4  10
BRANCH   3  18
ATOM     18  C   UNL     1      -0.142  -0.130   2.078  0.00  0.00    +0.246 C 
ATOM     19  O   UNL     1       0.896   0.333   2.518  0.00  0.00    -0.270 OA
ATOM     20  N   UNL     1      -1.308   0.112   2.710  0.00  0.00    -0.293 N 
ATOM     21  C   UNL     1      -2.557  -0.522   2.261  0.00  0.00    +0.136 C 
ATOM     22  C   UNL     1      -3.234  -1.166   3.482  0.00  0.00    +0.179 C 
ATOM     23  O   UNL     1      -3.354  -0.190   4.520  0.00  0.00    -0.377 OA
ATOM     24  C   UNL     1      -2.104   0.306   5.005  0.00  0.00    +0.179 C 
ATOM     25  C   UNL     1      -1.369   1.021   3.865  0.00  0.00    +0.136 C 
ENDBRANCH   3  18
BRANCH   8  26
ATOM     26  C   UNL     1      -0.723  -0.540  -2.652  0.00  0.00    +0.042 A 
ATOM     27  C   UNL     1      -1.911  -0.854  -3.299  0.00  0.00    +0.024 A 
ATOM     28  C   UNL     1      -2.225  -0.243  -4.497  0.00  0.00    +0.002 A 
ATOM     29  C   UNL     1      -1.354   0.673  -5.058  0.00  0.00    +0.000 A 
ATOM     30  C   UNL     1      -0.167   0.983  -4.418  0.00  0.00    +0.002 A 
ATOM     31  C   UNL     1       0.150   0.380  -3.217  0.00  0.00    +0.024 A 
ENDBRANCH   8  26
TORSDOF 3
