REMARK  Name = ZINC02426119
REMARK  3 active torsions:
REMARK  status: ('A' for Active; 'I' for Inactive)
REMARK    1  A    between atoms: C_6  and  C_7
REMARK    2  A    between atoms: N_22  and  C_23
REMARK    3  A    between atoms: C_23  and  C_24
REMARK                            x       y       z     vdW  Elec       q    Type
REMARK                         _______ _______ _______ _____ _____    ______ ____
ROOT
ATOM      1  C   UNL     1      -0.013   1.086   0.008  0.00  0.00    +0.145 C 
ATOM      2  C   UNL     1       1.394   1.624  -0.003  0.00  0.00    +0.072 A 
ATOM      3  C   UNL     1       2.500   1.494  -0.956  0.00  0.00    +0.199 A 
ATOM      4  O   UNL     1       2.386   0.848  -1.983  0.00  0.00    -0.287 OA
ATOM      5  C   UNL     1       3.759   2.182  -0.609  0.00  0.00    +0.066 A 
ATOM      6  C   UNL     1       4.873   2.124  -1.444  0.00  0.00    +0.035 A 
ATOM      7  C   UNL     1       6.028   2.784  -1.082  0.00  0.00    +0.042 A 
ATOM      8  C   UNL     1       6.080   3.500   0.107  0.00  0.00    +0.023 A 
ATOM      9  C   UNL     1       4.984   3.564   0.940  0.00  0.00    +0.048 A 
ATOM     10  C   UNL     1       3.807   2.906   0.595  0.00  0.00    +0.140 A 
ATOM     11  O   UNL     1       2.731   2.962   1.401  0.00  0.00    -0.450 OA
ATOM     12  C   UNL     1       1.561   2.351   1.129  0.00  0.00    +0.199 A 
ATOM     13  C   UNL     1       0.293   2.312   1.900  0.00  0.00    +0.283 C 
ATOM     14  O   UNL     1       0.111   2.866   2.966  0.00  0.00    -0.267 OA
ATOM     15  N   UNL     1      -0.624   1.576   1.249  0.00  0.00    -0.281 N 
ATOM     16 CL   UNL     1       7.422   2.718  -2.114  0.00  0.00    -0.084 Cl
ENDROOT
BRANCH   1  22
ATOM     17  C   UNL     1      -1.270   2.891  -1.186  0.00  0.00    +0.007 A 
ATOM     18  C   UNL     1      -1.964   3.365  -2.283  0.00  0.00    +0.015 A 
ATOM     19  C   UNL     1      -2.172   2.545  -3.377  0.00  0.00    +0.018 A 
ATOM     20  C   UNL     1      -1.680   1.252  -3.375  0.00  0.00    +0.015 A 
ATOM     21  C   UNL     1      -0.982   0.780  -2.280  0.00  0.00    +0.007 A 
ATOM     22  C   UNL     1      -0.774   1.601  -1.186  0.00  0.00    -0.022 A 
ATOM     23 BR   UNL     1      -3.128   3.191  -4.875  0.00  0.00    -0.050 Br
ENDBRANCH   1  22
BRANCH  15  24
ATOM     24  C   UNL     1      -1.993   1.311   1.699  0.00  0.00    +0.140 C 
BRANCH  24  25
ATOM     25  C   UNL     1      -2.014   0.038   2.547  0.00  0.00    +0.136 C 
ATOM     26  C   UNL     1      -3.464  -0.300   2.974  0.00  0.00    +0.035 C 
ATOM     27  C   UNL     1      -3.354  -1.832   3.206  0.00  0.00    +0.031 C 
ATOM     28  C   UNL     1      -2.329  -2.253   2.132  0.00  0.00    +0.160 C 
ATOM     29  O   UNL     1      -1.580  -1.088   1.766  0.00  0.00    -0.375 OA
ENDBRANCH  24  25
ENDBRANCH  15  24
TORSDOF 3
