REMARK  Name = ZINC57521574
REMARK  8 active torsions:
REMARK  status: ('A' for Active; 'I' for Inactive)
REMARK    1  A    between atoms: C_1  and  C_2
REMARK    2  A    between atoms: C_6  and  N_9
REMARK    3  A    between atoms: C_7  and  C_8
REMARK    4  A    between atoms: C_10  and  C_12
REMARK    5  A    between atoms: C_12  and  S_13
REMARK    6  A    between atoms: S_13  and  C_14
REMARK    7  A    between atoms: C_18  and  C_26
REMARK    8  A    between atoms: N_24  and  C_25
REMARK                            x       y       z     vdW  Elec       q    Type
REMARK                         _______ _______ _______ _____ _____    ______ ____
ROOT
ATOM      1  S   UNL     1      -0.226  -6.677   3.345  0.00  0.00    -0.078 S 
ENDROOT
BRANCH   1   2
ATOM      2  C   UNL     1      -0.334  -7.412   4.943  0.00  0.00    +0.172 A 
ATOM      3  N   UNL     1      -0.332  -6.638   6.003  0.00  0.00    -0.222 NA
ATOM      4  C   UNL     1      -0.412  -7.160   7.242  0.00  0.00    +0.097 A 
ATOM      5  C   UNL     1      -0.432  -6.602   8.539  0.00  0.00    +0.051 A 
ATOM      6  C   UNL     1      -0.527  -7.614   9.425  0.00  0.00    +0.016 A 
ATOM      7  N   UNL     1      -0.569  -8.799   8.757  0.00  0.00    -0.353 N 
ATOM      8  H   UNL     1      -0.636  -9.676   9.166  0.00  0.00    +0.166 HD
ATOM      9  C   UNL     1      -0.499  -8.548   7.403  0.00  0.00    +0.131 A 
ATOM     10  C   UNL     1      -0.499  -9.363   6.256  0.00  0.00    +0.278 A 
ATOM     11  O   UNL     1      -0.574 -10.576   6.353  0.00  0.00    -0.265 OA
ATOM     12  N   UNL     1      -0.422  -8.771   5.044  0.00  0.00    -0.289 N 
ATOM     13  C   UNL     1      -0.427  -9.592   3.831  0.00  0.00    +0.154 C 
ATOM     14  C   UNL     1      -0.578  -7.457  10.923  0.00  0.00    +0.063 C 
ENDBRANCH   1   2
BRANCH   1  15
ATOM     15  C   UNL     1      -0.129  -4.898   3.686  0.00  0.00    +0.173 C 
BRANCH  15  17
ATOM     16  N   UNL     1       0.052  -2.797   2.393  0.00  0.00    -0.285 N 
ATOM     17  C   UNL     1      -0.031  -4.143   2.385  0.00  0.00    +0.227 C 
ATOM     18  O   UNL     1      -0.028  -4.745   1.333  0.00  0.00    -0.275 OA
ATOM     19  H   UNL     1       0.130  -2.321   3.234  0.00  0.00    +0.155 HD
BRANCH  16  25
ATOM     20  C   UNL     1       1.206   1.236  -0.172  0.00  0.00    +0.044 C 
ATOM     21  C   UNL     1       0.577  -0.131  -0.084  0.00  0.00    -0.046 A 
ATOM     22  C   UNL     1      -0.027  -0.686  -1.198  0.00  0.00    +0.004 A 
ATOM     23  C   UNL     1      -0.605  -1.940  -1.122  0.00  0.00    +0.002 A 
ATOM     24  C   UNL     1      -0.580  -2.642   0.067  0.00  0.00    +0.023 A 
ATOM     25  C   UNL     1       0.026  -2.088   1.187  0.00  0.00    +0.037 A 
ATOM     26  C   UNL     1       0.610  -0.831   1.106  0.00  0.00    -0.026 A 
ATOM     27  C   UNL     1       1.274  -0.228   2.317  0.00  0.00    +0.046 C 
ENDBRANCH  16  25
ENDBRANCH  15  17
ENDBRANCH   1  15
TORSDOF 4
