REMARK  Name = ZINC38564619
REMARK  8 active torsions:
REMARK  status: ('A' for Active; 'I' for Inactive)
REMARK    1  A    between atoms: C_1  and  C_2
REMARK    2  A    between atoms: C_2  and  N_3
REMARK    3  A    between atoms: C_4  and  O_32
REMARK    4  A    between atoms: C_6  and  C_15
REMARK    5  A    between atoms: N_10  and  C_13
REMARK    6  A    between atoms: C_13  and  C_14
REMARK    7  A    between atoms: C_22  and  O_27
REMARK    8  A    between atoms: O_27  and  C_28
REMARK                            x       y       z     vdW  Elec       q    Type
REMARK                         _______ _______ _______ _____ _____    ______ ____
ROOT
ATOM      1  C   UNL     1       0.125  -3.206  -2.418  0.00  0.00    +0.117 C 
ATOM      2  C   UNL     1       0.578  -4.407  -3.215  0.00  0.00    +0.038 A 
ATOM      3  H   UNL     1       2.494  -3.920  -3.871  0.00  0.00    +0.166 HD
ATOM      4  C   UNL     1      -0.190  -5.506  -3.392  0.00  0.00    -0.016 A 
ATOM      5  C   UNL     1       0.569  -6.433  -4.200  0.00  0.00    +0.007 A 
ATOM      6  C   UNL     1       0.290  -7.711  -4.695  0.00  0.00    +0.056 A 
ATOM      7  C   UNL     1       1.280  -8.318  -5.454  0.00  0.00    +0.121 A 
ATOM      8  C   UNL     1       2.491  -7.690  -5.714  0.00  0.00    +0.047 A 
ATOM      9  C   UNL     1       2.784  -6.426  -5.234  0.00  0.00    +0.030 A 
ATOM     10  C   UNL     1       1.808  -5.794  -4.468  0.00  0.00    +0.047 A 
ATOM     11  N   UNL     1       1.776  -4.572  -3.855  0.00  0.00    -0.356 N 
ATOM     12  C   UNL     1      -1.575  -5.656  -2.812  0.00  0.00    +0.052 C 
ATOM     13  C   UNL     1      -1.752  -4.586  -1.726  0.00  0.00    +0.086 C 
ATOM     14  N   UNL     1      -1.336  -3.277  -2.250  0.00  0.00    -0.307 NA
ATOM     15  H   UNL     1      -1.669  -2.526  -1.663  0.00  0.00    +0.123 HD
ENDROOT
BRANCH   1  18
ATOM     16  N   UNL     1      -1.682  -1.551  -4.218  0.00  0.00    -0.259 N 
ATOM     17  C   UNL     1      -0.276  -1.861  -4.487  0.00  0.00    +0.220 C 
ATOM     18  C   UNL     1       0.495  -1.924  -3.166  0.00  0.00    +0.145 C 
ATOM     19  C   UNL     1       0.133  -0.726  -2.324  0.00  0.00    +0.232 C 
ATOM     20  O   UNL     1       0.966  -0.216  -1.605  0.00  0.00    -0.275 OA
ATOM     21  N   UNL     1      -1.114  -0.223  -2.371  0.00  0.00    -0.226 N 
ATOM     22  C   UNL     1      -2.026  -0.711  -3.228  0.00  0.00    +0.313 C 
ATOM     23  O   UNL     1      -3.192  -0.390  -3.102  0.00  0.00    -0.252 OA
BRANCH  16  25
ATOM     24  C   UNL     1      -3.013  -1.260  -6.249  0.00  0.00    +0.024 C 
ATOM     25  C   UNL     1      -2.726  -2.160  -5.045  0.00  0.00    +0.108 C 
ENDBRANCH  16  25
BRANCH  21  26
ATOM     26  C   UNL     1      -1.482   0.878  -1.478  0.00  0.00    +0.114 C 
ATOM     27  C   UNL     1      -1.189   2.213  -2.166  0.00  0.00    +0.025 C 
ENDBRANCH  21  26
BRANCH  17  28
ATOM     28  O   UNL     1       0.286  -0.844  -5.318  0.00  0.00    -0.373 OA
ATOM     29  H   UNL     1      -0.154  -0.748  -6.174  0.00  0.00    +0.212 HD
ENDBRANCH  17  28
ENDBRANCH   1  18
BRANCH   7  30
ATOM     30  O   UNL     1       1.058  -9.561  -5.958  0.00  0.00    -0.495 OA
ATOM     31  C   UNL     1       2.107 -10.143  -6.734  0.00  0.00    +0.277 C 
ENDBRANCH   7  30
TORSDOF 5
