REMARK  Name = ZINC63885848
REMARK  12 active torsions:
REMARK  status: ('A' for Active; 'I' for Inactive)
REMARK    1  A    between atoms: C_1  and  C_2
REMARK    2  A    between atoms: C_2  and  C_3
REMARK    3  A    between atoms: C_3  and  C_4
REMARK    4  A    between atoms: C_4  and  C_5
REMARK    5  A    between atoms: C_5  and  C_6
REMARK    6  A    between atoms: C_6  and  N_7
REMARK    7  A    between atoms: C_8  and  C_29
REMARK    8  A    between atoms: C_11  and  S_12
REMARK    9  A    between atoms: S_12  and  C_13
REMARK   10  A    between atoms: C_13  and  C_14
REMARK   11  A    between atoms: C_14  and  C_16
REMARK   12  A    between atoms: C_20  and  C_22
REMARK                            x       y       z     vdW  Elec       q    Type
REMARK                         _______ _______ _______ _____ _____    ______ ____
ROOT
ATOM      1  N   UNL     1       2.162  -4.523  -3.738  0.00  0.00    -0.302 N 
ATOM      2  C   UNL     1       1.593  -4.797  -4.969  0.00  0.00    +0.163 A 
ATOM      3  N   UNL     1       2.573  -5.196  -5.767  0.00  0.00    -0.129 NA
ATOM      4  N   UNL     1       3.686  -5.186  -5.125  0.00  0.00    -0.122 NA
ATOM      5  C   UNL     1       3.491  -4.778  -3.880  0.00  0.00    +0.192 A 
ENDROOT
BRANCH   2   6
ATOM      6  C   UNL     1       0.236  -4.677  -5.308  0.00  0.00    +0.025 C 
ATOM      7  C   UNL     1      -0.353  -4.954  -6.541  0.00  0.00    +0.006 A 
ATOM      8  C   UNL     1       0.174  -5.413  -7.768  0.00  0.00    +0.010 A 
ATOM      9  C   UNL     1      -0.653  -5.599  -8.828  0.00  0.00    +0.001 A 
ATOM     10  C   UNL     1      -2.024  -5.347  -8.740  0.00  0.00    +0.002 A 
ATOM     11  C   UNL     1      -2.598  -4.905  -7.595  0.00  0.00    +0.026 A 
ATOM     12  C   UNL     1      -1.798  -4.687  -6.443  0.00  0.00    +0.043 A 
ATOM     13  N   UNL     1      -2.108  -4.269  -5.232  0.00  0.00    -0.380 N 
ATOM     14  C   UNL     1      -0.895  -4.225  -4.410  0.00  0.00    +0.152 C 
ATOM     15  H   UNL     1      -2.999  -4.032  -4.931  0.00  0.00    +0.160 HD
ENDBRANCH   2   6
BRANCH   1  16
ATOM     16  C   UNL     1       1.476  -4.051  -2.532  0.00  0.00    +0.126 C 
BRANCH  16  17
ATOM     17  C   UNL     1       1.455  -2.521  -2.524  0.00  0.00    +0.022 C 
BRANCH  17  18
ATOM     18  C   UNL     1       0.739  -2.027  -1.265  0.00  0.00    +0.002 C 
BRANCH  18  19
ATOM     19  C   UNL     1       0.718  -0.497  -1.257  0.00  0.00    -0.000 C 
BRANCH  19  21
ATOM     20  C   UNL     1      -0.019   1.526   0.010  0.00  0.00    +0.004 C 
ATOM     21  C   UNL     1       0.002  -0.004   0.002  0.00  0.00    -0.003 C 
ENDBRANCH  19  21
ENDBRANCH  18  19
ENDBRANCH  17  18
ENDBRANCH  16  17
ENDBRANCH   1  16
BRANCH   5  22
ATOM     22  S   UNL     1       4.726  -4.600  -2.636  0.00  0.00    -0.078 S 
BRANCH  22  23
ATOM     23  C   UNL     1       6.261  -5.094  -3.466  0.00  0.00    +0.157 C 
BRANCH  23  24
ATOM     24  C   UNL     1       7.412  -4.987  -2.500  0.00  0.00    +0.203 C 
ATOM     25  O   UNL     1       7.217  -4.615  -1.368  0.00  0.00    -0.291 OA
BRANCH  24  26
ATOM     26  C   UNL     1       8.806  -5.343  -2.947  0.00  0.00    +0.345 C 
ATOM     27  N   UNL     1       9.582  -5.897  -1.823  0.00  0.00    -0.221 N 
ATOM     28  N   UNL     1       9.922  -7.201  -2.212  0.00  0.00    -0.145 NA
ATOM     29  C   UNL     1       9.450  -7.457  -3.388  0.00  0.00    +0.239 C 
ATOM     30  O   UNL     1       8.769  -6.406  -3.910  0.00  0.00    -0.445 OA
ATOM     31  H   UNL     1       9.809  -5.454  -0.991  0.00  0.00    +0.172 HD
BRANCH  29  32
ATOM     32  C   UNL     1       9.633  -8.746  -4.085  0.00  0.00    +0.038 A 
ATOM     33  C   UNL     1       9.095  -8.937  -5.359  0.00  0.00    +0.014 A 
ATOM     34  C   UNL     1       9.270 -10.143  -6.005  0.00  0.00    +0.021 A 
ATOM     35  C   UNL     1       9.977 -11.164  -5.393  0.00  0.00    +0.041 A 
ATOM     36  C   UNL     1      10.514 -10.981  -4.129  0.00  0.00    +0.021 A 
ATOM     37  C   UNL     1      10.351  -9.777  -3.475  0.00  0.00    +0.014 A 
ATOM     38 CL   UNL     1      10.193 -12.679  -6.212  0.00  0.00    -0.084 Cl
ENDBRANCH  29  32
ENDBRANCH  24  26
ENDBRANCH  23  24
ENDBRANCH  22  23
ENDBRANCH   5  22
TORSDOF 11
