REMARK  Name = ZINC14328516
REMARK  6 active torsions:
REMARK  status: ('A' for Active; 'I' for Inactive)
REMARK    1  A    between atoms: C_1  and  C_2
REMARK    2  A    between atoms: C_2  and  C_4
REMARK    3  A    between atoms: C_2  and  N_55
REMARK    4  A    between atoms: N_6  and  C_7
REMARK    5  A    between atoms: C_16  and  C_19
REMARK    6  A    between atoms: C_19  and  C_21
REMARK                            x       y       z     vdW  Elec       q    Type
REMARK                         _______ _______ _______ _____ _____    ______ ____
ROOT
ATOM      1  C   UNL     1      -7.211  -0.275  -0.345  0.00  0.00    -0.077 C 
ATOM      2  C   UNL     1      -5.926  -1.089  -0.176  0.00  0.00    -0.007 C 
ATOM      3  C   UNL     1      -4.908  -0.267   0.619  0.00  0.00    +0.057 C 
ATOM      4  C   UNL     1      -5.516   0.116   1.971  0.00  0.00    -0.007 C 
ATOM      5  C   UNL     1      -6.812   0.895   1.739  0.00  0.00    -0.077 C 
ATOM      6  N   UNL     1      -7.759   0.040   0.991  0.00  0.00    +0.387 N 
ATOM      7  H   UNL     1      -7.898  -0.835   1.509  0.00  0.00    -0.081 HD
ENDROOT
BRANCH   6   9
ATOM      8  C   UNL     1      -8.974   1.833  -0.202  0.00  0.00    -0.004 C 
ATOM      9  C   UNL     1      -9.059   0.728   0.854  0.00  0.00    +0.016 C 
BRANCH   9  10
ATOM     10  C   UNL     1     -10.098  -0.283   0.441  0.00  0.00    +0.203 C 
ATOM     11  O   UNL     1      -9.756  -1.367   0.020  0.00  0.00    -0.277 OA
ATOM     12  N   UNL     1     -11.408   0.019   0.538  0.00  0.00    -0.287 N 
ATOM     13  H   UNL     1     -11.682   0.912   0.800  0.00  0.00    +0.155 HD
BRANCH  12  14
ATOM     14  C   UNL     1     -12.373  -0.955   0.260  0.00  0.00    +0.033 A 
ATOM     15  C   UNL     1     -13.587  -0.590  -0.307  0.00  0.00    +0.024 A 
ATOM     16  C   UNL     1     -14.536  -1.555  -0.585  0.00  0.00    +0.017 A 
ATOM     17  C   UNL     1     -14.282  -2.882  -0.289  0.00  0.00    +0.018 A 
ATOM     18  C   UNL     1     -13.076  -3.248   0.282  0.00  0.00    +0.017 A 
ATOM     19  C   UNL     1     -12.121  -2.288   0.557  0.00  0.00    +0.024 A 
ATOM     20 BR   UNL     1     -15.586  -4.199  -0.665  0.00  0.00    -0.050 Br
ENDBRANCH  12  14
ENDBRANCH   9  10
ENDBRANCH   6   9
BRANCH   3  21
ATOM     21  C   UNL     1      -3.662  -1.086   0.840  0.00  0.00    +0.166 C 
ATOM     22  O   UNL     1      -3.724  -2.298   0.835  0.00  0.00    -0.292 OA
BRANCH  21  23
ATOM     23  C   UNL     1      -2.374  -0.418   1.063  0.00  0.00    +0.021 A 
ATOM     24  C   UNL     1      -2.299   0.980   1.070  0.00  0.00    +0.015 A 
ATOM     25  C   UNL     1      -1.089   1.603   1.274  0.00  0.00    +0.050 A 
ATOM     26  C   UNL     1       0.062   0.849   1.482  0.00  0.00    +0.162 A 
ATOM     27  C   UNL     1      -0.005  -0.543   1.479  0.00  0.00    +0.163 A 
ATOM     28  C   UNL     1      -1.215  -1.176   1.270  0.00  0.00    +0.060 A 
ATOM     29  O   UNL     1       1.113  -1.294   1.681  0.00  0.00    -0.485 OA
ATOM     30  C   UNL     1       2.371  -0.631   1.515  0.00  0.00    +0.270 C 
ATOM     31  C   UNL     1       2.306   0.713   2.251  0.00  0.00    +0.270 C 
ATOM     32  O   UNL     1       1.245   1.487   1.681  0.00  0.00    -0.485 OA
ENDBRANCH  21  23
ENDBRANCH   3  21
TORSDOF 5
