REMARK  Name = ZINC40881151
REMARK  12 active torsions:
REMARK  status: ('A' for Active; 'I' for Inactive)
REMARK    1  A    between atoms: C_1  and  C_2
REMARK    2  A    between atoms: C_5  and  C_33
REMARK    3  A    between atoms: C_6  and  O_8
REMARK    4  A    between atoms: O_8  and  C_9
REMARK    5  A    between atoms: C_9  and  C_10
REMARK    6  A    between atoms: C_10  and  O_12
REMARK    7  A    between atoms: O_12  and  C_13
REMARK    8  A    between atoms: C_18  and  C_24
REMARK    9  A    between atoms: N_26  and  C_27
REMARK   10  A    between atoms: C_27  and  C_28
REMARK   11  A    between atoms: C_33  and  C_34
REMARK   12  A    between atoms: C_33  and  C_35
REMARK                            x       y       z     vdW  Elec       q    Type
REMARK                         _______ _______ _______ _____ _____    ______ ____
ROOT
ATOM      1  C   UNL     1       0.044  -3.220   7.097  0.00  0.00    +0.135 A 
ATOM      2  C   UNL     1       0.105  -4.606   6.953  0.00  0.00    +0.047 A 
ATOM      3  C   UNL     1       0.076  -5.417   8.049  0.00  0.00    +0.015 A 
ATOM      4  C   UNL     1      -0.027  -4.856   9.331  0.00  0.00    +0.019 A 
ATOM      5  C   UNL     1      -0.094  -5.688  10.476  0.00  0.00    +0.031 A 
ATOM      6  C   UNL     1      -0.396  -5.098  11.697  0.00  0.00    +0.122 A 
ATOM      7  C   UNL     1      -0.656  -3.648  11.703  0.00  0.00    +0.350 A 
ATOM      8  O   UNL     1      -1.348  -3.135  12.562  0.00  0.00    -0.244 OA
ATOM      9  O   UNL     1      -0.098  -2.905  10.719  0.00  0.00    -0.422 OA
ATOM     10  C   UNL     1      -0.059  -3.455   9.481  0.00  0.00    +0.143 A 
ATOM     11  C   UNL     1      -0.030  -2.647   8.357  0.00  0.00    +0.093 A 
ENDROOT
BRANCH   6  12
ATOM     12  C   UNL     1      -0.453  -5.890  12.937  0.00  0.00    +0.251 C 
ATOM     13  O   UNL     1      -0.234  -7.086  12.905  0.00  0.00    -0.270 OA
ATOM     14  N   UNL     1      -0.748  -5.290  14.107  0.00  0.00    -0.304 N 
ATOM     15  H   UNL     1      -0.923  -4.337  14.133  0.00  0.00    +0.149 HD
BRANCH  14  16
ATOM     16  C   UNL     1      -0.804  -6.079  15.340  0.00  0.00    +0.179 C 
BRANCH  16  17
ATOM     17  C   UNL     1      -1.151  -5.178  16.497  0.00  0.00    +0.122 A 
ATOM     18  C   UNL     1      -2.393  -4.901  16.934  0.00  0.00    +0.046 A 
ATOM     19  C   UNL     1      -2.255  -4.020  18.031  0.00  0.00    +0.041 A 
ATOM     20  C   UNL     1      -0.936  -3.810  18.199  0.00  0.00    +0.195 A 
ATOM     21  O   UNL     1      -0.273  -4.519  17.270  0.00  0.00    -0.466 OA
ENDBRANCH  16  17
ENDBRANCH  14  16
ENDBRANCH   6  12
BRANCH   1  22
ATOM     22  O   UNL     1       0.062  -2.427   5.996  0.00  0.00    -0.423 OA
BRANCH  22  23
ATOM     23  C   UNL     1      -1.069  -2.317   5.279  0.00  0.00    +0.350 C 
ATOM     24  O   UNL     1      -2.035  -2.982   5.569  0.00  0.00    -0.247 OA
BRANCH  23  25
ATOM     25  C   UNL     1      -1.133  -1.364   4.114  0.00  0.00    +0.349 C 
BRANCH  25  26
ATOM     26  O   UNL     1      -2.429  -1.427   3.517  0.00  0.00    -0.480 OA
BRANCH  26  32
ATOM     27  C   UNL     1      -0.789   1.931   0.378  0.00  0.00    +0.044 C 
ATOM     28  C   UNL     1      -1.881   1.026   0.887  0.00  0.00    -0.047 A 
ATOM     29  C   UNL     1      -3.115   1.014   0.262  0.00  0.00    +0.004 A 
ATOM     30  C   UNL     1      -4.119   0.184   0.727  0.00  0.00    +0.008 A 
ATOM     31  C   UNL     1      -3.892  -0.634   1.817  0.00  0.00    -0.003 A 
ATOM     32  C   UNL     1      -2.655  -0.623   2.445  0.00  0.00    +0.125 A 
ATOM     33  C   UNL     1      -1.647   0.206   1.973  0.00  0.00    +0.049 A 
BRANCH  31  34
ATOM     34  C   UNL     1      -4.987  -1.537   2.323  0.00  0.00    +0.016 C 
ATOM     35  C   UNL     1      -6.192  -0.692   2.740  0.00  0.00    +0.012 C 
ATOM     36  C   UNL     1      -5.402  -2.506   1.214  0.00  0.00    +0.012 C 
ENDBRANCH  31  34
ENDBRANCH  26  32
ENDBRANCH  25  26
ENDBRANCH  23  25
ENDBRANCH  22  23
ENDBRANCH   1  22
TORSDOF 9
