REMARK  Name = ZINC67439347
REMARK  9 active torsions:
REMARK  status: ('A' for Active; 'I' for Inactive)
REMARK    1  A    between atoms: C_1  and  C_2
REMARK    2  A    between atoms: C_5  and  N_12
REMARK    3  A    between atoms: C_13  and  C_15
REMARK    4  A    between atoms: N_17  and  C_18
REMARK    5  A    between atoms: C_18  and  C_20
REMARK    6  A    between atoms: C_18  and  C_21
REMARK    7  A    between atoms: C_21  and  N_22
REMARK    8  A    between atoms: C_24  and  C_31
REMARK    9  A    between atoms: C_27  and  C_30
REMARK                            x       y       z     vdW  Elec       q    Type
REMARK                         _______ _______ _______ _____ _____    ______ ____
ROOT
ATOM      1  C   UNL     1      -0.176  -6.415  -1.230  0.00  0.00    +0.299 C 
ATOM      2  O   UNL     1      -0.068  -7.071  -0.215  0.00  0.00    -0.265 OA
ATOM      3  N   UNL     1      -0.291  -7.032  -2.423  0.00  0.00    -0.307 N 
ATOM      4  H   UNL     1      -0.378  -6.507  -3.234  0.00  0.00    +0.149 HD
ENDROOT
BRANCH   1   6
ATOM      5  N   UNL     1      -0.068  -4.306   0.035  0.00  0.00    -0.277 N 
ATOM      6  C   UNL     1      -0.182  -4.923  -1.157  0.00  0.00    +0.303 C 
ATOM      7  O   UNL     1      -0.290  -4.266  -2.172  0.00  0.00    -0.265 OA
ATOM      8  H   UNL     1       0.098  -4.827   0.837  0.00  0.00    +0.155 HD
BRANCH   5  13
ATOM      9  C   UNL     1      -0.597   1.361   0.307  0.00  0.00    +0.046 C 
ATOM     10  C   UNL     1      -0.446  -0.137   0.251  0.00  0.00    -0.024 A 
ATOM     11  C   UNL     1      -1.018  -0.841  -0.765  0.00  0.00    +0.007 A 
ATOM     12  C   UNL     1      -0.895  -2.224  -0.840  0.00  0.00    +0.024 A 
ATOM     13  C   UNL     1      -0.186  -2.921   0.117  0.00  0.00    +0.043 A 
ATOM     14  C   UNL     1       0.416  -2.215   1.180  0.00  0.00    +0.022 A 
ATOM     15  C   UNL     1       0.289  -0.806   1.245  0.00  0.00    +0.076 A 
ATOM     16  N   UNL     1       0.862  -0.133   2.248  0.00  0.00    -0.255 NA
ATOM     17  C   UNL     1       1.548  -0.750   3.179  0.00  0.00    +0.111 A 
ATOM     18  C   UNL     1       1.716  -2.132   3.170  0.00  0.00    +0.020 A 
ATOM     19  C   UNL     1       1.147  -2.882   2.178  0.00  0.00    +0.013 A 
ENDBRANCH   5  13
ENDBRANCH   1   6
BRANCH   3  20
ATOM     20  C   UNL     1      -0.286  -8.495  -2.494  0.00  0.00    +0.054 C 
ATOM     21  C   UNL     1      -1.718  -9.017  -2.367  0.00  0.00    +0.026 C 
BRANCH  20  22
ATOM     22  C   UNL     1       0.301  -8.938  -3.836  0.00  0.00    -0.057 C 
BRANCH  22  23
ATOM     23  N   UNL     1       1.631  -8.338  -4.010  0.00  0.00    +0.381 N 
ATOM     24  C   UNL     1       2.125  -8.633  -5.361  0.00  0.00    -0.076 C 
ATOM     25  C   UNL     1       3.474  -7.943  -5.576  0.00  0.00    -0.031 C 
ATOM     26  C   UNL     1       4.476  -8.460  -4.540  0.00  0.00    +0.003 C 
ATOM     27  C   UNL     1       3.917  -8.214  -3.136  0.00  0.00    -0.031 C 
ATOM     28  C   UNL     1       2.551  -8.894  -3.011  0.00  0.00    -0.076 C 
ATOM     29  C   UNL     1       4.875  -8.796  -2.094  0.00  0.00    +0.005 C 
ATOM     30  C   UNL     1       3.306  -6.431  -5.416  0.00  0.00    +0.005 C 
ATOM     31  H   UNL     1       1.567  -7.339  -3.888  0.00  0.00    -0.082 HD
ENDBRANCH  22  23
ENDBRANCH  20  22
ENDBRANCH   3  20
TORSDOF 5
