REMARK  Name = ZINC20418652
REMARK  12 active torsions:
REMARK  status: ('A' for Active; 'I' for Inactive)
REMARK    1  A    between atoms: C_1  and  C_2
REMARK    2  A    between atoms: C_7  and  C_8
REMARK    3  A    between atoms: C_8  and  O_9
REMARK    4  A    between atoms: O_9  and  C_10
REMARK    5  A    between atoms: C_14  and  C_16
REMARK    6  A    between atoms: C_19  and  C_30
REMARK    7  A    between atoms: C_25  and  N_29
REMARK    8  A    between atoms: C_26  and  C_27
REMARK    9  A    between atoms: C_33  and  O_36
REMARK   10  A    between atoms: O_36  and  C_37
REMARK   11  A    between atoms: C_37  and  C_38
REMARK   12  A    between atoms: C_37  and  C_39
REMARK                            x       y       z     vdW  Elec       q    Type
REMARK                         _______ _______ _______ _____ _____    ______ ____
ROOT
ATOM      1  C   UNL     1      -0.382  -1.971   9.170  0.00  0.00    +0.102 C 
ATOM      2  C   UNL     1      -1.631  -1.790   9.993  0.00  0.00    +0.054 A 
ATOM      3  C   UNL     1      -2.962  -2.048   9.651  0.00  0.00    +0.100 A 
ATOM      4  N   UNL     1      -3.716  -1.739  10.688  0.00  0.00    -0.171 NA
ATOM      5  N   UNL     1      -2.882  -1.275  11.718  0.00  0.00    -0.246 N 
ATOM      6  H   UNL     1      -3.171  -0.979  12.595  0.00  0.00    +0.192 HD
ATOM      7  C   UNL     1      -1.609  -1.315  11.273  0.00  0.00    +0.223 A 
ATOM      8  O   UNL     1      -0.460  -0.971  11.906  0.00  0.00    -0.423 OA
ATOM      9  C   UNL     1       0.703  -1.361  11.347  0.00  0.00    +0.200 C 
ATOM     10  C   UNL     1       0.810  -1.837  10.085  0.00  0.00    +0.098 C 
ENDROOT
BRANCH   1  15
ATOM     11  C   UNL     1      -0.163  -0.306   5.785  0.00  0.00    +0.121 A 
ATOM     12  C   UNL     1      -0.211   1.036   6.136  0.00  0.00    +0.045 A 
ATOM     13  C   UNL     1      -0.315   1.398   7.464  0.00  0.00    +0.004 A 
ATOM     14  C   UNL     1      -0.370   0.425   8.445  0.00  0.00    +0.005 A 
ATOM     15  C   UNL     1      -0.322  -0.913   8.099  0.00  0.00    -0.031 A 
ATOM     16  C   UNL     1      -0.224  -1.280   6.771  0.00  0.00    +0.050 A 
BRANCH  11  17
ATOM     17  O   UNL     1      -0.062  -0.665   4.478  0.00  0.00    -0.487 OA
BRANCH  17  18
ATOM     18  C   UNL     1      -0.004   0.392   3.518  0.00  0.00    +0.264 C 
BRANCH  18  25
ATOM     19  C   UNL     1       0.145   2.136   1.220  0.00  0.00    +0.044 C 
ATOM     20  C   UNL     1       0.178   0.641   1.034  0.00  0.00    -0.044 A 
ATOM     21  C   UNL     1       0.284   0.105  -0.235  0.00  0.00    +0.004 A 
ATOM     22  C   UNL     1       0.314  -1.267  -0.406  0.00  0.00    +0.000 A 
ATOM     23  C   UNL     1       0.237  -2.102   0.693  0.00  0.00    +0.000 A 
ATOM     24  C   UNL     1       0.132  -1.565   1.963  0.00  0.00    +0.007 A 
ATOM     25  C   UNL     1       0.106  -0.194   2.134  0.00  0.00    -0.007 A 
ENDBRANCH  18  25
ENDBRANCH  17  18
ENDBRANCH  11  17
ENDBRANCH   1  15
BRANCH   3  26
ATOM     26  C   UNL     1      -3.441  -2.577   8.350  0.00  0.00    +0.003 A 
ATOM     27  C   UNL     1      -2.751  -3.610   7.719  0.00  0.00    +0.013 A 
ATOM     28  C   UNL     1      -3.199  -4.099   6.509  0.00  0.00    +0.046 A 
ATOM     29  C   UNL     1      -4.336  -3.564   5.921  0.00  0.00    +0.121 A 
ATOM     30  C   UNL     1      -5.026  -2.534   6.547  0.00  0.00    +0.046 A 
ATOM     31  C   UNL     1      -4.586  -2.045   7.759  0.00  0.00    +0.013 A 
BRANCH  29  32
ATOM     32  O   UNL     1      -4.775  -4.048   4.729  0.00  0.00    -0.489 OA
BRANCH  32  33
ATOM     33  C   UNL     1      -5.887  -3.381   4.128  0.00  0.00    +0.167 C 
ATOM     34  C   UNL     1      -5.861  -3.608   2.615  0.00  0.00    +0.051 C 
ATOM     35  C   UNL     1      -7.189  -3.938   4.705  0.00  0.00    +0.051 C 
ENDBRANCH  32  33
ENDBRANCH  29  32
ENDBRANCH   3  26
BRANCH   9  36
ATOM     36  N   UNL     1       1.846  -1.271  12.102  0.00  0.00    -0.328 N 
ATOM     37  H   UNL     1       1.802  -0.935  13.011  0.00  0.00    +0.145 HD
ATOM     38  H   UNL     1       2.698  -1.544  11.727  0.00  0.00    +0.145 HD
ENDBRANCH   9  36
BRANCH  10  39
ATOM     39  C   UNL     1       2.099  -2.227   9.600  0.00  0.00    +0.101 C 
ATOM     40  N   UNL     1       3.122  -2.536   9.215  0.00  0.00    -0.191 NA
ENDBRANCH  10  39
TORSDOF 9
