REMARK  Name = ZINC47917740
REMARK  7 active torsions:
REMARK  status: ('A' for Active; 'I' for Inactive)
REMARK    1  A    between atoms: C_4  and  C_7
REMARK    2  A    between atoms: C_9  and  C_13
REMARK    3  A    between atoms: C_18  and  N_19
REMARK    4  A    between atoms: C_20  and  C_22
REMARK    5  A    between atoms: C_22  and  C_23
REMARK    6  A    between atoms: C_23  and  N_24
REMARK    7  A    between atoms: N_24  and  C_25
REMARK                            x       y       z     vdW  Elec       q    Type
REMARK                         _______ _______ _______ _____ _____    ______ ____
ROOT
ATOM      1  C   UNL     1       5.703  -3.692  -0.094  0.00  0.00    +0.040 A 
ATOM      2  C   UNL     1       7.080  -3.878  -0.212  0.00  0.00    +0.013 A 
ATOM      3  C   UNL     1       7.603  -5.155  -0.227  0.00  0.00    +0.001 A 
ATOM      4  C   UNL     1       6.766  -6.254  -0.127  0.00  0.00    +0.002 A 
ATOM      5  C   UNL     1       5.401  -6.083  -0.011  0.00  0.00    +0.024 A 
ATOM      6  C   UNL     1       4.859  -4.806   0.013  0.00  0.00    +0.044 A 
ENDROOT
BRANCH   1   9
ATOM      7  C   UNL     1       3.711  -0.690  -0.046  0.00  0.00    +0.182 A 
ATOM      8  N   UNL     1       3.856  -2.020  -0.058  0.00  0.00    -0.207 NA
ATOM      9  C   UNL     1       5.136  -2.327  -0.077  0.00  0.00    +0.158 A 
ATOM     10  N   UNL     1       5.843  -1.172  -0.077  0.00  0.00    -0.258 N 
ATOM     11  H   UNL     1       6.809  -1.082  -0.089  0.00  0.00    +0.191 HD
ATOM     12  N   UNL     1       4.901  -0.130  -0.062  0.00  0.00    -0.152 NA
BRANCH   7  16
ATOM     13  C   UNL     1       0.003   1.390   0.017  0.00  0.00    +0.000 A 
ATOM     14  C   UNL     1       1.190   2.099   0.002  0.00  0.00    +0.001 A 
ATOM     15  C   UNL     1       2.397   1.429  -0.018  0.00  0.00    +0.011 A 
ATOM     16  C   UNL     1       2.417   0.036  -0.023  0.00  0.00    +0.021 A 
ATOM     17  C   UNL     1       1.218  -0.673  -0.008  0.00  0.00    +0.011 A 
ATOM     18  C   UNL     1       0.017   0.007   0.013  0.00  0.00    +0.001 A 
ENDBRANCH   7  16
ENDBRANCH   1   9
BRANCH   6  19
ATOM     19  N   UNL     1       3.480  -4.631   0.138  0.00  0.00    -0.285 N 
ATOM     20  C   UNL     1       2.758  -5.486   0.889  0.00  0.00    +0.219 C 
ATOM     21  O   UNL     1       3.317  -6.346   1.536  0.00  0.00    -0.275 OA
ATOM     22  H   UNL     1       3.041  -3.895  -0.317  0.00  0.00    +0.155 HD
BRANCH  20  23
ATOM     23  C   UNL     1       1.256  -5.372   0.927  0.00  0.00    +0.114 C 
BRANCH  23  24
ATOM     24  C   UNL     1       0.685  -6.452   1.848  0.00  0.00    +0.111 C 
BRANCH  24  25
ATOM     25  N   UNL     1      -0.776  -6.341   1.884  0.00  0.00    -0.343 N 
ATOM     26  H   UNL     1      -1.223  -5.653   1.367  0.00  0.00    +0.146 HD
BRANCH  25  27
ATOM     27  C   UNL     1      -1.524  -7.226   2.663  0.00  0.00    +0.027 A 
ATOM     28  C   UNL     1      -0.885  -8.209   3.408  0.00  0.00    +0.023 A 
ATOM     29  C   UNL     1      -1.628  -9.083   4.178  0.00  0.00    +0.002 A 
ATOM     30  C   UNL     1      -3.007  -8.980   4.207  0.00  0.00    +0.000 A 
ATOM     31  C   UNL     1      -3.646  -8.003   3.466  0.00  0.00    +0.002 A 
ATOM     32  C   UNL     1      -2.909  -7.122   2.699  0.00  0.00    +0.023 A 
ENDBRANCH  25  27
ENDBRANCH  24  25
ENDBRANCH  23  24
ENDBRANCH  20  23
ENDBRANCH   6  19
TORSDOF 7
