REMARK  Name = ZINC40010975
REMARK  13 active torsions:
REMARK  status: ('A' for Active; 'I' for Inactive)
REMARK    1  A    between atoms: C_1  and  C_2
REMARK    2  A    between atoms: C_7  and  C_15
REMARK    3  A    between atoms: C_13  and  C_14
REMARK    4  A    between atoms: C_19  and  O_35
REMARK    5  A    between atoms: C_20  and  O_33
REMARK    6  A    between atoms: N_25  and  C_26
REMARK    7  A    between atoms: C_26  and  N_28
REMARK    8  A    between atoms: N_28  and  C_29
REMARK    9  A    between atoms: C_29  and  C_30
REMARK   10  A    between atoms: C_30  and  O_31
REMARK   11  A    between atoms: O_31  and  C_32
REMARK   12  A    between atoms: O_33  and  C_34
REMARK   13  A    between atoms: O_35  and  C_36
REMARK                            x       y       z     vdW  Elec       q    Type
REMARK                         _______ _______ _______ _____ _____    ______ ____
ROOT
ATOM      1  C   UNL     1       1.262  -5.619   1.381  0.00  0.00    +0.121 C 
ATOM      2  C   UNL     1       1.374  -6.372   2.683  0.00  0.00    -0.019 A 
ATOM      3  C   UNL     1       0.234  -7.003   3.163  0.00  0.00    +0.055 A 
ATOM      4  C   UNL     1       0.273  -7.719   4.346  0.00  0.00    +0.162 A 
ATOM      5  C   UNL     1       1.466  -7.805   5.058  0.00  0.00    +0.162 A 
ATOM      6  C   UNL     1       2.596  -7.172   4.577  0.00  0.00    +0.053 A 
ATOM      7  C   UNL     1       2.552  -6.448   3.391  0.00  0.00    -0.037 A 
ATOM      8  C   UNL     1       3.818  -5.763   2.946  0.00  0.00    +0.054 C 
ATOM      9  C   UNL     1       3.765  -5.436   1.455  0.00  0.00    +0.112 C 
ATOM     10  N   UNL     1       2.465  -4.804   1.178  0.00  0.00    -0.304 N 
ENDROOT
BRANCH   1  17
ATOM     11  C   UNL     1      -3.345  -3.133   6.748  0.00  0.00    +0.044 C 
ATOM     12  C   UNL     1      -2.384  -3.273   5.595  0.00  0.00    -0.046 A 
ATOM     13  C   UNL     1      -1.301  -2.397   5.516  0.00  0.00    +0.004 A 
ATOM     14  C   UNL     1      -0.402  -2.473   4.501  0.00  0.00    +0.010 A 
ATOM     15  C   UNL     1      -0.582  -3.501   3.475  0.00  0.00    -0.007 A 
ATOM     16  C   UNL     1       0.296  -3.616   2.439  0.00  0.00    -0.003 C 
ATOM     17  C   UNL     1       0.032  -4.710   1.422  0.00  0.00    +0.123 C 
ATOM     18  C   UNL     1      -1.182  -5.583   1.641  0.00  0.00    +0.226 C 
ATOM     19  O   UNL     1      -1.441  -6.476   0.856  0.00  0.00    -0.275 OA
ATOM     20  N   UNL     1      -1.962  -5.373   2.688  0.00  0.00    -0.284 N 
ATOM     21  C   UNL     1      -1.734  -4.413   3.584  0.00  0.00    +0.043 A 
ATOM     22  C   UNL     1      -2.603  -4.251   4.678  0.00  0.00    -0.026 A 
ATOM     23  C   UNL     1      -3.791  -5.166   4.831  0.00  0.00    +0.046 C 
ATOM     24  H   UNL     1      -2.736  -5.945   2.811  0.00  0.00    +0.155 HD
ENDBRANCH   1  17
BRANCH  10  25
ATOM     25  C   UNL     1       2.383  -3.527   0.752  0.00  0.00    +0.133 C 
ATOM     26  S   UNL     1       0.881  -2.895   0.228  0.00  0.00    -0.019 S 
BRANCH  25  27
ATOM     27  N   UNL     1       3.483  -2.749   0.740  0.00  0.00    -0.324 N 
ATOM     28  H   UNL     1       4.347  -3.127   0.969  0.00  0.00    +0.148 HD
BRANCH  27  29
ATOM     29  C   UNL     1       3.375  -1.333   0.382  0.00  0.00    +0.131 C 
BRANCH  29  30
ATOM     30  C   UNL     1       4.759  -0.683   0.446  0.00  0.00    +0.178 C 
BRANCH  30  31
ATOM     31  O   UNL     1       5.603  -1.262  -0.551  0.00  0.00    -0.381 OA
ATOM     32  C   UNL     1       6.926  -0.723  -0.577  0.00  0.00    +0.194 C 
ENDBRANCH  30  31
ENDBRANCH  29  30
ENDBRANCH  27  29
ENDBRANCH  25  27
ENDBRANCH  10  25
BRANCH   5  33
ATOM     33  O   UNL     1       1.519  -8.510   6.220  0.00  0.00    -0.491 OA
ATOM     34  C   UNL     1       2.778  -8.554   6.894  0.00  0.00    +0.277 C 
ENDBRANCH   5  33
BRANCH   4  35
ATOM     35  O   UNL     1      -0.848  -8.333   4.811  0.00  0.00    -0.491 OA
ATOM     36  C   UNL     1      -1.999  -8.309   3.965  0.00  0.00    +0.277 C 
ENDBRANCH   4  35
TORSDOF 8
