REMARK  Name = ZINC65487062
REMARK  10 active torsions:
REMARK  status: ('A' for Active; 'I' for Inactive)
REMARK    1  A    between atoms: C_1  and  C_2
REMARK    2  A    between atoms: C_3  and  C_9
REMARK    3  A    between atoms: C_4  and  C_8
REMARK    4  A    between atoms: N_5  and  C_7
REMARK    5  A    between atoms: C_9  and  C_10
REMARK    6  A    between atoms: C_9  and  N_11
REMARK    7  A    between atoms: N_14  and  N_15
REMARK    8  A    between atoms: C_16  and  C_18
REMARK    9  A    between atoms: C_18  and  O_19
REMARK   10  A    between atoms: O_19  and  C_20
REMARK                            x       y       z     vdW  Elec       q    Type
REMARK                         _______ _______ _______ _____ _____    ______ ____
ROOT
ATOM      1  N   UNL     1      -0.616   0.845  -2.745  0.00  0.00    -0.292 N 
ATOM      2  C   UNL     1      -1.168   1.100  -3.947  0.00  0.00    +0.316 C 
ATOM      3  O   UNL     1      -0.975   0.342  -4.878  0.00  0.00    -0.251 OA
ATOM      4  N   UNL     1      -1.935   2.195  -4.118  0.00  0.00    -0.218 N 
ATOM      5  H   UNL     1      -0.769   1.450  -2.002  0.00  0.00    +0.151 HD
ATOM      6  H   UNL     1      -2.333   2.379  -4.983  0.00  0.00    +0.174 HD
ENDROOT
BRANCH   4   7
ATOM      7  N   UNL     1      -2.157   3.069  -3.045  0.00  0.00    -0.230 N 
ATOM      8  C   UNL     1      -2.923   4.164  -3.216  0.00  0.00    +0.267 C 
ATOM      9  O   UNL     1      -3.421   4.394  -4.298  0.00  0.00    -0.271 OA
ATOM     10  H   UNL     1      -1.759   2.885  -2.180  0.00  0.00    +0.173 HD
BRANCH   8  11
ATOM     11  C   UNL     1      -3.162   5.104  -2.062  0.00  0.00    +0.326 C 
BRANCH  11  12
ATOM     12  O   UNL     1      -3.999   6.180  -2.490  0.00  0.00    -0.480 OA
BRANCH  12  13
ATOM     13  C   UNL     1      -4.314   7.124  -1.563  0.00  0.00    +0.156 A 
ATOM     14  C   UNL     1      -3.822   7.019  -0.271  0.00  0.00    +0.048 A 
ATOM     15  C   UNL     1      -4.143   7.979   0.670  0.00  0.00    +0.004 A 
ATOM     16  C   UNL     1      -4.954   9.044   0.325  0.00  0.00    +0.003 A 
ATOM     17  C   UNL     1      -5.446   9.152  -0.962  0.00  0.00    +0.042 A 
ATOM     18  C   UNL     1      -5.123   8.198  -1.910  0.00  0.00    +0.165 A 
ATOM     19  F   UNL     1      -5.599   8.307  -3.170  0.00  0.00    -0.202 F 
ENDBRANCH  12  13
ENDBRANCH  11  12
ENDBRANCH   8  11
ENDBRANCH   4   7
BRANCH   1  20
ATOM     20  C   UNL     1       0.218  -0.346  -2.559  0.00  0.00    +0.105 C 
ATOM     21  C   UNL     1       1.648  -0.043  -3.011  0.00  0.00    +0.033 C 
BRANCH  20  24
ATOM     22  C   UNL     1      -0.184  -3.272  -1.410  0.00  0.00    +0.068 C 
ATOM     23  C   UNL     1       0.046  -2.025  -0.595  0.00  0.00    +0.065 A 
ATOM     24  C   UNL     1       0.222  -0.734  -1.103  0.00  0.00    +0.016 A 
ATOM     25  C   UNL     1       0.399   0.105  -0.056  0.00  0.00    +0.041 A 
ATOM     26  N   UNL     1       0.336  -0.629   1.075  0.00  0.00    -0.271 N 
ATOM     27  N   UNL     1       0.109  -1.962   0.711  0.00  0.00    -0.176 NA
ATOM     28  C   UNL     1       0.476  -0.120   2.441  0.00  0.00    +0.172 C 
ATOM     29  C   UNL     1       0.625   1.593  -0.138  0.00  0.00    +0.065 C 
ENDBRANCH  20  24
ENDBRANCH   1  20
TORSDOF 6
