REMARK  Name = ZINC59417319
REMARK  7 active torsions:
REMARK  status: ('A' for Active; 'I' for Inactive)
REMARK    1  A    between atoms: C_1  and  C_2
REMARK    2  A    between atoms: C_2  and  C_41
REMARK    3  A    between atoms: C_6  and  C_20
REMARK    4  A    between atoms: C_23  and  O_26
REMARK    5  A    between atoms: O_26  and  C_27
REMARK    6  A    between atoms: C_27  and  C_29
REMARK    7  A    between atoms: C_32  and  N_35
REMARK                            x       y       z     vdW  Elec       q    Type
REMARK                         _______ _______ _______ _____ _____    ______ ____
ROOT
ATOM      1  C   UNL     1      -0.065   1.441   0.173  0.00  0.00    +0.011 C 
ATOM      2  C   UNL     1      -0.020  -0.087   0.248  0.00  0.00    -0.023 C 
ATOM      3  C   UNL     1       0.650  -0.643  -1.010  0.00  0.00    +0.062 C 
ATOM      4  C   UNL     1       2.067  -0.132  -1.100  0.00  0.00    +0.049 C 
ATOM      5  C   UNL     1       2.777   0.139   0.027  0.00  0.00    +0.025 C 
ATOM      6  C   UNL     1       4.205   0.646  -0.058  0.00  0.00    +0.070 C 
ATOM      7  C   UNL     1       4.314   1.510  -1.313  0.00  0.00    +0.121 C 
ATOM      8  C   UNL     1       3.713   0.706  -2.455  0.00  0.00    +0.061 C 
ATOM      9  N   UNL     1       2.612   0.014  -2.324  0.00  0.00    -0.255 NA
ATOM     10  C   UNL     1       4.641   0.793  -3.566  0.00  0.00    +0.007 A 
ATOM     11  C   UNL     1       4.485   0.389  -4.899  0.00  0.00    +0.010 A 
ATOM     12  C   UNL     1       5.567   0.575  -5.747  0.00  0.00    +0.001 A 
ATOM     13  C   UNL     1       6.754   1.133  -5.311  0.00  0.00    +0.001 A 
ATOM     14  C   UNL     1       6.934   1.552  -4.000  0.00  0.00    +0.012 A 
ATOM     15  C   UNL     1       5.856   1.387  -3.125  0.00  0.00    +0.027 A 
ATOM     16  C   UNL     1       5.741   1.787  -1.706  0.00  0.00    +0.174 C 
ATOM     17  O   UNL     1       6.612   2.241  -0.996  0.00  0.00    -0.291 OA
ATOM     18  C   UNL     1       2.215  -0.037   1.303  0.00  0.00    +0.162 C 
ATOM     19  O   UNL     1       2.884   0.203   2.288  0.00  0.00    -0.292 OA
ATOM     20  C   UNL     1       0.799  -0.518   1.469  0.00  0.00    +0.086 C 
ATOM     21  C   UNL     1      -1.443  -0.637   0.363  0.00  0.00    +0.011 C 
ENDROOT
BRANCH   6  22
ATOM     22  C   UNL     1       5.157  -0.519  -0.153  0.00  0.00    -0.039 A 
ATOM     23  C   UNL     1       5.063  -1.402  -1.212  0.00  0.00    +0.008 A 
ATOM     24  C   UNL     1       5.934  -2.471  -1.301  0.00  0.00    +0.046 A 
ATOM     25  C   UNL     1       6.904  -2.657  -0.327  0.00  0.00    +0.132 A 
ATOM     26  C   UNL     1       6.996  -1.769   0.735  0.00  0.00    +0.046 A 
ATOM     27  C   UNL     1       6.126  -0.699   0.817  0.00  0.00    +0.008 A 
BRANCH  25  28
ATOM     28  O   UNL     1       7.762  -3.708  -0.412  0.00  0.00    -0.422 OA
BRANCH  28  29
ATOM     29  C   UNL     1       8.683  -3.693  -1.395  0.00  0.00    +0.344 C 
ATOM     30  O   UNL     1       8.799  -2.715  -2.106  0.00  0.00    -0.245 OA
BRANCH  29  31
ATOM     31  C   UNL     1       9.554  -4.868  -1.608  0.00  0.00    +0.060 A 
ATOM     32  C   UNL     1       9.420  -5.996  -0.797  0.00  0.00    +0.017 A 
ATOM     33  C   UNL     1      10.236  -7.090  -1.002  0.00  0.00    +0.033 A 
ATOM     34  C   UNL     1      11.185  -7.069  -2.008  0.00  0.00    +0.126 A 
ATOM     35  C   UNL     1      11.324  -5.954  -2.815  0.00  0.00    +0.033 A 
ATOM     36  C   UNL     1      10.510  -4.856  -2.626  0.00  0.00    +0.017 A 
BRANCH  34  37
ATOM     37  N   UNL     1      12.058  -8.246  -2.221  0.00  0.00    +0.056 N 
ATOM     38  O   UNL     1      11.940  -9.222  -1.518  0.00  0.00    -0.126 OA
ATOM     39  O   UNL     1      12.889  -8.231  -3.100  0.00  0.00    -0.126 OA
ENDBRANCH  34  37
ENDBRANCH  29  31
ENDBRANCH  28  29
ENDBRANCH  25  28
ENDBRANCH   6  22
TORSDOF 5
