REMARK  Name = ZINC12040901
REMARK  11 active torsions:
REMARK  status: ('A' for Active; 'I' for Inactive)
REMARK    1  A    between atoms: C_1  and  C_2
REMARK    2  A    between atoms: C_5  and  O_8
REMARK    3  A    between atoms: O_8  and  C_9
REMARK    4  A    between atoms: C_14  and  N_15
REMARK    5  A    between atoms: C_16  and  C_18
REMARK    6  A    between atoms: C_18  and  O_19
REMARK    7  A    between atoms: O_19  and  C_20
REMARK    8  A    between atoms: C_20  and  C_22
REMARK    9  A    between atoms: C_22  and  N_30
REMARK   10  A    between atoms: C_23  and  C_24
REMARK   11  A    between atoms: C_31  and  C_35
REMARK                            x       y       z     vdW  Elec       q    Type
REMARK                         _______ _______ _______ _____ _____    ______ ____
ROOT
ATOM      1  N   UNL     1      -1.625  -0.119   0.171  0.00  0.00    -0.280 N 
ATOM      2  C   UNL     1      -0.320  -0.064  -0.160  0.00  0.00    +0.255 C 
ATOM      3  O   UNL     1       0.191  -0.983  -0.766  0.00  0.00    -0.272 OA
ATOM      4  H   UNL     1      -2.054   0.648   0.582  0.00  0.00    +0.155 HD
ENDROOT
BRANCH   1  10
ATOM      5  C   UNL     1      -3.755  -1.229  -0.131  0.00  0.00    +0.150 A 
ATOM      6  C   UNL     1      -4.480  -2.383  -0.385  0.00  0.00    +0.048 A 
ATOM      7  C   UNL     1      -3.824  -3.584  -0.578  0.00  0.00    +0.004 A 
ATOM      8  C   UNL     1      -2.443  -3.638  -0.522  0.00  0.00    +0.002 A 
ATOM      9  C   UNL     1      -1.712  -2.491  -0.275  0.00  0.00    +0.027 A 
ATOM     10  C   UNL     1      -2.364  -1.282  -0.081  0.00  0.00    +0.076 A 
BRANCH   5  11
ATOM     11  O   UNL     1      -4.400  -0.048   0.063  0.00  0.00    -0.454 OA
BRANCH  11  16
ATOM     12  C   UNL     1     -10.028  -0.110   0.274  0.00  0.00    +0.044 C 
ATOM     13  C   UNL     1      -8.522  -0.093   0.218  0.00  0.00    -0.050 A 
ATOM     14  C   UNL     1      -7.786  -0.592   1.277  0.00  0.00    +0.007 A 
ATOM     15  C   UNL     1      -6.406  -0.578   1.228  0.00  0.00    +0.046 A 
ATOM     16  C   UNL     1      -5.758  -0.063   0.114  0.00  0.00    +0.129 A 
ATOM     17  C   UNL     1      -6.498   0.442  -0.945  0.00  0.00    +0.046 A 
ATOM     18  C   UNL     1      -7.878   0.421  -0.893  0.00  0.00    +0.007 A 
ENDBRANCH  11  16
ENDBRANCH   5  11
ENDBRANCH   1  10
BRANCH   2  19
ATOM     19  C   UNL     1       0.504   1.140   0.218  0.00  0.00    +0.328 C 
BRANCH  19  20
ATOM     20  O   UNL     1       1.891   0.909  -0.142  0.00  0.00    -0.451 OA
BRANCH  20  21
ATOM     21  C   UNL     1       2.782   1.856   0.216  0.00  0.00    +0.358 C 
ATOM     22  O   UNL     1       2.398   2.888   0.734  0.00  0.00    -0.243 OA
BRANCH  21  23
ATOM     23  C   UNL     1       4.215   1.642  -0.018  0.00  0.00    +0.153 C 
ATOM     24  C   UNL     1       5.115   2.563   0.402  0.00  0.00    +0.043 C 
BRANCH  24  25
ATOM     25  C   UNL     1       6.555   2.277   0.314  0.00  0.00    -0.023 A 
ATOM     26  C   UNL     1       7.006   0.954   0.252  0.00  0.00    +0.008 A 
ATOM     27  C   UNL     1       8.358   0.695   0.164  0.00  0.00    +0.001 A 
ATOM     28  C   UNL     1       9.267   1.738   0.150  0.00  0.00    +0.000 A 
ATOM     29  C   UNL     1       8.829   3.049   0.217  0.00  0.00    +0.001 A 
ATOM     30  C   UNL     1       7.480   3.326   0.299  0.00  0.00    +0.008 A 
ENDBRANCH  24  25
BRANCH  23  31
ATOM     31  N   UNL     1       4.652   0.484  -0.675  0.00  0.00    -0.190 N 
ATOM     32  C   UNL     1       4.431  -0.798  -0.312  0.00  0.00    +0.154 A 
ATOM     33  N   UNL     1       5.014  -1.560  -1.201  0.00  0.00    -0.113 NA
ATOM     34  N   UNL     1       5.587  -0.846  -2.102  0.00  0.00    -0.023 NA
ATOM     35  N   UNL     1       5.410   0.407  -1.857  0.00  0.00    -0.039 NA
ATOM     36  C   UNL     1       3.657  -1.265   0.894  0.00  0.00    +0.090 C 
ENDBRANCH  23  31
ENDBRANCH  21  23
ENDBRANCH  20  21
ENDBRANCH  19  20
ENDBRANCH   2  19
TORSDOF 9
