REMARK  Name = ZINC12712368
REMARK  15 active torsions:
REMARK  status: ('A' for Active; 'I' for Inactive)
REMARK    1  A    between atoms: C_1  and  C_2
REMARK    2  A    between atoms: C_5  and  C_8
REMARK    3  A    between atoms: C_8  and  C_10
REMARK    4  A    between atoms: C_8  and  N_18
REMARK    5  A    between atoms: N_12  and  C_13
REMARK    6  A    between atoms: C_13  and  C_14
REMARK    7  A    between atoms: C_14  and  C_15
REMARK    8  A    between atoms: C_15  and  C_16
REMARK    9  A    between atoms: C_15  and  C_17
REMARK   10  A    between atoms: N_18  and  C_19
REMARK   11  A    between atoms: C_19  and  C_20
REMARK   12  A    between atoms: C_20  and  C_21
REMARK   13  A    between atoms: C_26  and  C_27
REMARK   14  A    between atoms: C_28  and  C_30
REMARK   15  A    between atoms: C_30  and  N_31
REMARK                            x       y       z     vdW  Elec       q    Type
REMARK                         _______ _______ _______ _____ _____    ______ ____
ROOT
ATOM      1  N   UNL     1      -5.713   0.920  -0.581  0.00  0.00    -0.284 N 
ATOM      2  C   UNL     1      -7.006   0.541  -0.607  0.00  0.00    +0.238 C 
ATOM      3  O   UNL     1      -7.378  -0.391   0.074  0.00  0.00    -0.274 OA
ENDROOT
BRANCH   1   4
ATOM      4  C   UNL     1      -4.757   0.208   0.272  0.00  0.00    +0.192 C 
BRANCH   4   9
ATOM      5  C   UNL     1      -5.135  -5.469  -0.743  0.00  0.00    +0.044 C 
ATOM      6  C   UNL     1      -5.036  -3.988  -0.478  0.00  0.00    -0.050 A 
ATOM      7  C   UNL     1      -4.878  -3.526   0.815  0.00  0.00    +0.004 A 
ATOM      8  C   UNL     1      -4.788  -2.168   1.058  0.00  0.00    +0.006 A 
ATOM      9  C   UNL     1      -4.855  -1.273   0.007  0.00  0.00    -0.018 A 
ATOM     10  C   UNL     1      -5.018  -1.734  -1.286  0.00  0.00    +0.006 A 
ATOM     11  C   UNL     1      -5.103  -3.092  -1.529  0.00  0.00    +0.004 A 
ENDBRANCH   4   9
BRANCH   4  12
ATOM     12  C   UNL     1      -3.360   0.682  -0.035  0.00  0.00    +0.238 C 
ATOM     13  O   UNL     1      -3.038   0.918  -1.180  0.00  0.00    -0.273 OA
ATOM     14  N   UNL     1      -2.469   0.843   0.963  0.00  0.00    -0.313 N 
ATOM     15  H   UNL     1      -2.727   0.654   1.879  0.00  0.00    +0.149 HD
BRANCH  14  16
ATOM     16  C   UNL     1      -1.109   1.298   0.664  0.00  0.00    +0.104 C 
BRANCH  16  17
ATOM     17  C   UNL     1      -0.305   1.390   1.963  0.00  0.00    +0.022 C 
BRANCH  17  18
ATOM     18  C   UNL     1       1.115   1.865   1.651  0.00  0.00    -0.016 C 
ATOM     19  C   UNL     1       1.067   3.292   1.103  0.00  0.00    +0.007 C 
ATOM     20  C   UNL     1       1.955   1.838   2.930  0.00  0.00    +0.007 C 
ENDBRANCH  17  18
ENDBRANCH  16  17
ENDBRANCH  14  16
ENDBRANCH   4  12
ENDBRANCH   1   4
BRANCH   1  21
ATOM     21  C   UNL     1      -5.263   2.046  -1.403  0.00  0.00    +0.113 C 
BRANCH  21  22
ATOM     22  C   UNL     1      -4.959   1.552  -2.820  0.00  0.00    +0.054 C 
BRANCH  22  23
ATOM     23  C   UNL     1      -4.696   2.734  -3.717  0.00  0.00    -0.043 A 
ATOM     24  C   UNL     1      -5.652   3.723  -3.857  0.00  0.00    +0.004 A 
ATOM     25  C   UNL     1      -5.408   4.809  -4.676  0.00  0.00    +0.000 A 
ATOM     26  C   UNL     1      -4.212   4.901  -5.365  0.00  0.00    +0.000 A 
ATOM     27  C   UNL     1      -3.259   3.910  -5.229  0.00  0.00    +0.003 A 
ATOM     28  C   UNL     1      -3.501   2.826  -4.405  0.00  0.00    -0.047 A 
ATOM     29  C   UNL     1      -2.461   1.745  -4.258  0.00  0.00    +0.044 C 
ENDBRANCH  22  23
ENDBRANCH  21  22
ENDBRANCH   1  21
BRANCH   2  30
ATOM     30  C   UNL     1      -7.988   1.274  -1.484  0.00  0.00    +0.241 C 
BRANCH  30  31
ATOM     31  N   UNL     1      -9.317   0.674  -1.335  0.00  0.00    -0.235 N 
ATOM     32  C   UNL     1     -10.283   1.030  -0.425  0.00  0.00    +0.090 A 
ATOM     33  C   UNL     1     -10.356   1.985   0.584  0.00  0.00    +0.029 A 
ATOM     34  C   UNL     1     -11.491   2.092   1.337  0.00  0.00    +0.002 A 
ATOM     35  C   UNL     1     -12.575   1.256   1.105  0.00  0.00    +0.002 A 
ATOM     36  C   UNL     1     -12.529   0.311   0.122  0.00  0.00    +0.032 A 
ATOM     37  C   UNL     1     -11.377   0.180  -0.665  0.00  0.00    +0.113 A 
ATOM     38  N   UNL     1     -11.043  -0.638  -1.683  0.00  0.00    -0.129 NA
ATOM     39  N   UNL     1      -9.855  -0.373  -2.099  0.00  0.00    -0.064 NA
ENDBRANCH  30  31
ENDBRANCH   2  30
TORSDOF 11
