REMARK  Name = ZINC10042085
REMARK  9 active torsions:
REMARK  status: ('A' for Active; 'I' for Inactive)
REMARK    1  A    between atoms: C_1  and  C_2
REMARK    2  A    between atoms: C_3  and  C_21
REMARK    3  A    between atoms: N_4  and  C_20
REMARK    4  A    between atoms: N_6  and  C_7
REMARK    5  A    between atoms: C_7  and  C_9
REMARK    6  A    between atoms: C_12  and  O_17
REMARK    7  A    between atoms: C_13  and  O_15
REMARK    8  A    between atoms: O_15  and  C_16
REMARK    9  A    between atoms: O_17  and  C_18
REMARK                            x       y       z     vdW  Elec       q    Type
REMARK                         _______ _______ _______ _____ _____    ______ ____
ROOT
ATOM      1  C   UNL     1       0.412 -10.292   0.287  0.00  0.00    +0.054 C 
ATOM      2  C   UNL     1       0.881  -8.872   0.103  0.00  0.00    +0.014 A 
ATOM      3  C   UNL     1       2.131  -8.411  -0.124  0.00  0.00    +0.060 A 
ATOM      4  N   UNL     1       2.307  -7.064  -0.263  0.00  0.00    -0.324 N 
ATOM      5  C   UNL     1       1.223  -6.243  -0.157  0.00  0.00    +0.166 A 
ATOM      6  N   UNL     1       1.170  -4.917  -0.254  0.00  0.00    -0.152 NA
ATOM      7  S   UNL     1      -0.071  -7.363   0.128  0.00  0.00    -0.057 S 
ATOM      8  C   UNL     1       3.639  -6.510  -0.518  0.00  0.00    +0.151 C 
ENDROOT
BRANCH   3   9
ATOM      9  C   UNL     1       3.277  -9.341  -0.224  0.00  0.00    -0.001 A 
ATOM     10  C   UNL     1       3.147 -10.540  -0.926  0.00  0.00    +0.011 A 
ATOM     11  C   UNL     1       4.221 -11.401  -1.020  0.00  0.00    +0.016 A 
ATOM     12  C   UNL     1       5.422 -11.083  -0.411  0.00  0.00    +0.018 A 
ATOM     13  C   UNL     1       5.556  -9.897   0.291  0.00  0.00    +0.016 A 
ATOM     14  C   UNL     1       4.491  -9.026   0.388  0.00  0.00    +0.011 A 
ATOM     15 BR   UNL     1       6.887 -12.273  -0.538  0.00  0.00    -0.050 Br
ENDBRANCH   3   9
BRANCH   6  16
ATOM     16  C   UNL     1       0.001  -4.284  -0.126  0.00  0.00    +0.270 C 
ATOM     17  O   UNL     1      -1.018  -4.921   0.080  0.00  0.00    -0.268 OA
BRANCH  16  18
ATOM     18  C   UNL     1      -0.058  -2.809  -0.234  0.00  0.00    +0.042 A 
ATOM     19  C   UNL     1       1.108  -2.079  -0.469  0.00  0.00    +0.017 A 
ATOM     20  C   UNL     1       1.051  -0.705  -0.575  0.00  0.00    +0.050 A 
ATOM     21  C   UNL     1      -0.162  -0.045  -0.437  0.00  0.00    +0.162 A 
ATOM     22  C   UNL     1      -1.329  -0.769  -0.202  0.00  0.00    +0.162 A 
ATOM     23  C   UNL     1      -1.279  -2.147  -0.101  0.00  0.00    +0.062 A 
BRANCH  22  24
ATOM     24  O   UNL     1      -2.517  -0.120  -0.071  0.00  0.00    -0.491 OA
ATOM     25  C   UNL     1      -3.673  -0.926   0.168  0.00  0.00    +0.277 C 
ENDBRANCH  22  24
BRANCH  21  26
ATOM     26  O   UNL     1      -0.212   1.309  -0.536  0.00  0.00    -0.491 OA
ATOM     27  C   UNL     1       1.022   1.988  -0.777  0.00  0.00    +0.277 C 
ENDBRANCH  21  26
ENDBRANCH  16  18
ENDBRANCH   6  16
TORSDOF 5
