REMARK  Name = ZINC54621819
REMARK  5 active torsions:
REMARK  status: ('A' for Active; 'I' for Inactive)
REMARK    1  A    between atoms: C_5  and  C_7
REMARK    2  A    between atoms: C_7  and  C_9
REMARK    3  A    between atoms: C_7  and  N_20
REMARK    4  A    between atoms: C_18  and  O_19
REMARK    5  A    between atoms: N_20  and  C_21
REMARK                            x       y       z     vdW  Elec       q    Type
REMARK                         _______ _______ _______ _____ _____    ______ ____
ROOT
ATOM      1  C   UNL     1       1.250  -2.168  -0.023  0.00  0.00    +0.153 C 
ENDROOT
BRANCH   1   2
ATOM      2  C   UNL     1       2.177  -2.617  -1.124  0.00  0.00    +0.022 A 
ATOM      3  C   UNL     1       3.520  -2.846  -0.838  0.00  0.00    +0.010 A 
ATOM      4  C   UNL     1       4.383  -3.252  -1.810  0.00  0.00    +0.010 A 
ATOM      5  C   UNL     1       3.915  -3.444  -3.121  0.00  0.00    +0.004 A 
ATOM      6  C   UNL     1       4.777  -3.864  -4.152  0.00  0.00    +0.011 A 
ATOM      7  C   UNL     1       4.252  -4.029  -5.402  0.00  0.00    +0.020 A 
ATOM      8  C   UNL     1       2.899  -3.784  -5.627  0.00  0.00    +0.111 A 
ATOM      9  N   UNL     1       2.101  -3.393  -4.664  0.00  0.00    -0.251 NA
ATOM     10  C   UNL     1       2.550  -3.212  -3.419  0.00  0.00    +0.113 A 
ATOM     11  C   UNL     1       1.685  -2.797  -2.385  0.00  0.00    +0.148 A 
BRANCH  11  12
ATOM     12  O   UNL     1       0.370  -2.574  -2.643  0.00  0.00    -0.504 OA
ATOM     13  H   UNL     1       0.170  -1.666  -2.910  0.00  0.00    +0.292 HD
ENDBRANCH  11  12
ENDBRANCH   1   2
BRANCH   1  18
ATOM     14  C   UNL     1      -0.084   1.357  -0.071  0.00  0.00    +0.003 A 
ATOM     15  C   UNL     1       1.109   2.056   0.038  0.00  0.00    +0.020 A 
ATOM     16  C   UNL     1       2.296   1.354   0.122  0.00  0.00    +0.111 A 
ATOM     17  N   UNL     1       2.302   0.035   0.100  0.00  0.00    -0.258 NA
ATOM     18  C   UNL     1       1.188  -0.662  -0.002  0.00  0.00    +0.066 A 
ATOM     19  C   UNL     1      -0.037  -0.028  -0.090  0.00  0.00    +0.025 A 
ENDBRANCH   1  18
BRANCH   1  20
ATOM     20  N   UNL     1       1.751  -2.654   1.265  0.00  0.00    -0.332 N 
ATOM     21  H   UNL     1       2.699  -2.823   1.385  0.00  0.00    +0.147 HD
BRANCH  20  22
ATOM     22  C   UNL     1       0.864  -2.874   2.322  0.00  0.00    +0.029 A 
ATOM     23  C   UNL     1      -0.494  -2.638   2.150  0.00  0.00    +0.024 A 
ATOM     24  C   UNL     1      -1.370  -2.856   3.196  0.00  0.00    +0.023 A 
ATOM     25  C   UNL     1      -0.896  -3.309   4.414  0.00  0.00    +0.059 A 
ATOM     26  C   UNL     1       0.458  -3.545   4.589  0.00  0.00    +0.061 A 
ATOM     27  C   UNL     1       1.337  -3.335   3.543  0.00  0.00    +0.044 A 
ATOM     28 CL   UNL     1       1.049  -4.113   6.119  0.00  0.00    -0.082 Cl
ATOM     29 CL   UNL     1      -1.999  -3.582   5.726  0.00  0.00    -0.082 Cl
ENDBRANCH  20  22
ENDBRANCH   1  20
TORSDOF 5
