REMARK  Name = ZINC32913491
REMARK  11 active torsions:
REMARK  status: ('A' for Active; 'I' for Inactive)
REMARK    1  A    between atoms: C_1  and  C_2
REMARK    2  A    between atoms: C_2  and  C_4
REMARK    3  A    between atoms: C_2  and  N_11
REMARK    4  A    between atoms: N_11  and  C_12
REMARK    5  A    between atoms: N_11  and  C_23
REMARK    6  A    between atoms: C_12  and  C_13
REMARK    7  A    between atoms: N_19  and  C_20
REMARK    8  A    between atoms: N_19  and  C_21
REMARK    9  A    between atoms: C_23  and  C_24
REMARK   10  A    between atoms: N_30  and  C_31
REMARK   11  A    between atoms: N_30  and  C_32
REMARK                            x       y       z     vdW  Elec       q    Type
REMARK                         _______ _______ _______ _____ _____    ______ ____
ROOT
ATOM      1  N   UNL     1       4.055   2.161  -1.496  0.00  0.00    -0.281 NA
ENDROOT
BRANCH   1   3
ATOM      2  C   UNL     1       2.997   4.214  -2.310  0.00  0.00    +0.029 C 
ATOM      3  C   UNL     1       2.861   3.008  -1.378  0.00  0.00    +0.085 C 
BRANCH   3   4
ATOM      4  C   UNL     1       1.640   2.212  -1.761  0.00  0.00    -0.030 A 
ATOM      5  C   UNL     1       1.689   1.348  -2.839  0.00  0.00    +0.006 A 
ATOM      6  C   UNL     1       0.571   0.614  -3.188  0.00  0.00    +0.020 A 
ATOM      7  C   UNL     1      -0.600   0.752  -2.465  0.00  0.00    +0.041 A 
ATOM      8  C   UNL     1      -0.650   1.621  -1.389  0.00  0.00    +0.020 A 
ATOM      9  C   UNL     1       0.470   2.351  -1.038  0.00  0.00    +0.006 A 
ATOM     10 CL   UNL     1      -2.007  -0.165  -2.906  0.00  0.00    -0.084 Cl
ENDBRANCH   3   4
ENDBRANCH   1   3
BRANCH   1  11
ATOM     11  C   UNL     1       4.121   1.188  -0.397  0.00  0.00    +0.161 C 
BRANCH  11  12
ATOM     12  C   UNL     1       3.164   0.057  -0.669  0.00  0.00    +0.150 A 
ATOM     13  N   UNL     1       1.964   0.060  -0.113  0.00  0.00    -0.198 NA
ATOM     14  C   UNL     1       1.116  -0.937  -0.351  0.00  0.00    +0.217 A 
ATOM     15  N   UNL     1       1.476  -1.938  -1.148  0.00  0.00    -0.181 NA
ATOM     16  C   UNL     1       2.682  -1.938  -1.704  0.00  0.00    +0.222 A 
ATOM     17  N   UNL     1       3.525  -0.936  -1.462  0.00  0.00    -0.198 NA
ATOM     18  N   UNL     1       3.061  -2.974  -2.533  0.00  0.00    -0.306 N 
ATOM     19  C   UNL     1       2.133  -4.076  -2.798  0.00  0.00    +0.132 C 
ATOM     20  C   UNL     1       4.391  -2.973  -3.146  0.00  0.00    +0.132 C 
ATOM     21  N   UNL     1      -0.138  -0.930   0.225  0.00  0.00    -0.327 N 
ATOM     22  H   UNL     1      -0.839  -1.755   0.028  0.00  0.00    +0.145 HD
ATOM     23  H   UNL     1      -0.437  -0.099   0.881  0.00  0.00    +0.145 HD
ENDBRANCH  11  12
ENDBRANCH   1  11
BRANCH   1  24
ATOM     24  C   UNL     1       5.276   2.976  -1.552  0.00  0.00    +0.161 C 
BRANCH  24  25
ATOM     25  C   UNL     1       5.523   3.413  -2.973  0.00  0.00    +0.150 A 
ATOM     26  N   UNL     1       5.935   2.535  -3.870  0.00  0.00    -0.198 NA
ATOM     27  C   UNL     1       6.150   2.916  -5.128  0.00  0.00    +0.217 A 
ATOM     28  N   UNL     1       5.960   4.183  -5.477  0.00  0.00    -0.181 NA
ATOM     29  C   UNL     1       5.550   5.064  -4.571  0.00  0.00    +0.222 A 
ATOM     30  N   UNL     1       5.332   4.674  -3.317  0.00  0.00    -0.198 NA
ATOM     31  N   UNL     1       5.350   6.382  -4.930  0.00  0.00    -0.306 N 
ATOM     32  C   UNL     1       4.898   7.352  -3.930  0.00  0.00    +0.132 C 
ATOM     33  C   UNL     1       5.590   6.810  -6.310  0.00  0.00    +0.132 C 
ATOM     34  N   UNL     1       6.576   1.997  -6.065  0.00  0.00    -0.327 N 
ATOM     35  H   UNL     1       6.753   2.313  -7.104  0.00  0.00    +0.145 HD
ATOM     36  H   UNL     1       6.738   0.949  -5.774  0.00  0.00    +0.145 HD
ENDBRANCH  24  25
ENDBRANCH   1  24
TORSDOF 6
