REMARK  Name = ZINC39467590
REMARK  5 active torsions:
REMARK  status: ('A' for Active; 'I' for Inactive)
REMARK    1  A    between atoms: C_4  and  O_7
REMARK    2  A    between atoms: O_7  and  S_8
REMARK    3  A    between atoms: S_8  and  C_11
REMARK    4  A    between atoms: P_20  and  C_30
REMARK    5  A    between atoms: C_35  and  O_36
REMARK                            x       y       z     vdW  Elec       q    Type
REMARK                         _______ _______ _______ _____ _____    ______ ____
ROOT
ATOM      1  C   UNL     1       3.071  -2.384   1.880  0.00  0.00    +0.142 C 
ATOM      2  C   UNL     1       3.650  -3.559   2.104  0.00  0.00    +0.009 C 
ATOM      3  C   UNL     1       2.819  -4.732   2.551  0.00  0.00    +0.018 C 
ATOM      4  C   UNL     1       3.677  -5.730   3.315  0.00  0.00    -0.003 C 
ATOM      5  C   UNL     1       2.832  -6.545   4.303  0.00  0.00    -0.020 C 
ATOM      6  C   UNL     1       3.550  -7.894   4.449  0.00  0.00    +0.157 C 
ATOM      7  O   UNL     1       2.853  -8.735   5.383  0.00  0.00    -0.316 OA
ATOM      8  P   UNL     1       1.254  -8.933   5.156  0.00  0.00    +0.291 P 
ATOM      9  O   UNL     1       0.606  -9.368   6.414  0.00  0.00    -0.269 OA
ATOM     10  N   UNL     1       0.702  -7.445   4.712  0.00  0.00    -0.288 NA
ATOM     11  N   UNL     1       1.463  -6.707   3.828  0.00  0.00    +0.398 N 
ATOM     12  C   UNL     1       0.748  -5.425   3.738  0.00  0.00    -0.046 C 
ATOM     13  C   UNL     1       1.699  -4.250   3.472  0.00  0.00    +0.006 C 
ATOM     14  C   UNL     1       0.956  -3.116   2.817  0.00  0.00    -0.003 C 
ATOM     15  C   UNL     1       1.616  -2.240   2.067  0.00  0.00    +0.065 C 
ATOM     16 CL   UNL     1       0.764  -0.934   1.303  0.00  0.00    -0.082 Cl
ATOM     17  H   UNL     1      -0.137  -7.105   5.058  0.00  0.00    +0.111 HD
ATOM     18  H   UNL     1       1.472  -7.153   2.922  0.00  0.00    -0.055 HD
ENDROOT
BRANCH   8  19
ATOM     19  C   UNL     1       0.948 -10.143   3.839  0.00  0.00    +0.091 A 
ATOM     20  C   UNL     1       0.843  -9.725   2.527  0.00  0.00    +0.018 A 
ATOM     21  C   UNL     1       0.609 -10.646   1.523  0.00  0.00    +0.001 A 
ATOM     22  C   UNL     1       0.481 -11.989   1.829  0.00  0.00    +0.004 A 
ATOM     23  C   UNL     1       0.587 -12.412   3.140  0.00  0.00    +0.046 A 
ATOM     24  C   UNL     1       0.826 -11.490   4.149  0.00  0.00    +0.131 A 
BRANCH  24  25
ATOM     25  O   UNL     1       0.935 -11.904   5.438  0.00  0.00    -0.506 OA
ATOM     26  H   UNL     1       0.096 -11.921   5.919  0.00  0.00    +0.292 HD
ENDBRANCH  24  25
ENDBRANCH   8  19
BRANCH   1  27
ATOM     27  S   UNL     1       4.038  -1.003   1.368  0.00  0.00    +0.152 S 
ATOM     28  O   UNL     1       5.393  -1.431   1.376  0.00  0.00    -0.131 OA
ATOM     29  O   UNL     1       3.588   0.112   2.125  0.00  0.00    -0.131 OA
BRANCH  27  30
ATOM     30  O   UNL     1       3.681  -0.716  -0.083  0.00  0.00    -0.342 OA
BRANCH  30  34
ATOM     31  C   UNL     1       5.291  -3.399  -2.771  0.00  0.00    +0.000 A 
ATOM     32  C   UNL     1       4.054  -3.647  -2.206  0.00  0.00    +0.004 A 
ATOM     33  C   UNL     1       3.513  -2.750  -1.305  0.00  0.00    +0.048 A 
ATOM     34  C   UNL     1       4.212  -1.600  -0.968  0.00  0.00    +0.157 A 
ATOM     35  C   UNL     1       5.453  -1.354  -1.537  0.00  0.00    +0.048 A 
ATOM     36  C   UNL     1       5.990  -2.254  -2.437  0.00  0.00    +0.004 A 
ENDBRANCH  30  34
ENDBRANCH  27  30
ENDBRANCH   1  27
TORSDOF 5
