REMARK  Name = ZINC35568243
REMARK  12 active torsions:
REMARK  status: ('A' for Active; 'I' for Inactive)
REMARK    1  A    between atoms: C_1  and  C_2
REMARK    2  A    between atoms: C_3  and  C_8
REMARK    3  A    between atoms: C_5  and  C_7
REMARK    4  A    between atoms: C_8  and  C_10
REMARK    5  A    between atoms: N_14  and  C_29
REMARK    6  A    between atoms: C_15  and  C_17
REMARK    7  A    between atoms: C_20  and  O_25
REMARK    8  A    between atoms: C_21  and  O_23
REMARK    9  A    between atoms: O_23  and  C_24
REMARK   10  A    between atoms: O_25  and  C_26
REMARK   11  A    between atoms: C_26  and  C_27
REMARK   12  A    between atoms: C_29  and  C_30
REMARK                            x       y       z     vdW  Elec       q    Type
REMARK                         _______ _______ _______ _____ _____    ______ ____
ROOT
ATOM      1  C   UNL     1      -0.121  -1.226  -3.550  0.00  0.00    +0.077 C 
ATOM      2  C   UNL     1       0.033  -0.579  -4.728  0.00  0.00    +0.249 C 
ATOM      3  C   UNL     1       0.491  -1.539  -5.753  0.00  0.00    +0.288 C 
ATOM      4  O   UNL     1       0.720  -1.263  -6.914  0.00  0.00    -0.266 OA
ATOM      5  N   UNL     1       0.618  -2.764  -5.212  0.00  0.00    -0.279 N 
ATOM      6  C   UNL     1       0.253  -2.670  -3.793  0.00  0.00    +0.145 C 
ATOM      7  O   UNL     1      -0.197   0.739  -4.935  0.00  0.00    -0.282 OA
ENDROOT
BRANCH   6   8
ATOM      8  C   UNL     1       1.424  -3.055  -2.927  0.00  0.00    -0.019 A 
ATOM      9  C   UNL     1       2.530  -2.228  -2.856  0.00  0.00    +0.009 A 
ATOM     10  C   UNL     1       3.607  -2.577  -2.062  0.00  0.00    +0.050 A 
ATOM     11  C   UNL     1       3.580  -3.757  -1.336  0.00  0.00    +0.162 A 
ATOM     12  C   UNL     1       2.466  -4.589  -1.408  0.00  0.00    +0.162 A 
ATOM     13  C   UNL     1       1.388  -4.231  -2.201  0.00  0.00    +0.055 A 
BRANCH  12  14
ATOM     14  O   UNL     1       2.434  -5.748  -0.697  0.00  0.00    -0.491 OA
ATOM     15  C   UNL     1       1.300  -6.596  -0.890  0.00  0.00    +0.277 C 
ENDBRANCH  12  14
BRANCH  11  16
ATOM     16  O   UNL     1       4.639  -4.102  -0.556  0.00  0.00    -0.484 OA
BRANCH  16  17
ATOM     17  C   UNL     1       5.747  -3.200  -0.531  0.00  0.00    +0.256 C 
BRANCH  17  18
ATOM     18  C   UNL     1       6.817  -3.745   0.380  0.00  0.00    +0.006 C 
ATOM     19  C   UNL     1       8.070  -3.731   0.000  0.00  0.00    +0.007 C 
ENDBRANCH  17  18
ENDBRANCH  16  17
ENDBRANCH  11  16
ENDBRANCH   6   8
BRANCH   1  20
ATOM     20  C   UNL     1      -0.560  -0.637  -2.280  0.00  0.00    +0.203 C 
ATOM     21  O   UNL     1      -0.677   0.571  -2.176  0.00  0.00    -0.286 OA
BRANCH  20  24
ATOM     22  C   UNL     1      -1.217   0.266   0.642  0.00  0.00    +0.067 C 
ATOM     23  C   UNL     1      -1.157  -1.168   0.181  0.00  0.00    +0.057 A 
ATOM     24  C   UNL     1      -0.858  -1.504  -1.135  0.00  0.00    +0.082 A 
ATOM     25  S   UNL     1      -0.940  -3.285  -1.041  0.00  0.00    -0.069 S 
ATOM     26  C   UNL     1      -1.329  -3.415   0.591  0.00  0.00    +0.076 A 
ATOM     27  N   UNL     1      -1.377  -2.167   0.998  0.00  0.00    -0.249 NA
ATOM     28  C   UNL     1      -1.561  -4.667   1.397  0.00  0.00    +0.073 C 
ENDBRANCH  20  24
ENDBRANCH   1  20
BRANCH   5  29
ATOM     29  C   UNL     1       1.049  -3.976  -5.913  0.00  0.00    +0.144 C 
BRANCH  29  30
ATOM     30  C   UNL     1       2.554  -4.057  -5.896  0.00  0.00    -0.030 A 
ATOM     31  C   UNL     1       3.293  -3.385  -6.852  0.00  0.00    +0.005 A 
ATOM     32  C   UNL     1       4.673  -3.460  -6.837  0.00  0.00    +0.000 A 
ATOM     33  C   UNL     1       5.315  -4.206  -5.867  0.00  0.00    +0.000 A 
ATOM     34  C   UNL     1       4.576  -4.877  -4.910  0.00  0.00    +0.000 A 
ATOM     35  C   UNL     1       3.196  -4.799  -4.923  0.00  0.00    +0.005 A 
ENDBRANCH  29  30
ENDBRANCH   5  29
TORSDOF 9
