REMARK  Name = ZINC63137897
REMARK  8 active torsions:
REMARK  status: ('A' for Active; 'I' for Inactive)
REMARK    1  A    between atoms: C_1  and  C_2
REMARK    2  A    between atoms: C_2  and  C_4
REMARK    3  A    between atoms: C_2  and  N_10
REMARK    4  A    between atoms: C_30  and  C_32
REMARK    5  A    between atoms: C_34  and  O_40
REMARK    6  A    between atoms: C_37  and  O_38
REMARK    7  A    between atoms: O_38  and  C_39
REMARK    8  A    between atoms: O_40  and  C_41
REMARK                            x       y       z     vdW  Elec       q    Type
REMARK                         _______ _______ _______ _____ _____    ______ ____
ROOT
ATOM      1  N   UNL     1       0.730  -0.535   1.157  0.00  0.00    -0.284 N 
ATOM      2  C   UNL     1       0.227  -0.367   2.533  0.00  0.00    +0.204 C 
ATOM      3  C   UNL     1       0.340  -1.694   3.252  0.00  0.00    +0.234 C 
ATOM      4  O   UNL     1      -0.558  -2.118   3.947  0.00  0.00    -0.274 OA
ATOM      5  N   UNL     1       1.508  -2.397   3.079  0.00  0.00    -0.279 N 
ATOM      6  C   UNL     1       2.522  -1.732   2.288  0.00  0.00    +0.167 C 
ATOM      7  C   UNL     1       1.906  -1.215   1.013  0.00  0.00    +0.237 C 
ATOM      8  O   UNL     1       2.423  -1.388  -0.070  0.00  0.00    -0.274 OA
ATOM      9  C   UNL     1       3.824  -2.451   2.045  0.00  0.00    +0.065 C 
ATOM     10  C   UNL     1       3.718  -3.876   2.515  0.00  0.00    -0.034 C 
ATOM     11  C   UNL     1       4.151  -5.017   1.998  0.00  0.00    -0.001 A 
ATOM     12  C   UNL     1       4.938  -5.310   0.789  0.00  0.00    +0.010 A 
ATOM     13  C   UNL     1       5.202  -6.622   0.548  0.00  0.00    +0.001 A 
ATOM     14  C   UNL     1       4.767  -7.659   1.379  0.00  0.00    +0.002 A 
ATOM     15  C   UNL     1       4.043  -7.481   2.512  0.00  0.00    +0.026 A 
ATOM     16  C   UNL     1       3.706  -6.144   2.873  0.00  0.00    +0.043 A 
ATOM     17  N   UNL     1       3.041  -5.692   3.893  0.00  0.00    -0.375 N 
ATOM     18  C   UNL     1       2.999  -4.226   3.816  0.00  0.00    +0.131 C 
ATOM     19  C   UNL     1       1.570  -3.730   3.662  0.00  0.00    +0.137 C 
ATOM     20  H   UNL     1       2.639  -6.233   4.591  0.00  0.00    +0.160 HD
ENDROOT
BRANCH  19  21
ATOM     21  C   UNL     1       0.852  -4.695   2.755  0.00  0.00    +0.020 A 
ATOM     22  C   UNL     1       0.733  -4.419   1.407  0.00  0.00    +0.054 A 
ATOM     23  C   UNL     1       0.072  -5.308   0.572  0.00  0.00    +0.121 A 
ATOM     24  C   UNL     1      -0.469  -6.475   1.091  0.00  0.00    +0.049 A 
ATOM     25  C   UNL     1      -0.350  -6.751   2.439  0.00  0.00    +0.049 A 
ATOM     26  C   UNL     1       0.315  -5.865   3.273  0.00  0.00    +0.125 A 
BRANCH  26  27
ATOM     27  O   UNL     1       0.438  -6.140   4.599  0.00  0.00    -0.495 OA
ATOM     28  C   UNL     1      -0.139  -7.362   5.064  0.00  0.00    +0.277 C 
ENDBRANCH  26  27
BRANCH  23  29
ATOM     29  O   UNL     1      -0.046  -5.035  -0.755  0.00  0.00    -0.495 OA
ATOM     30  C   UNL     1      -0.739  -5.995  -1.556  0.00  0.00    +0.277 C 
ENDBRANCH  23  29
ENDBRANCH  19  21
BRANCH   1  32
ATOM     31  C   UNL     1      -0.016   1.524   0.069  0.00  0.00    +0.033 C 
ATOM     32  C   UNL     1       0.002  -0.004   0.002  0.00  0.00    +0.104 C 
BRANCH  32  33
ATOM     33  C   UNL     1      -1.412  -0.524   0.018  0.00  0.00    -0.027 A 
ATOM     34  C   UNL     1      -1.669  -1.818   0.431  0.00  0.00    +0.005 A 
ATOM     35  C   UNL     1      -2.966  -2.295   0.446  0.00  0.00    +0.000 A 
ATOM     36  C   UNL     1      -4.007  -1.478   0.046  0.00  0.00    +0.000 A 
ATOM     37  C   UNL     1      -3.751  -0.184  -0.366  0.00  0.00    +0.000 A 
ATOM     38  C   UNL     1      -2.454   0.295  -0.377  0.00  0.00    +0.005 A 
ENDBRANCH  32  33
ENDBRANCH   1  32
TORSDOF 5
