REMARK  Name = ZINC64002373
REMARK  6 active torsions:
REMARK  status: ('A' for Active; 'I' for Inactive)
REMARK    1  A    between atoms: C_7  and  C_10
REMARK    2  A    between atoms: C_10  and  C_11
REMARK    3  A    between atoms: C_11  and  C_12
REMARK    4  A    between atoms: C_17  and  N_20
REMARK    5  A    between atoms: C_24  and  C_36
REMARK    6  A    between atoms: C_28  and  C_30
REMARK                            x       y       z     vdW  Elec       q    Type
REMARK                         _______ _______ _______ _____ _____    ______ ____
ROOT
ATOM      1  C   UNL     1      -0.484  -4.830  -1.460  0.00  0.00    +0.216 C 
ATOM      2  O   UNL     1      -0.925  -5.254  -0.412  0.00  0.00    -0.276 OA
ATOM      3  N   UNL     1      -0.837  -5.413  -2.623  0.00  0.00    -0.301 N 
ATOM      4  C   UNL     1      -0.307  -4.916  -3.900  0.00  0.00    +0.109 C 
ATOM      5  C   UNL     1      -1.481  -4.624  -4.840  0.00  0.00    +0.041 C 
ATOM      6  C   UNL     1      -2.352  -5.875  -4.966  0.00  0.00    +0.078 C 
ATOM      7  C   UNL     1      -2.915  -6.247  -3.593  0.00  0.00    +0.041 C 
ATOM      8  C   UNL     1      -1.753  -6.561  -2.638  0.00  0.00    +0.109 C 
ENDROOT
BRANCH   6   9
ATOM      9  N   UNL     1      -3.457  -5.610  -5.891  0.00  0.00    -0.305 N 
ATOM     10  C   UNL     1      -4.441  -4.621  -5.748  0.00  0.00    +0.053 A 
ATOM     11  C   UNL     1      -4.629  -3.674  -4.748  0.00  0.00    +0.025 A 
ATOM     12  C   UNL     1      -5.688  -2.789  -4.822  0.00  0.00    +0.014 A 
ATOM     13  C   UNL     1      -6.563  -2.841  -5.891  0.00  0.00    +0.057 A 
ATOM     14  C   UNL     1      -6.383  -3.779  -6.889  0.00  0.00    +0.037 A 
ATOM     15  C   UNL     1      -5.322  -4.673  -6.824  0.00  0.00    +0.050 A 
ATOM     16  N   UNL     1      -4.939  -5.698  -7.701  0.00  0.00    -0.322 N 
ATOM     17  C   UNL     1      -3.736  -6.326  -7.141  0.00  0.00    +0.188 C 
ATOM     18  H   UNL     1      -5.385  -5.944  -8.526  0.00  0.00    +0.148 HD
BRANCH  17  19
ATOM     19  C   UNL     1      -2.560  -6.176  -8.109  0.00  0.00    +0.157 C 
ATOM     20  C   UNL     1      -2.911  -6.828  -9.464  0.00  0.00    +0.037 C 
ATOM     21  C   UNL     1      -1.568  -7.499  -9.864  0.00  0.00    +0.031 C 
ATOM     22  C   UNL     1      -1.021  -7.913  -8.475  0.00  0.00    +0.160 C 
ATOM     23  O   UNL     1      -1.411  -6.852  -7.585  0.00  0.00    -0.373 OA
ENDBRANCH  17  19
BRANCH  13  24
ATOM     24  C   UNL     1      -7.716  -1.873  -5.966  0.00  0.00    +0.417 C 
ATOM     25  F   UNL     1      -7.690  -1.029  -4.852  0.00  0.00    -0.166 F 
ATOM     26  F   UNL     1      -7.607  -1.109  -7.133  0.00  0.00    -0.166 F 
ATOM     27  F   UNL     1      -8.921  -2.584  -5.985  0.00  0.00    -0.166 F 
ENDBRANCH  13  24
ENDBRANCH   6   9
BRANCH   1  28
ATOM     28  C   UNL     1       0.457  -3.653  -1.462  0.00  0.00    +0.100 C 
BRANCH  28  29
ATOM     29  C   UNL     1       0.691  -3.186  -0.024  0.00  0.00    +0.042 C 
BRANCH  29  36
ATOM     30  C   UNL     1      -0.016   1.348   0.009  0.00  0.00    +0.001 A 
ATOM     31  C   UNL     1       1.166   2.101   0.002  0.00  0.00    +0.002 A 
ATOM     32  C   UNL     1       2.391   1.535  -0.013  0.00  0.00    +0.026 A 
ATOM     33  C   UNL     1       2.529   0.120  -0.022  0.00  0.00    +0.043 A 
ATOM     34  N   UNL     1       3.587  -0.654  -0.037  0.00  0.00    -0.380 N 
ATOM     35  C   UNL     1       3.143  -2.053  -0.041  0.00  0.00    +0.144 C 
ATOM     36  C   UNL     1       1.631  -2.008  -0.025  0.00  0.00    -0.041 C 
ATOM     37  C   UNL     1       1.295  -0.698  -0.014  0.00  0.00    -0.001 A 
ATOM     38  C   UNL     1       0.002  -0.004   0.002  0.00  0.00    +0.010 A 
ATOM     39  H   UNL     1       4.509  -0.353  -0.045  0.00  0.00    +0.160 HD
ENDBRANCH  29  36
ENDBRANCH  28  29
ENDBRANCH   1  28
TORSDOF 6
