REMARK  Name = ZINC12428397
REMARK  3 active torsions:
REMARK  status: ('A' for Active; 'I' for Inactive)
REMARK    1  A    between atoms: C_3  and  C_9
REMARK    2  A    between atoms: N_10  and  N_11
REMARK    3  A    between atoms: C_12  and  C_14
REMARK                            x       y       z     vdW  Elec       q    Type
REMARK                         _______ _______ _______ _____ _____    ______ ____
ROOT
ATOM      1  N   UNL     1      -4.420   2.716   4.420  0.00  0.00    -0.202 N 
ATOM      2  C   UNL     1      -3.465   3.107   3.554  0.00  0.00    +0.284 C 
ATOM      3  O   UNL     1      -2.292   3.040   3.870  0.00  0.00    -0.267 OA
ATOM      4  H   UNL     1      -5.349   2.700   4.143  0.00  0.00    +0.178 HD
ENDROOT
BRANCH   2   5
ATOM      5  C   UNL     1      -3.841   3.615   2.220  0.00  0.00    +0.152 A 
ATOM      6  C   UNL     1      -2.976   4.149   1.250  0.00  0.00    +0.005 A 
ATOM      7  C   UNL     1      -3.760   4.484   0.195  0.00  0.00    +0.040 A 
ATOM      8  N   UNL     1      -5.023   4.162   0.520  0.00  0.00    -0.281 N 
ATOM      9  H   UNL     1      -5.818   4.296  -0.070  0.00  0.00    +0.189 HD
ATOM     10  N   UNL     1      -5.059   3.657   1.705  0.00  0.00    -0.169 NA
ATOM     11  C   UNL     1      -3.237   5.100  -1.077  0.00  0.00    +0.055 C 
ATOM     12  C   UNL     1      -1.830   5.646  -0.807  0.00  0.00    +0.006 C 
ATOM     13  C   UNL     1      -0.980   4.566  -0.131  0.00  0.00    +0.005 C 
ATOM     14  C   UNL     1      -1.485   4.338   1.300  0.00  0.00    +0.039 C 
ENDBRANCH   2   5
BRANCH   1  16
ATOM     15  C   UNL     1      -4.972   1.847   6.519  0.00  0.00    +0.139 C 
ATOM     16  N   UNL     1      -4.071   2.332   5.722  0.00  0.00    -0.187 NA
BRANCH  15  19
ATOM     17  C   UNL     1      -7.710   0.797   4.176  0.00  0.00    +0.002 A 
ATOM     18  C   UNL     1      -6.460   1.127   4.659  0.00  0.00    +0.011 A 
ATOM     19  C   UNL     1      -6.305   1.494   5.997  0.00  0.00    +0.014 A 
ATOM     20  C   UNL     1      -7.419   1.519   6.841  0.00  0.00    +0.068 A 
ATOM     21  C   UNL     1      -8.666   1.193   6.343  0.00  0.00    +0.060 A 
ATOM     22  C   UNL     1      -8.810   0.830   5.014  0.00  0.00    +0.021 A 
ATOM     23 CL   UNL     1     -10.053   1.231   7.386  0.00  0.00    -0.082 Cl
ATOM     24 CL   UNL     1      -7.238   1.966   8.509  0.00  0.00    -0.081 Cl
ENDBRANCH  15  19
ENDBRANCH   1  16
TORSDOF 3
