REMARK  Name = ZINC12162020
REMARK  8 active torsions:
REMARK  status: ('A' for Active; 'I' for Inactive)
REMARK    1  A    between atoms: C_1  and  C_2
REMARK    2  A    between atoms: C_2  and  C_3
REMARK    3  A    between atoms: C_2  and  C_4
REMARK    4  A    between atoms: C_4  and  C_6
REMARK    5  A    between atoms: C_4  and  N_22
REMARK    6  A    between atoms: C_15  and  C_16
REMARK    7  A    between atoms: C_15  and  N_66
REMARK    8  A    between atoms: C_23  and  C_25
REMARK                            x       y       z     vdW  Elec       q    Type
REMARK                         _______ _______ _______ _____ _____    ______ ____
ROOT
ATOM      1  C   UNL     1      -4.271  -0.044  -0.916  0.00  0.00    +0.154 A 
ATOM      2  N   UNL     1      -4.059   0.001  -2.205  0.00  0.00    -0.132 NA
ATOM      3  N   UNL     1      -2.953   0.617  -2.443  0.00  0.00    -0.134 NA
ATOM      4  C   UNL     1      -2.417   0.997  -1.321  0.00  0.00    +0.132 A 
ATOM      5  N   UNL     1      -3.228   0.573  -0.320  0.00  0.00    -0.315 N 
ATOM      6  C   UNL     1      -2.988   0.743   1.113  0.00  0.00    +0.106 C 
ATOM      7  C   UNL     1      -2.134   1.995   1.335  0.00  0.00    -0.057 C 
ATOM      8  C   UNL     1      -0.320   1.096  -0.016  0.00  0.00    -0.071 C 
ATOM      9  C   UNL     1      -1.138   1.768  -1.123  0.00  0.00    +0.058 C 
ATOM     10  N   UNL     1      -0.690   1.670   1.296  0.00  0.00    +0.381 N 
ATOM     11  H   UNL     1      -0.153   2.533   1.443  0.00  0.00    -0.082 HD
ENDROOT
BRANCH   1  12
ATOM     12  C   UNL     1      -5.456  -0.666  -0.225  0.00  0.00    +0.144 C 
BRANCH  12  13
ATOM     13  N   UNL     1      -5.735  -1.976  -0.818  0.00  0.00    -0.305 N 
ATOM     14  C   UNL     1      -6.373  -2.920  -0.098  0.00  0.00    +0.219 C 
ATOM     15  O   UNL     1      -6.716  -2.685   1.041  0.00  0.00    -0.275 OA
ATOM     16  H   UNL     1      -5.461  -2.164  -1.729  0.00  0.00    +0.149 HD
BRANCH  14  17
ATOM     17  C   UNL     1      -6.660  -4.268  -0.708  0.00  0.00    +0.103 C 
ATOM     18  C   UNL     1      -7.394  -5.176   0.304  0.00  0.00    +0.043 C 
ATOM     19  C   UNL     1      -6.434  -6.369   0.503  0.00  0.00    +0.160 C 
ATOM     20  O   UNL     1      -5.129  -5.855   0.158  0.00  0.00    -0.379 OA
ATOM     21  C   UNL     1      -5.343  -5.021  -1.001  0.00  0.00    +0.172 C 
ENDBRANCH  14  17
ENDBRANCH  12  13
BRANCH  12  23
ATOM     22  C   UNL     1      -7.881  -0.392   0.310  0.00  0.00    +0.009 C 
ATOM     23  C   UNL     1      -6.678   0.240  -0.392  0.00  0.00    +0.011 C 
ATOM     24  C   UNL     1      -6.386   1.608   0.228  0.00  0.00    +0.009 C 
ENDBRANCH  12  23
ENDBRANCH   1  12
BRANCH  10  25
ATOM     25  C   UNL     1      -0.363   0.716   2.371  0.00  0.00    -0.075 C 
BRANCH  25  26
ATOM     26  C   UNL     1       1.144   0.780   2.631  0.00  0.00    -0.028 C 
ATOM     27  C   UNL     1       1.528  -0.279   3.666  0.00  0.00    +0.002 C 
ATOM     28  C   UNL     1       3.035  -0.215   3.926  0.00  0.00    +0.000 C 
ATOM     29  C   UNL     1       3.403   1.173   4.454  0.00  0.00    +0.000 C 
ATOM     30  C   UNL     1       3.019   2.231   3.418  0.00  0.00    +0.000 C 
ATOM     31  C   UNL     1       1.512   2.168   3.159  0.00  0.00    +0.002 C 
ENDBRANCH  25  26
ENDBRANCH  10  25
TORSDOF 6
