REMARK  Name = ZINC01916175
REMARK  9 active torsions:
REMARK  status: ('A' for Active; 'I' for Inactive)
REMARK    1  A    between atoms: C_1  and  C_2
REMARK    2  A    between atoms: C_4  and  O_10
REMARK    3  A    between atoms: C_6  and  C_9
REMARK    4  A    between atoms: O_10  and  C_11
REMARK    5  A    between atoms: C_17  and  O_34
REMARK    6  A    between atoms: C_18  and  C_26
REMARK    7  A    between atoms: C_21  and  C_22
REMARK    8  A    between atoms: C_26  and  N_59
REMARK    9  A    between atoms: C_30  and  C_33
REMARK                            x       y       z     vdW  Elec       q    Type
REMARK                         _______ _______ _______ _____ _____    ______ ____
ROOT
ATOM      1  C   UNL     1      -2.403   5.308   0.054  0.00  0.00    +0.222 A 
ATOM      2  C   UNL     1      -2.490   3.886   0.047  0.00  0.00    +0.235 A 
ATOM      3  O   UNL     1      -3.567   3.315   0.054  0.00  0.00    -0.283 OA
ATOM      4  C   UNL     1      -1.223   3.134   0.031  0.00  0.00    +0.068 A 
ATOM      5  C   UNL     1      -1.206   1.738   0.017  0.00  0.00    +0.019 A 
ATOM      6  C   UNL     1      -0.013   1.076   0.008  0.00  0.00    +0.046 A 
ATOM      7  C   UNL     1       1.187   1.785   0.000  0.00  0.00    +0.122 A 
ATOM      8  C   UNL     1       1.187   3.170   0.007  0.00  0.00    +0.020 A 
ATOM      9  C   UNL     1      -0.018   3.858   0.022  0.00  0.00    +0.144 A 
ATOM     10  O   UNL     1      -0.047   5.206   0.030  0.00  0.00    -0.447 OA
ATOM     11  C   UNL     1      -1.192   5.900   0.045  0.00  0.00    +0.254 A 
ENDROOT
BRANCH  11  12
ATOM     12  C   UNL     1      -1.125   7.405   0.052  0.00  0.00    +0.454 C 
ATOM     13  F   UNL     1      -1.091   7.864   1.373  0.00  0.00    -0.163 F 
ATOM     14  F   UNL     1       0.030   7.823  -0.617  0.00  0.00    -0.163 F 
ATOM     15  F   UNL     1      -2.252   7.925  -0.594  0.00  0.00    -0.163 F 
ENDBRANCH  11  12
BRANCH   7  16
ATOM     16  O   UNL     1       2.366   1.112  -0.015  0.00  0.00    -0.506 OA
ATOM     17  H   UNL     1       2.699   0.922  -0.902  0.00  0.00    +0.292 HD
ENDBRANCH   7  16
BRANCH   1  18
ATOM     18  O   UNL     1      -3.535   6.063   0.069  0.00  0.00    -0.448 OA
BRANCH  18  22
ATOM     19  C   UNL     1      -7.034   8.394  -2.410  0.00  0.00    +0.045 C 
ATOM     20  C   UNL     1      -5.781   7.558  -2.372  0.00  0.00    -0.028 A 
ATOM     21  C   UNL     1      -5.232   7.193  -1.158  0.00  0.00    +0.051 A 
ATOM     22  C   UNL     1      -4.078   6.423  -1.124  0.00  0.00    +0.129 A 
ATOM     23  C   UNL     1      -3.475   6.026  -2.309  0.00  0.00    +0.051 A 
ATOM     24  C   UNL     1      -4.031   6.388  -3.521  0.00  0.00    -0.028 A 
ATOM     25  C   UNL     1      -5.182   7.156  -3.553  0.00  0.00    +0.047 A 
ATOM     26 CL   UNL     1      -5.875   7.616  -5.077  0.00  0.00    -0.083 Cl
ATOM     27  C   UNL     1      -3.381   5.952  -4.808  0.00  0.00    +0.045 C 
ENDBRANCH  18  22
ENDBRANCH   1  18
BRANCH   8  28
ATOM     28  C   UNL     1       2.491   3.926  -0.001  0.00  0.00    -0.036 C 
BRANCH  28  35
ATOM     29  C   UNL     1       1.772   4.668  -2.191  0.00  0.00    -0.078 C 
ATOM     30  C   UNL     1       2.198   4.782  -3.656  0.00  0.00    -0.018 C 
ATOM     31  C   UNL     1       3.382   5.745  -3.766  0.00  0.00    -0.001 C 
ATOM     32  C   UNL     1       4.526   5.238  -2.884  0.00  0.00    -0.031 C 
ATOM     33  C   UNL     1       4.034   5.112  -1.441  0.00  0.00    -0.075 C 
ATOM     34  C   UNL     1       5.692   6.227  -2.941  0.00  0.00    +0.005 C 
ATOM     35  N   UNL     1       2.910   4.152  -1.400  0.00  0.00    +0.383 N 
ATOM     36  H   UNL     1       3.219   3.260  -1.804  0.00  0.00    -0.081 HD
ENDBRANCH  28  35
ENDBRANCH   8  28
TORSDOF 6
