REMARK  Name = ZINC66122122
REMARK  9 active torsions:
REMARK  status: ('A' for Active; 'I' for Inactive)
REMARK    1  A    between atoms: C_1  and  C_2
REMARK    2  A    between atoms: C_5  and  O_26
REMARK    3  A    between atoms: C_6  and  C_8
REMARK    4  A    between atoms: N_10  and  N_11
REMARK    5  A    between atoms: N_11  and  C_12
REMARK    6  A    between atoms: C_12  and  N_14
REMARK    7  A    between atoms: N_14  and  C_15
REMARK    8  A    between atoms: C_15  and  C_17
REMARK    9  A    between atoms: C_15  and  C_18
REMARK                            x       y       z     vdW  Elec       q    Type
REMARK                         _______ _______ _______ _____ _____    ______ ____
ROOT
ATOM      1  N   UNL     1      -0.628  -3.033   5.113  0.00  0.00    -0.246 N 
ATOM      2  H   UNL     1      -0.743  -3.993   5.192  0.00  0.00    +0.172 HD
ENDROOT
BRANCH   1   5
ATOM      3  C   UNL     1      -0.958  -3.160   2.759  0.00  0.00    +0.264 C 
ATOM      4  O   UNL     1      -1.102  -4.364   2.858  0.00  0.00    -0.269 OA
ATOM      5  N   UNL     1      -0.715  -2.418   3.857  0.00  0.00    -0.231 N 
ATOM      6  H   UNL     1      -0.601  -1.458   3.779  0.00  0.00    +0.173 HD
BRANCH   3  12
ATOM      7  C   UNL     1      -0.796   0.960  -0.045  0.00  0.00    +0.044 C 
ATOM      8  C   UNL     1      -0.973  -0.531   0.081  0.00  0.00    -0.050 A 
ATOM      9  C   UNL     1      -1.223  -1.293  -1.049  0.00  0.00    +0.007 A 
ATOM     10  C   UNL     1      -1.387  -2.660  -0.946  0.00  0.00    +0.046 A 
ATOM     11  C   UNL     1      -1.302  -3.280   0.292  0.00  0.00    +0.129 A 
ATOM     12  C   UNL     1      -1.050  -2.512   1.437  0.00  0.00    +0.080 A 
ATOM     13  C   UNL     1      -0.881  -1.131   1.318  0.00  0.00    +0.020 A 
BRANCH  11  14
ATOM     14  O   UNL     1      -1.464  -4.623   0.394  0.00  0.00    -0.506 OA
ATOM     15  H   UNL     1      -0.642  -5.126   0.307  0.00  0.00    +0.292 HD
ENDBRANCH  11  14
ENDBRANCH   3  12
ENDBRANCH   1   5
BRANCH   1  16
ATOM     16  C   UNL     1      -0.385  -2.291   6.212  0.00  0.00    +0.147 C 
ATOM     17  S   UNL     1      -0.279  -3.043   7.746  0.00  0.00    -0.017 S 
BRANCH  16  18
ATOM     18  N   UNL     1      -0.226  -0.958   6.102  0.00  0.00    -0.319 N 
ATOM     19  H   UNL     1      -0.286  -0.532   5.233  0.00  0.00    +0.148 HD
BRANCH  18  20
ATOM     20  C   UNL     1       0.038  -0.151   7.296  0.00  0.00    +0.101 C 
ATOM     21  C   UNL     1       1.544  -0.114   7.564  0.00  0.00    +0.033 C 
BRANCH  20  22
ATOM     22  C   UNL     1      -0.468   1.252   7.077  0.00  0.00    -0.009 A 
ATOM     23  C   UNL     1      -0.544   1.766   5.796  0.00  0.00    +0.008 A 
ATOM     24  C   UNL     1      -1.007   3.053   5.595  0.00  0.00    +0.020 A 
ATOM     25  C   UNL     1      -1.396   3.826   6.674  0.00  0.00    +0.042 A 
ATOM     26  C   UNL     1      -1.320   3.311   7.956  0.00  0.00    +0.040 A 
ATOM     27  C   UNL     1      -0.861   2.022   8.157  0.00  0.00    +0.047 A 
ATOM     28 CL   UNL     1      -0.771   1.373   9.765  0.00  0.00    -0.083 Cl
ATOM     29 CL   UNL     1      -1.978   5.442   6.421  0.00  0.00    -0.083 Cl
ENDBRANCH  20  22
ENDBRANCH  18  20
ENDBRANCH  16  18
ENDBRANCH   1  16
TORSDOF 7
