REMARK  Name = ZINC00635616
REMARK  13 active torsions:
REMARK  status: ('A' for Active; 'I' for Inactive)
REMARK    1  A    between atoms: C_1  and  C_2
REMARK    2  A    between atoms: C_2  and  N_3
REMARK    3  A    between atoms: C_17  and  C_38
REMARK    4  A    between atoms: C_18  and  C_33
REMARK    5  A    between atoms: C_19  and  C_21
REMARK    6  A    between atoms: C_24  and  O_29
REMARK    7  A    between atoms: C_25  and  O_27
REMARK    8  A    between atoms: O_27  and  C_28
REMARK    9  A    between atoms: O_29  and  C_30
REMARK   10  A    between atoms: C_30  and  C_32
REMARK   11  A    between atoms: C_33  and  O_35
REMARK   12  A    between atoms: O_35  and  C_36
REMARK   13  A    between atoms: C_36  and  C_37
REMARK                            x       y       z     vdW  Elec       q    Type
REMARK                         _______ _______ _______ _____ _____    ______ ____
ROOT
ATOM      1  N   UNL     1       0.980  -0.656   1.244  0.00  0.00    -0.267 N 
ATOM      2  C   UNL     1       2.347  -0.862   1.395  0.00  0.00    +0.044 A 
ATOM      3  C   UNL     1       3.406  -0.730   0.504  0.00  0.00    +0.024 A 
ATOM      4  C   UNL     1       4.696  -1.001   0.914  0.00  0.00    +0.002 A 
ATOM      5  C   UNL     1       4.953  -1.407   2.213  0.00  0.00    +0.001 A 
ATOM      6  C   UNL     1       3.916  -1.544   3.114  0.00  0.00    +0.010 A 
ATOM      7  C   UNL     1       2.611  -1.273   2.710  0.00  0.00    +0.010 A 
ATOM      8  C   UNL     1       1.307  -1.319   3.403  0.00  0.00    +0.065 C 
ATOM      9  C   UNL     1       1.065  -1.670   4.717  0.00  0.00    +0.093 A 
ATOM     10  C   UNL     1      -0.218  -1.737   5.453  0.00  0.00    +0.269 A 
ATOM     11  O   UNL     1      -1.270  -1.462   4.909  0.00  0.00    -0.266 OA
ATOM     12  N   UNL     1      -0.180  -2.111   6.739  0.00  0.00    -0.275 N 
ATOM     13  C   UNL     1       1.038  -2.411   7.305  0.00  0.00    +0.178 A 
ATOM     14  N   UNL     1       1.194  -2.786   8.547  0.00  0.00    -0.228 NA
ATOM     15  C   UNL     1       0.208  -2.927   9.427  0.00  0.00    +0.053 C 
ATOM     16  C   UNL     1      -1.085  -2.677   9.067  0.00  0.00    +0.085 C 
ATOM     17  C   UNL     1      -1.355  -2.239   7.646  0.00  0.00    +0.162 C 
ATOM     18  C   UNL     1       0.521  -3.367  10.834  0.00  0.00    +0.066 C 
ATOM     19  S   UNL     1       2.215  -2.173   5.988  0.00  0.00    -0.045 S 
ATOM     20  C   UNL     1       0.318  -0.902   2.387  0.00  0.00    +0.253 C 
ATOM     21  O   UNL     1      -0.882  -0.802   2.555  0.00  0.00    -0.270 OA
ENDROOT
BRANCH  17  22
ATOM     22  C   UNL     1      -2.311  -3.228   7.030  0.00  0.00    -0.016 A 
ATOM     23  C   UNL     1      -3.656  -2.921   6.938  0.00  0.00    +0.010 A 
ATOM     24  C   UNL     1      -4.537  -3.824   6.373  0.00  0.00    +0.050 A 
ATOM     25  C   UNL     1      -4.073  -5.040   5.897  0.00  0.00    +0.173 A 
ATOM     26  C   UNL     1      -2.719  -5.349   5.990  0.00  0.00    +0.163 A 
ATOM     27  C   UNL     1      -1.840  -4.437   6.552  0.00  0.00    +0.055 A 
BRANCH  26  28
ATOM     28  O   UNL     1      -2.258  -6.541   5.524  0.00  0.00    -0.491 OA
ATOM     29  C   UNL     1      -0.844  -6.742   5.544  0.00  0.00    +0.277 C 
ENDBRANCH  26  28
BRANCH  25  30
ATOM     30  O   UNL     1      -4.938  -5.930   5.341  0.00  0.00    -0.422 OA
BRANCH  30  31
ATOM     31  C   UNL     1      -5.453  -6.886   6.131  0.00  0.00    +0.309 C 
ATOM     32  O   UNL     1      -5.218  -6.882   7.316  0.00  0.00    -0.251 OA
ATOM     33  C   UNL     1      -6.325  -7.963   5.540  0.00  0.00    +0.136 C 
ENDBRANCH  30  31
ENDBRANCH  25  30
ENDBRANCH  17  22
BRANCH   1  35
ATOM     34  C   UNL     1       0.291   1.307  -0.041  0.00  0.00    +0.025 C 
ATOM     35  C   UNL     1       0.344  -0.222  -0.002  0.00  0.00    +0.110 C 
ENDBRANCH   1  35
BRANCH  16  36
ATOM     36  C   UNL     1      -2.135  -2.824   9.992  0.00  0.00    +0.339 C 
ATOM     37  O   UNL     1      -1.911  -3.277  11.100  0.00  0.00    -0.245 OA
BRANCH  36  38
ATOM     38  O   UNL     1      -3.390  -2.463   9.651  0.00  0.00    -0.462 OA
BRANCH  38  39
ATOM     39  C   UNL     1      -4.386  -2.533  10.673  0.00  0.00    +0.229 C 
ATOM     40  C   UNL     1      -5.756  -2.207  10.075  0.00  0.00    +0.048 C 
ENDBRANCH  38  39
ENDBRANCH  36  38
ENDBRANCH  16  36
TORSDOF 8
