REMARK  Name = ZINC06300906
REMARK  13 active torsions:
REMARK  status: ('A' for Active; 'I' for Inactive)
REMARK    1  A    between atoms: C_1  and  C_2
REMARK    2  A    between atoms: C_4  and  C_38
REMARK    3  A    between atoms: C_9  and  C_14
REMARK    4  A    between atoms: C_14  and  C_16
REMARK    5  A    between atoms: C_14  and  N_69
REMARK    6  A    between atoms: N_20  and  C_21
REMARK    7  A    between atoms: C_21  and  C_22
REMARK    8  A    between atoms: C_21  and  C_23
REMARK    9  A    between atoms: C_21  and  C_24
REMARK   10  A    between atoms: C_25  and  C_26
REMARK   11  A    between atoms: C_25  and  N_69
REMARK   12  A    between atoms: C_32  and  C_33
REMARK   13  A    between atoms: C_32  and  N_69
REMARK                            x       y       z     vdW  Elec       q    Type
REMARK                         _______ _______ _______ _____ _____    ______ ____
ROOT
ATOM      1  C   UNL     1       5.407  -0.771  -1.636  0.00  0.00    +0.040 C 
ENDROOT
BRANCH   1  10
ATOM      2  C   UNL     1       9.337   1.899  -7.384  0.00  0.00    +0.044 C 
ATOM      3  C   UNL     1       8.310   0.951  -6.822  0.00  0.00    -0.050 A 
ATOM      4  C   UNL     1       7.674   0.048  -7.663  0.00  0.00    +0.008 A 
ATOM      5  C   UNL     1       6.732  -0.829  -7.171  0.00  0.00    -0.026 A 
ATOM      6  C   UNL     1       6.413  -0.811  -5.817  0.00  0.00    +0.052 A 
ATOM      7  C   UNL     1       7.060   0.106  -4.967  0.00  0.00    -0.001 A 
ATOM      8  C   UNL     1       8.013   0.987  -5.489  0.00  0.00    +0.013 A 
ATOM      9  C   UNL     1       6.713   0.122  -3.545  0.00  0.00    +0.017 A 
ATOM     10  C   UNL     1       5.784  -0.758  -3.095  0.00  0.00    +0.011 A 
ATOM     11  C   UNL     1       5.165  -1.657  -3.989  0.00  0.00    +0.251 A 
ATOM     12  O   UNL     1       4.330  -2.437  -3.565  0.00  0.00    -0.268 OA
ATOM     13  N   UNL     1       5.474  -1.676  -5.298  0.00  0.00    -0.322 N 
ATOM     14  H   UNL     1       5.029  -2.307  -5.885  0.00  0.00    +0.169 HD
ATOM     15  C   UNL     1       6.050  -1.805  -8.095  0.00  0.00    +0.046 C 
ENDBRANCH   1  10
BRANCH   1  16
ATOM     16  C   UNL     1       5.744  -2.115  -1.042  0.00  0.00    +0.143 A 
ATOM     17  N   UNL     1       5.051  -3.221  -1.165  0.00  0.00    -0.115 NA
ATOM     18  N   UNL     1       5.664  -4.149  -0.516  0.00  0.00    -0.023 NA
ATOM     19  N   UNL     1       6.731  -3.665   0.018  0.00  0.00    -0.043 NA
ATOM     20  N   UNL     1       6.818  -2.414  -0.288  0.00  0.00    -0.225 N 
BRANCH  20  21
ATOM     21  C   UNL     1       7.884  -1.493   0.113  0.00  0.00    +0.059 C 
ATOM     22  C   UNL     1       7.302  -0.400   1.012  0.00  0.00    +0.036 C 
ATOM     23  C   UNL     1       8.963  -2.262   0.877  0.00  0.00    +0.036 C 
ATOM     24  C   UNL     1       8.500  -0.853  -1.133  0.00  0.00    +0.036 C 
ENDBRANCH  20  21
ENDBRANCH   1  16
BRANCH   1  25
ATOM     25  N   UNL     1       3.952  -0.545  -1.513  0.00  0.00    +0.397 N 
ATOM     26  H   UNL     1       3.454  -1.320  -1.967  0.00  0.00    -0.079 HD
BRANCH  25  27
ATOM     27  C   UNL     1       3.580   0.721  -2.179  0.00  0.00    -0.041 C 
BRANCH  27  28
ATOM     28  C   UNL     1       2.077   0.818  -2.232  0.00  0.00    -0.064 A 
ATOM     29  C   UNL     1       1.387   1.436  -1.205  0.00  0.00    +0.002 A 
ATOM     30  C   UNL     1       0.009   1.525  -1.254  0.00  0.00    +0.000 A 
ATOM     31  C   UNL     1      -0.680   0.996  -2.329  0.00  0.00    +0.000 A 
ATOM     32  C   UNL     1       0.009   0.379  -3.356  0.00  0.00    +0.000 A 
ATOM     33  C   UNL     1       1.387   0.289  -3.307  0.00  0.00    +0.002 A 
ENDBRANCH  27  28
ENDBRANCH  25  27
BRANCH  25  34
ATOM     34  C   UNL     1       3.567  -0.498  -0.086  0.00  0.00    -0.001 C 
BRANCH  34  35
ATOM     35  C   UNL     1       3.453  -1.909   0.429  0.00  0.00    +0.089 A 
ATOM     36  C   UNL     1       4.396  -2.572   1.123  0.00  0.00    +0.042 A 
ATOM     37  C   UNL     1       3.874  -3.856   1.402  0.00  0.00    +0.041 A 
ATOM     38  C   UNL     1       2.643  -3.901   0.862  0.00  0.00    +0.195 A 
ATOM     39  O   UNL     1       2.391  -2.717   0.279  0.00  0.00    -0.470 OA
ENDBRANCH  34  35
ENDBRANCH  25  34
ENDBRANCH   1  25
TORSDOF 8
