REMARK  Name = ZINC12034450
REMARK  11 active torsions:
REMARK  status: ('A' for Active; 'I' for Inactive)
REMARK    1  A    between atoms: C_1  and  C_2
REMARK    2  A    between atoms: C_2  and  C_3
REMARK    3  A    between atoms: C_2  and  C_4
REMARK    4  A    between atoms: C_4  and  C_6
REMARK    5  A    between atoms: C_4  and  N_29
REMARK    6  A    between atoms: C_15  and  C_16
REMARK    7  A    between atoms: C_15  and  N_66
REMARK    8  A    between atoms: C_16  and  C_17
REMARK    9  A    between atoms: C_16  and  C_23
REMARK   10  A    between atoms: N_29  and  S_30
REMARK   11  A    between atoms: S_30  and  C_33
REMARK                            x       y       z     vdW  Elec       q    Type
REMARK                         _______ _______ _______ _____ _____    ______ ____
ROOT
ATOM      1  C   UNL     1       2.631   2.037   1.551  0.00  0.00    +0.152 A 
ATOM      2  N   UNL     1       2.192   0.806   1.518  0.00  0.00    -0.133 NA
ATOM      3  N   UNL     1       0.966   0.791   1.126  0.00  0.00    -0.134 NA
ATOM      4  C   UNL     1       0.568   2.009   0.898  0.00  0.00    +0.132 A 
ATOM      5  N   UNL     1       1.617   2.831   1.147  0.00  0.00    -0.315 N 
ATOM      6  C   UNL     1       1.628   4.285   0.986  0.00  0.00    +0.106 C 
ATOM      7  C   UNL     1       0.206   4.823   1.176  0.00  0.00    -0.057 C 
ATOM      8  C   UNL     1      -0.636   3.486  -0.675  0.00  0.00    -0.071 C 
ATOM      9  C   UNL     1      -0.798   2.465   0.455  0.00  0.00    +0.058 C 
ATOM     10  N   UNL     1      -0.532   4.849  -0.108  0.00  0.00    +0.382 N 
ATOM     11  H   UNL     1      -1.479   5.208   0.063  0.00  0.00    -0.082 HD
ENDROOT
BRANCH   1  12
ATOM     12  C   UNL     1       4.009   2.485   1.963  0.00  0.00    +0.146 C 
BRANCH  12  14
ATOM     13  C   UNL     1       4.925   0.675   0.505  0.00  0.00    +0.009 C 
ATOM     14  C   UNL     1       5.005   2.164   0.847  0.00  0.00    +0.009 C 
ATOM     15  C   UNL     1       4.664   2.991  -0.394  0.00  0.00    +0.009 C 
ENDBRANCH  12  14
BRANCH  12  16
ATOM     16  N   UNL     1       4.405   1.784   3.187  0.00  0.00    -0.184 NA
ATOM     17  H   UNL     1       4.128   0.866   3.332  0.00  0.00    +0.148 HD
BRANCH  16  18
ATOM     18  S   UNL     1       5.326   2.560   4.325  0.00  0.00    +0.027 S 
ATOM     19  O   UNL     1       5.536   1.592   5.343  0.00  0.00    -0.158 OA
ATOM     20  O   UNL     1       6.423   3.097   3.598  0.00  0.00    -0.158 OA
ATOM     21  C   UNL     1       4.270   3.900   4.944  0.00  0.00    +0.214 C 
ENDBRANCH  16  18
ENDBRANCH  12  16
ENDBRANCH   1  12
BRANCH  10  22
ATOM     22  C   UNL     1       0.152   5.739  -1.063  0.00  0.00    -0.066 C 
BRANCH  22  23
ATOM     23  C   UNL     1      -0.741   5.912  -2.293  0.00  0.00    +0.032 C 
BRANCH  23  24
ATOM     24  C   UNL     1      -0.132   6.938  -3.215  0.00  0.00    -0.042 A 
ATOM     25  C   UNL     1      -0.895   7.996  -3.672  0.00  0.00    +0.004 A 
ATOM     26  C   UNL     1      -0.335   8.939  -4.514  0.00  0.00    +0.000 A 
ATOM     27  C   UNL     1       0.985   8.818  -4.906  0.00  0.00    +0.000 A 
ATOM     28  C   UNL     1       1.746   7.756  -4.454  0.00  0.00    +0.000 A 
ATOM     29  C   UNL     1       1.188   6.816  -3.608  0.00  0.00    +0.004 A 
ENDBRANCH  23  24
BRANCH  23  30
ATOM     30  C   UNL     1      -0.862   4.596  -3.016  0.00  0.00    -0.042 A 
ATOM     31  C   UNL     1       0.276   3.901  -3.382  0.00  0.00    +0.004 A 
ATOM     32  C   UNL     1       0.165   2.691  -4.041  0.00  0.00    +0.000 A 
ATOM     33  C   UNL     1      -1.083   2.180  -4.343  0.00  0.00    +0.000 A 
ATOM     34  C   UNL     1      -2.221   2.877  -3.982  0.00  0.00    +0.000 A 
ATOM     35  C   UNL     1      -2.110   4.085  -3.318  0.00  0.00    +0.004 A 
ENDBRANCH  23  30
ENDBRANCH  22  23
ENDBRANCH  10  22
TORSDOF 8
