REMARK  Name = ZINC22137872
REMARK  15 active torsions:
REMARK  status: ('A' for Active; 'I' for Inactive)
REMARK    1  A    between atoms: C_1  and  C_2
REMARK    2  A    between atoms: C_2  and  C_4
REMARK    3  A    between atoms: C_2  and  S_15
REMARK    4  A    between atoms: N_6  and  C_7
REMARK    5  A    between atoms: C_7  and  C_13
REMARK    6  A    between atoms: S_15  and  C_16
REMARK    7  A    between atoms: N_26  and  C_27
REMARK    8  A    between atoms: C_27  and  C_28
REMARK    9  A    between atoms: C_28  and  N_29
REMARK   10  A    between atoms: N_29  and  C_30
REMARK   11  A    between atoms: N_29  and  C_33
REMARK   12  A    between atoms: C_30  and  C_31
REMARK   13  A    between atoms: C_30  and  C_32
REMARK   14  A    between atoms: C_33  and  C_34
REMARK   15  A    between atoms: C_33  and  C_35
REMARK                            x       y       z     vdW  Elec       q    Type
REMARK                         _______ _______ _______ _____ _____    ______ ____
ROOT
ATOM      1  C   UNL     1       0.931  -3.969   1.151  0.00  0.00    +0.173 A 
ATOM      2  N   UNL     1       0.934  -4.272  -0.124  0.00  0.00    -0.223 NA
ATOM      3  C   UNL     1       1.854  -3.766  -0.969  0.00  0.00    +0.079 A 
ATOM      4  C   UNL     1       1.857  -4.089  -2.329  0.00  0.00    +0.028 A 
ATOM      5  C   UNL     1       2.808  -3.552  -3.150  0.00  0.00    +0.002 A 
ATOM      6  C   UNL     1       3.776  -2.688  -2.653  0.00  0.00    +0.001 A 
ATOM      7  C   UNL     1       3.799  -2.353  -1.327  0.00  0.00    +0.015 A 
ATOM      8  C   UNL     1       2.840  -2.886  -0.467  0.00  0.00    +0.065 A 
ATOM      9  C   UNL     1       2.816  -2.561   0.965  0.00  0.00    +0.262 A 
ATOM     10  O   UNL     1       3.638  -1.809   1.456  0.00  0.00    -0.267 OA
ATOM     11  N   UNL     1       1.842  -3.124   1.717  0.00  0.00    -0.289 N 
ENDROOT
BRANCH   1  12
ATOM     12  S   UNL     1      -0.310  -4.679   2.180  0.00  0.00    -0.075 S 
BRANCH  12  14
ATOM     13  C   UNL     1      -1.981  -4.819   0.019  0.00  0.00    +0.029 C 
ATOM     14  C   UNL     1      -1.282  -5.710   1.048  0.00  0.00    +0.137 C 
BRANCH  14  15
ATOM     15  C   UNL     1      -2.316  -6.479   1.830  0.00  0.00    +0.227 C 
ATOM     16  O   UNL     1      -2.710  -6.053   2.895  0.00  0.00    -0.275 OA
ATOM     17  N   UNL     1      -2.802  -7.639   1.347  0.00  0.00    -0.296 N 
ATOM     18  H   UNL     1      -2.486  -7.979   0.495  0.00  0.00    +0.150 HD
BRANCH  17  19
ATOM     19  C   UNL     1      -3.806  -8.386   2.107  0.00  0.00    +0.121 C 
ATOM     20  C   UNL     1      -3.232  -8.767   3.474  0.00  0.00    +0.041 C 
ATOM     21  C   UNL     1      -4.281  -9.547   4.268  0.00  0.00    +0.003 C 
ATOM     22  C   UNL     1      -4.660 -10.817   3.503  0.00  0.00    +0.000 C 
ATOM     23  C   UNL     1      -5.234 -10.436   2.136  0.00  0.00    +0.003 C 
ATOM     24  C   UNL     1      -4.185  -9.655   1.342  0.00  0.00    +0.041 C 
BRANCH  19  25
ATOM     25  C   UNL     1      -5.003  -7.550   2.294  0.00  0.00    +0.088 C 
ATOM     26  N   UNL     1      -5.927  -6.904   2.438  0.00  0.00    -0.194 NA
ENDBRANCH  19  25
ENDBRANCH  17  19
ENDBRANCH  14  15
ENDBRANCH  12  14
ENDBRANCH   1  12
BRANCH  11  27
ATOM     27  C   UNL     1       1.768  -2.829   3.151  0.00  0.00    +0.109 C 
BRANCH  27  28
ATOM     28  C   UNL     1       2.609  -3.846   3.924  0.00  0.00    -0.056 C 
BRANCH  28  29
ATOM     29  N   UNL     1       2.453  -3.615   5.367  0.00  0.00    +0.384 N 
ATOM     30  H   UNL     1       1.482  -3.436   5.575  0.00  0.00    -0.081 HD
BRANCH  29  31
ATOM     31  C   UNL     1       2.901  -4.803   6.105  0.00  0.00    -0.074 C 
ATOM     32  C   UNL     1       2.891  -4.506   7.605  0.00  0.00    -0.014 C 
ATOM     33  C   UNL     1       1.958  -5.972   5.810  0.00  0.00    -0.014 C 
ENDBRANCH  29  31
BRANCH  29  34
ATOM     34  C   UNL     1       3.261  -2.456   5.767  0.00  0.00    -0.074 C 
ATOM     35  C   UNL     1       4.673  -2.596   5.194  0.00  0.00    -0.014 C 
ATOM     36  C   UNL     1       2.619  -1.175   5.231  0.00  0.00    -0.014 C 
ENDBRANCH  29  34
ENDBRANCH  28  29
ENDBRANCH  27  28
ENDBRANCH  11  27
TORSDOF 10
