REMARK  Name = ZINC09325753
REMARK  10 active torsions:
REMARK  status: ('A' for Active; 'I' for Inactive)
REMARK    1  A    between atoms: C_1  and  C_2
REMARK    2  A    between atoms: C_2  and  N_3
REMARK    3  A    between atoms: C_5  and  O_33
REMARK    4  A    between atoms: N_12  and  C_13
REMARK    5  A    between atoms: C_13  and  C_15
REMARK    6  A    between atoms: C_18  and  N_21
REMARK    7  A    between atoms: N_21  and  S_22
REMARK    8  A    between atoms: S_22  and  C_25
REMARK    9  A    between atoms: C_28  and  C_31
REMARK   10  A    between atoms: O_33  and  C_34
REMARK                            x       y       z     vdW  Elec       q    Type
REMARK                         _______ _______ _______ _____ _____    ______ ____
ROOT
ATOM      1  C   UNL     1      -3.586   2.471  -0.703  0.00  0.00    +0.039 A 
ATOM      2  C   UNL     1      -3.226   1.916  -1.933  0.00  0.00    +0.015 A 
ATOM      3  C   UNL     1      -4.201   1.543  -2.831  0.00  0.00    +0.025 A 
ATOM      4  C   UNL     1      -5.544   1.731  -2.518  0.00  0.00    +0.048 A 
ATOM      5  C   UNL     1      -5.905   2.290  -1.296  0.00  0.00    +0.025 A 
ATOM      6  C   UNL     1      -4.934   2.659  -0.392  0.00  0.00    +0.015 A 
ENDROOT
BRANCH   1   7
ATOM      7  C   UNL     1      -2.540   2.866   0.265  0.00  0.00    +0.269 C 
ATOM      8  O   UNL     1      -2.856   3.356   1.336  0.00  0.00    -0.268 OA
BRANCH   7  18
ATOM      9  N   UNL     1       1.040   2.937   0.710  0.00  0.00    -0.318 N 
ATOM     10  C   UNL     1       1.867   3.370   1.732  0.00  0.00    +0.101 A 
ATOM     11  C   UNL     1       3.274   3.349   1.785  0.00  0.00    +0.145 A 
ATOM     12  C   UNL     1       3.944   3.825   2.892  0.00  0.00    +0.049 A 
ATOM     13  C   UNL     1       3.256   4.335   3.981  0.00  0.00    +0.025 A 
ATOM     14  C   UNL     1       1.873   4.367   3.953  0.00  0.00    +0.057 A 
ATOM     15  C   UNL     1       1.202   3.892   2.848  0.00  0.00    +0.061 A 
ATOM     16  S   UNL     1      -0.511   3.748   2.407  0.00  0.00    -0.050 S 
ATOM     17  C   UNL     1      -0.310   3.041   0.836  0.00  0.00    +0.167 A 
ATOM     18  N   UNL     1      -1.249   2.687  -0.034  0.00  0.00    -0.152 NA
ATOM     19 CL   UNL     1       0.988   5.002   5.305  0.00  0.00    -0.082 Cl
BRANCH   9  21
ATOM     20  C   UNL     1       0.769   2.779  -1.716  0.00  0.00    +0.027 C 
ATOM     21  C   UNL     1       1.619   2.371  -0.511  0.00  0.00    +0.121 C 
ENDBRANCH   9  21
BRANCH  11  22
ATOM     22  O   UNL     1       3.980   2.855   0.733  0.00  0.00    -0.493 OA
ATOM     23  C   UNL     1       5.405   2.861   0.847  0.00  0.00    +0.277 C 
ENDBRANCH  11  22
ENDBRANCH   7  18
ENDBRANCH   1   7
BRANCH   4  24
ATOM     24  N   UNL     1      -6.528   1.359  -3.430  0.00  0.00    -0.216 N 
ATOM     25  H   UNL     1      -7.307   0.866  -3.128  0.00  0.00    +0.174 HD
BRANCH  24  26
ATOM     26  S   UNL     1      -6.369   1.760  -5.029  0.00  0.00    +0.072 S 
ATOM     27  O   UNL     1      -5.071   1.337  -5.426  0.00  0.00    -0.150 OA
ATOM     28  O   UNL     1      -7.549   1.309  -5.680  0.00  0.00    -0.150 OA
BRANCH  26  29
ATOM     29  C   UNL     1      -6.379   3.519  -5.129  0.00  0.00    +0.109 A 
ATOM     30  C   UNL     1      -7.580   4.201  -5.188  0.00  0.00    +0.029 A 
ATOM     31  C   UNL     1      -7.588   5.581  -5.262  0.00  0.00    +0.005 A 
ATOM     32  C   UNL     1      -6.394   6.279  -5.287  0.00  0.00    -0.050 A 
ATOM     33  C   UNL     1      -5.194   5.596  -5.233  0.00  0.00    +0.005 A 
ATOM     34  C   UNL     1      -5.186   4.216  -5.155  0.00  0.00    +0.029 A 
ATOM     35  C   UNL     1      -6.403   7.783  -5.373  0.00  0.00    +0.044 C 
ENDBRANCH  26  29
ENDBRANCH  24  26
ENDBRANCH   4  24
TORSDOF 7
