REMARK  Name = ZINC39422027
REMARK  11 active torsions:
REMARK  status: ('A' for Active; 'I' for Inactive)
REMARK    1  A    between atoms: C_1  and  C_2
REMARK    2  A    between atoms: C_2  and  C_33
REMARK    3  A    between atoms: C_4  and  N_10
REMARK    4  A    between atoms: C_6  and  C_8
REMARK    5  A    between atoms: C_6  and  C_9
REMARK    6  A    between atoms: N_10  and  C_11
REMARK    7  A    between atoms: N_10  and  C_19
REMARK    8  A    between atoms: C_11  and  C_12
REMARK    9  A    between atoms: C_19  and  N_21
REMARK   10  A    between atoms: N_21  and  C_22
REMARK   11  A    between atoms: C_27  and  C_28
REMARK                            x       y       z     vdW  Elec       q    Type
REMARK                         _______ _______ _______ _____ _____    ______ ____
ROOT
ATOM      1  N   UNL     1      -3.282  -1.242   1.032  0.00  0.00    -0.305 N 
ENDROOT
BRANCH   1   5
ATOM      2  C   UNL     1       0.087   1.236  -0.349  0.00  0.00    -0.010 C 
ATOM      3  C   UNL     1       0.183  -0.284  -0.184  0.00  0.00    -0.072 C 
ATOM      4  C   UNL     1      -1.214  -0.896  -0.223  0.00  0.00    +0.009 C 
ATOM      5  C   UNL     1      -1.954  -0.617   1.085  0.00  0.00    +0.073 C 
ATOM      6  C   UNL     1      -1.151  -1.235   2.229  0.00  0.00    +0.009 C 
ATOM      7  C   UNL     1       0.246  -0.626   2.286  0.00  0.00    -0.072 C 
ATOM      8  N   UNL     1       0.933  -0.640   1.007  0.00  0.00    +0.386 N 
ATOM      9  C   UNL     1       1.079  -1.474   3.276  0.00  0.00    -0.010 C 
ATOM     10  C   UNL     1       0.171   0.791   2.863  0.00  0.00    -0.010 C 
ATOM     11  C   UNL     1       0.958  -0.825  -1.408  0.00  0.00    -0.010 C 
ATOM     12  H   UNL     1       1.331  -1.575   0.868  0.00  0.00    -0.084 HD
ATOM     13  H   UNL     1       1.746  -0.019   1.072  0.00  0.00    -0.084 HD
ENDBRANCH   1   5
BRANCH   1  14
ATOM     14  C   UNL     1      -3.394  -2.570   0.831  0.00  0.00    +0.138 C 
ATOM     15  S   UNL     1      -1.987  -3.538   0.704  0.00  0.00    -0.018 S 
BRANCH  14  16
ATOM     16  N   UNL     1      -4.613  -3.136   0.729  0.00  0.00    -0.296 N 
ATOM     17  H   UNL     1      -4.929  -3.454  -0.131  0.00  0.00    +0.154 HD
BRANCH  16  18
ATOM     18  C   UNL     1      -5.421  -3.264   1.863  0.00  0.00    +0.046 A 
ATOM     19  C   UNL     1      -5.043  -2.666   3.058  0.00  0.00    +0.043 A 
ATOM     20  C   UNL     1      -5.844  -2.795   4.177  0.00  0.00    +0.043 A 
ATOM     21  C   UNL     1      -7.021  -3.520   4.107  0.00  0.00    +0.020 A 
ATOM     22  C   UNL     1      -7.399  -4.117   2.919  0.00  0.00    +0.015 A 
ATOM     23  C   UNL     1      -6.605  -3.986   1.796  0.00  0.00    +0.076 A 
ATOM     24 CL   UNL     1      -5.374  -2.047   5.672  0.00  0.00    -0.083 Cl
BRANCH  23  25
ATOM     25  C   UNL     1      -7.022  -4.632   0.499  0.00  0.00    +0.419 C 
ATOM     26  F   UNL     1      -8.262  -5.256   0.666  0.00  0.00    -0.166 F 
ATOM     27  F   UNL     1      -7.122  -3.655  -0.497  0.00  0.00    -0.166 F 
ATOM     28  F   UNL     1      -6.067  -5.584   0.125  0.00  0.00    -0.166 F 
ENDBRANCH  23  25
ENDBRANCH  16  18
ENDBRANCH  14  16
ENDBRANCH   1  14
BRANCH   1  29
ATOM     29  C   UNL     1      -4.484  -0.422   1.199  0.00  0.00    +0.145 C 
BRANCH  29  30
ATOM     30  C   UNL     1      -4.814   0.257  -0.105  0.00  0.00    +0.005 A 
ATOM     31  C   UNL     1      -4.495   1.589  -0.291  0.00  0.00    +0.008 A 
ATOM     32  C   UNL     1      -4.797   2.212  -1.487  0.00  0.00    +0.000 A 
ATOM     33  C   UNL     1      -5.419   1.505  -2.499  0.00  0.00    +0.003 A 
ATOM     34  C   UNL     1      -5.738   0.173  -2.316  0.00  0.00    +0.038 A 
ATOM     35  C   UNL     1      -5.431  -0.454  -1.120  0.00  0.00    +0.128 A 
ATOM     36  F   UNL     1      -5.739  -1.758  -0.942  0.00  0.00    -0.205 F 
ENDBRANCH  29  30
ENDBRANCH   1  29
TORSDOF 7
