REMARK  Name = ZINC54348692
REMARK  4 active torsions:
REMARK  status: ('A' for Active; 'I' for Inactive)
REMARK    1  A    between atoms: C_1  and  C_2
REMARK    2  A    between atoms: C_5  and  O_9
REMARK    3  A    between atoms: O_9  and  C_10
REMARK    4  A    between atoms: C_15  and  N_16
REMARK                            x       y       z     vdW  Elec       q    Type
REMARK                         _______ _______ _______ _____ _____    ______ ____
ROOT
ATOM      1  C   UNL     1       0.067  -4.667  -1.273  0.00  0.00    +0.151 A 
ATOM      2  C   UNL     1       0.115  -3.838  -2.383  0.00  0.00    +0.075 A 
ATOM      3  C   UNL     1       0.124  -4.387  -3.655  0.00  0.00    +0.079 A 
ATOM      4  C   UNL     1       0.083  -5.771  -3.820  0.00  0.00    +0.144 A 
ATOM      5  C   UNL     1       0.036  -6.599  -2.712  0.00  0.00    +0.074 A 
ATOM      6  C   UNL     1       0.034  -6.049  -1.437  0.00  0.00    +0.071 A 
ATOM      7  O   UNL     1       0.090  -6.295  -5.075  0.00  0.00    -0.481 OA
ATOM      8  C   UNL     1      -0.562  -5.531  -6.094  0.00  0.00    +0.325 C 
ATOM      9  C   UNL     1      -0.137  -4.088  -5.995  0.00  0.00    +0.255 C 
ATOM     10  O   UNL     1      -0.073  -3.402  -6.994  0.00  0.00    -0.272 OA
ATOM     11  N   UNL     1       0.173  -3.562  -4.790  0.00  0.00    -0.280 N 
ATOM     12  H   UNL     1       0.425  -2.629  -4.710  0.00  0.00    +0.155 HD
ENDROOT
BRANCH   6  13
ATOM     13  N   UNL     1      -0.008  -6.887  -0.314  0.00  0.00    -0.355 N 
ATOM     14  H   UNL     1      -0.013  -6.503   0.577  0.00  0.00    +0.142 HD
ATOM     15  H   UNL     1      -0.032  -7.850  -0.428  0.00  0.00    +0.142 HD
ENDBRANCH   6  13
BRANCH   1  16
ATOM     16  O   UNL     1       0.059  -4.130  -0.023  0.00  0.00    -0.453 OA
BRANCH  16  21
ATOM     17  C   UNL     1       4.987  -3.575   2.650  0.00  0.00    +0.044 C 
ATOM     18  C   UNL     1       3.668  -3.723   1.935  0.00  0.00    -0.049 A 
ATOM     19  C   UNL     1       3.639  -4.162   0.624  0.00  0.00    +0.007 A 
ATOM     20  C   UNL     1       2.432  -4.299  -0.034  0.00  0.00    +0.048 A 
ATOM     21  C   UNL     1       1.248  -3.996   0.622  0.00  0.00    +0.147 A 
ATOM     22  C   UNL     1       1.279  -3.556   1.939  0.00  0.00    +0.083 A 
ATOM     23  C   UNL     1       2.489  -3.426   2.594  0.00  0.00    +0.027 A 
ATOM     24 CL   UNL     1      -0.201  -3.177   2.764  0.00  0.00    -0.080 Cl
ENDBRANCH  16  21
ENDBRANCH   1  16
TORSDOF 3
