REMARK  Name = ZINC48324553
REMARK  4 active torsions:
REMARK  status: ('A' for Active; 'I' for Inactive)
REMARK    1  A    between atoms: C_6  and  C_7
REMARK    2  A    between atoms: C_7  and  N_10
REMARK    3  A    between atoms: N_13  and  C_14
REMARK    4  A    between atoms: C_17  and  N_20
REMARK                            x       y       z     vdW  Elec       q    Type
REMARK                         _______ _______ _______ _____ _____    ______ ____
ROOT
ATOM      1  N   UNL     1      -2.532  -0.022   0.222  0.00  0.00    -0.290 N 
ATOM      2  C   UNL     1      -2.684   1.195  -0.337  0.00  0.00    +0.305 C 
ATOM      3  O   UNL     1      -1.834   1.627  -1.092  0.00  0.00    -0.252 OA
ATOM      4  N   UNL     1      -3.777   1.933  -0.060  0.00  0.00    -0.269 N 
ATOM      5  H   UNL     1      -3.243  -0.398   0.764  0.00  0.00    +0.151 HD
ATOM      6  H   UNL     1      -4.485   1.562   0.489  0.00  0.00    +0.156 HD
ENDROOT
BRANCH   4   7
ATOM      7  C   UNL     1      -3.889   3.234  -0.563  0.00  0.00    +0.035 A 
ATOM      8  C   UNL     1      -4.505   4.222   0.194  0.00  0.00    +0.025 A 
ATOM      9  C   UNL     1      -4.614   5.505  -0.306  0.00  0.00    +0.034 A 
ATOM     10  C   UNL     1      -4.110   5.806  -1.558  0.00  0.00    +0.126 A 
ATOM     11  C   UNL     1      -3.497   4.824  -2.314  0.00  0.00    +0.034 A 
ATOM     12  C   UNL     1      -3.380   3.541  -1.818  0.00  0.00    +0.025 A 
BRANCH  10  13
ATOM     13  N   UNL     1      -4.229   7.182  -2.090  0.00  0.00    +0.056 N 
ATOM     14  O   UNL     1      -4.765   8.042  -1.430  0.00  0.00    -0.126 OA
ATOM     15  O   UNL     1      -3.789   7.447  -3.185  0.00  0.00    -0.126 OA
ENDBRANCH  10  13
ENDBRANCH   4   7
BRANCH   1  16
ATOM     16  C   UNL     1      -1.295  -0.777   0.009  0.00  0.00    +0.061 C 
ATOM     17  C   UNL     1      -1.151  -1.541  -1.309  0.00  0.00    +0.033 C 
ATOM     18  C   UNL     1      -1.393  -2.304  -0.005  0.00  0.00    +0.033 C 
BRANCH  16  24
ATOM     19  C   UNL     1       1.193  -0.531   0.119  0.00  0.00    +0.007 A 
ATOM     20  C   UNL     1       2.335   0.030   0.659  0.00  0.00    +0.015 A 
ATOM     21  C   UNL     1       2.233   0.958   1.681  0.00  0.00    +0.018 A 
ATOM     22  C   UNL     1       0.988   1.323   2.160  0.00  0.00    +0.015 A 
ATOM     23  C   UNL     1      -0.153   0.762   1.619  0.00  0.00    +0.007 A 
ATOM     24  C   UNL     1      -0.051  -0.165   0.599  0.00  0.00    -0.024 A 
ATOM     25 BR   UNL     1       3.794   1.725   2.421  0.00  0.00    -0.050 Br
ENDBRANCH  16  24
ENDBRANCH   1  16
TORSDOF 4
