REMARK  Name = ZINC02366157
REMARK  6 active torsions:
REMARK  status: ('A' for Active; 'I' for Inactive)
REMARK    1  A    between atoms: C_1  and  C_2
REMARK    2  A    between atoms: C_7  and  C_8
REMARK    3  A    between atoms: C_16  and  C_17
REMARK    4  A    between atoms: N_19  and  C_33
REMARK    5  A    between atoms: C_21  and  C_22
REMARK    6  A    between atoms: C_29  and  C_32
REMARK                            x       y       z     vdW  Elec       q    Type
REMARK                         _______ _______ _______ _____ _____    ______ ____
ROOT
ATOM      1  C   UNL     1       1.063   1.631   1.661  0.00  0.00    +0.022 A 
ATOM      2  C   UNL     1       1.226   3.002   1.741  0.00  0.00    +0.123 A 
ATOM      3  N   UNL     1       2.526   3.248   1.989  0.00  0.00    -0.239 N 
ATOM      4  N   UNL     1       3.227   2.041   2.064  0.00  0.00    -0.166 NA
ATOM      5  C   UNL     1       2.392   1.044   1.874  0.00  0.00    +0.100 A 
ENDROOT
BRANCH   1  14
ATOM      6  C   UNL     1      -5.501   3.205   0.528  0.00  0.00    +0.183 A 
ATOM      7  N   UNL     1      -4.465   4.027   0.751  0.00  0.00    -0.200 NA
ATOM      8  C   UNL     1      -3.383   3.319   0.920  0.00  0.00    +0.200 A 
ATOM      9  N   UNL     1      -3.681   1.990   0.811  0.00  0.00    -0.169 N 
ATOM     10  N   UNL     1      -5.079   1.965   0.554  0.00  0.00    -0.141 NA
ATOM     11  C   UNL     1      -2.695   1.093   0.948  0.00  0.00    +0.288 A 
ATOM     12  O   UNL     1      -2.914  -0.101   0.852  0.00  0.00    -0.265 OA
ATOM     13  C   UNL     1      -1.345   1.596   1.223  0.00  0.00    +0.082 A 
ATOM     14  C   UNL     1      -0.186   0.907   1.408  0.00  0.00    +0.032 C 
ATOM     15  S   UNL     1      -1.635   3.359   1.242  0.00  0.00    -0.044 S 
BRANCH   6  22
ATOM     16  C   UNL     1      -7.499   1.238  -0.183  0.00  0.00    +0.044 C 
ATOM     17  C   UNL     1      -7.871   2.693  -0.054  0.00  0.00    -0.040 A 
ATOM     18  C   UNL     1      -9.173   3.096  -0.270  0.00  0.00    +0.004 A 
ATOM     19  C   UNL     1      -9.515   4.431  -0.157  0.00  0.00    +0.000 A 
ATOM     20  C   UNL     1      -8.555   5.370   0.178  0.00  0.00    +0.001 A 
ATOM     21  C   UNL     1      -7.251   4.978   0.402  0.00  0.00    +0.012 A 
ATOM     22  C   UNL     1      -6.901   3.633   0.289  0.00  0.00    +0.024 A 
ENDBRANCH   6  22
ENDBRANCH   1  14
BRANCH   5  23
ATOM     23  C   UNL     1       2.728  -0.399   1.875  0.00  0.00    +0.003 A 
ATOM     24  C   UNL     1       1.823  -1.331   2.382  0.00  0.00    +0.014 A 
ATOM     25  C   UNL     1       2.133  -2.673   2.375  0.00  0.00    +0.046 A 
ATOM     26  C   UNL     1       3.357  -3.112   1.870  0.00  0.00    +0.124 A 
ATOM     27  C   UNL     1       4.260  -2.176   1.378  0.00  0.00    -0.002 A 
ATOM     28  C   UNL     1       3.955  -0.835   1.373  0.00  0.00    +0.017 A 
ATOM     29  C   UNL     1       5.490  -2.940   0.928  0.00  0.00    +0.083 C 
ATOM     30  C   UNL     1       5.277  -4.316   1.604  0.00  0.00    +0.175 C 
ATOM     31  O   UNL     1       3.849  -4.376   1.759  0.00  0.00    -0.488 OA
ATOM     32  C   UNL     1       5.973  -4.370   2.965  0.00  0.00    +0.052 C 
ENDBRANCH   5  23
BRANCH   3  33
ATOM     33  C   UNL     1       3.091   4.520   2.143  0.00  0.00    +0.065 A 
ATOM     34  C   UNL     1       2.294   5.652   2.041  0.00  0.00    +0.028 A 
ATOM     35  C   UNL     1       2.854   6.905   2.199  0.00  0.00    +0.002 A 
ATOM     36  C   UNL     1       4.208   7.033   2.447  0.00  0.00    +0.000 A 
ATOM     37  C   UNL     1       5.006   5.907   2.543  0.00  0.00    +0.002 A 
ATOM     38  C   UNL     1       4.451   4.652   2.392  0.00  0.00    +0.028 A 
ENDBRANCH   3  33
TORSDOF 4
