REMARK  Name = ZINC39685043
REMARK  8 active torsions:
REMARK  status: ('A' for Active; 'I' for Inactive)
REMARK    1  A    between atoms: C_1  and  O_2
REMARK    2  A    between atoms: O_2  and  C_3
REMARK    3  A    between atoms: C_8  and  C_9
REMARK    4  A    between atoms: C_13  and  C_22
REMARK    5  A    between atoms: N_24  and  C_25
REMARK    6  A    between atoms: C_25  and  C_26
REMARK    7  A    between atoms: C_26  and  O_27
REMARK    8  A    between atoms: O_27  and  C_28
REMARK                            x       y       z     vdW  Elec       q    Type
REMARK                         _______ _______ _______ _____ _____    ______ ____
ROOT
ATOM      1  C   UNL     1      -0.208  -2.772  -0.086  0.00  0.00    +0.250 C 
ATOM      2  O   UNL     1       0.851  -2.175  -0.118  0.00  0.00    -0.270 OA
ATOM      3  N   UNL     1      -0.222  -4.112   0.059  0.00  0.00    -0.296 N 
ATOM      4  C   UNL     1      -1.393  -5.018   0.013  0.00  0.00    +0.121 C 
ATOM      5  C   UNL     1      -0.892  -6.266  -0.747  0.00  0.00    +0.100 C 
ATOM      6  C   UNL     1       0.634  -6.257  -0.553  0.00  0.00    -0.004 C 
ATOM      7  C   UNL     1       0.932  -5.012   0.295  0.00  0.00    +0.115 C 
ATOM      8  C   UNL     1       1.080  -7.518   0.182  0.00  0.00    -0.010 C 
ATOM      9  C   UNL     1       2.606  -7.514   0.312  0.00  0.00    -0.082 C 
ATOM     10  N   UNL     1       3.212  -7.461  -1.024  0.00  0.00    +0.379 N 
ATOM     11  C   UNL     1       2.853  -6.202  -1.688  0.00  0.00    -0.082 C 
ATOM     12  C   UNL     1       1.338  -6.151  -1.902  0.00  0.00    -0.010 C 
ATOM     13  H   UNL     1       4.216  -7.520  -0.938  0.00  0.00    -0.086 HD
ATOM     14  H   UNL     1       2.878  -8.238  -1.574  0.00  0.00    -0.086 HD
ENDROOT
BRANCH   1  20
ATOM     15  C   UNL     1      -1.550  -0.886  -1.015  0.00  0.00    +0.132 A 
ATOM     16  C   UNL     1      -2.751  -0.200  -1.126  0.00  0.00    +0.046 A 
ATOM     17  C   UNL     1      -3.865  -0.638  -0.439  0.00  0.00    +0.004 A 
ATOM     18  C   UNL     1      -3.795  -1.764   0.365  0.00  0.00    +0.001 A 
ATOM     19  C   UNL     1      -2.611  -2.458   0.487  0.00  0.00    +0.017 A 
ATOM     20  C   UNL     1      -1.477  -2.030  -0.208  0.00  0.00    +0.078 A 
BRANCH  15  22
ATOM     21  C   UNL     1      -0.605   0.715  -2.493  0.00  0.00    +0.277 C 
ATOM     22  O   UNL     1      -0.455  -0.457  -1.690  0.00  0.00    -0.494 OA
ENDBRANCH  15  22
ENDBRANCH   1  20
BRANCH   5  23
ATOM     23  C   UNL     1      -1.491  -7.516  -0.157  0.00  0.00    +0.218 C 
ATOM     24  O   UNL     1      -1.763  -7.559   1.024  0.00  0.00    -0.275 OA
ATOM     25  N   UNL     1      -1.726  -8.587  -0.941  0.00  0.00    -0.312 N 
ATOM     26  H   UNL     1      -1.508  -8.552  -1.886  0.00  0.00    +0.149 HD
BRANCH  25  27
ATOM     27  C   UNL     1      -2.308  -9.802  -0.367  0.00  0.00    +0.145 C 
BRANCH  27  28
ATOM     28  C   UNL     1      -2.469 -10.857  -1.464  0.00  0.00    +0.248 C 
BRANCH  28  29
ATOM     29  O   UNL     1      -1.181 -11.246  -1.944  0.00  0.00    -0.488 OA
BRANCH  29  30
ATOM     30  C   UNL     1      -1.146 -12.183  -2.928  0.00  0.00    +0.156 A 
ATOM     31  C   UNL     1      -2.327 -12.713  -3.425  0.00  0.00    +0.048 A 
ATOM     32  C   UNL     1      -2.289 -13.666  -4.425  0.00  0.00    +0.004 A 
ATOM     33  C   UNL     1      -1.075 -14.092  -4.931  0.00  0.00    +0.003 A 
ATOM     34  C   UNL     1       0.105 -13.567  -4.438  0.00  0.00    +0.042 A 
ATOM     35  C   UNL     1       0.073 -12.608  -3.441  0.00  0.00    +0.165 A 
ATOM     36  F   UNL     1       1.226 -12.090  -2.964  0.00  0.00    -0.202 F 
ENDBRANCH  29  30
ENDBRANCH  28  29
ENDBRANCH  27  28
ENDBRANCH  25  27
ENDBRANCH   5  23
TORSDOF 7
