REMARK  Name = ZINC39596471
REMARK  11 active torsions:
REMARK  status: ('A' for Active; 'I' for Inactive)
REMARK    1  A    between atoms: C_1  and  C_2
REMARK    2  A    between atoms: C_2  and  C_3
REMARK    3  A    between atoms: C_3  and  C_5
REMARK    4  A    between atoms: C_3  and  C_6
REMARK    5  A    between atoms: C_6  and  C_7
REMARK    6  A    between atoms: C_11  and  C_20
REMARK    7  A    between atoms: N_22  and  C_23
REMARK    8  A    between atoms: C_23  and  C_24
REMARK    9  A    between atoms: C_24  and  C_26
REMARK   10  A    between atoms: C_24  and  O_27
REMARK   11  A    between atoms: O_27  and  C_28
REMARK                            x       y       z     vdW  Elec       q    Type
REMARK                         _______ _______ _______ _____ _____    ______ ____
ROOT
ATOM      1  C   UNL     1      -2.774  -2.555   0.252  0.00  0.00    +0.216 C 
ATOM      2  O   UNL     1      -3.699  -1.770   0.260  0.00  0.00    -0.276 OA
ATOM      3  N   UNL     1      -3.011  -3.876   0.376  0.00  0.00    -0.300 N 
ATOM      4  C   UNL     1      -2.021  -4.978   0.395  0.00  0.00    +0.121 C 
ATOM      5  C   UNL     1      -2.549  -5.959   1.466  0.00  0.00    +0.100 C 
ATOM      6  C   UNL     1      -4.059  -5.677   1.546  0.00  0.00    -0.004 C 
ATOM      7  C   UNL     1      -4.320  -4.553   0.532  0.00  0.00    +0.115 C 
ATOM      8  C   UNL     1      -4.437  -5.212   2.949  0.00  0.00    -0.010 C 
ATOM      9  C   UNL     1      -5.950  -4.993   3.019  0.00  0.00    -0.082 C 
ATOM     10  N   UNL     1      -6.644  -6.245   2.693  0.00  0.00    +0.379 N 
ATOM     11  C   UNL     1      -6.348  -6.637   1.310  0.00  0.00    -0.082 C 
ATOM     12  C   UNL     1      -4.851  -6.925   1.168  0.00  0.00    -0.010 C 
ATOM     13  H   UNL     1      -6.333  -6.972   3.321  0.00  0.00    -0.086 HD
ATOM     14  H   UNL     1      -7.638  -6.115   2.800  0.00  0.00    -0.086 HD
ENDROOT
BRANCH   5  15
ATOM     15  C   UNL     1      -2.301  -7.383   1.041  0.00  0.00    +0.218 C 
ATOM     16  O   UNL     1      -2.361  -7.686  -0.132  0.00  0.00    -0.275 OA
ATOM     17  N   UNL     1      -2.011  -8.321   1.964  0.00  0.00    -0.312 N 
ATOM     18  H   UNL     1      -1.963  -8.080   2.903  0.00  0.00    +0.149 HD
BRANCH  17  19
ATOM     19  C   UNL     1      -1.770  -9.706   1.551  0.00  0.00    +0.148 C 
BRANCH  19  20
ATOM     20  C   UNL     1      -1.466 -10.560   2.784  0.00  0.00    +0.187 C 
ATOM     21  C   UNL     1      -1.213 -12.006   2.352  0.00  0.00    +0.053 C 
BRANCH  20  22
ATOM     22  O   UNL     1      -0.304 -10.050   3.442  0.00  0.00    -0.488 OA
BRANCH  22  23
ATOM     23  C   UNL     1      -0.181 -10.314   4.770  0.00  0.00    +0.121 A 
ATOM     24  C   UNL     1       0.856  -9.749   5.497  0.00  0.00    +0.048 A 
ATOM     25  C   UNL     1       0.980 -10.018   6.846  0.00  0.00    +0.042 A 
ATOM     26  C   UNL     1       0.069 -10.851   7.473  0.00  0.00    +0.124 A 
ATOM     27  C   UNL     1      -0.967 -11.416   6.748  0.00  0.00    +0.042 A 
ATOM     28  C   UNL     1      -1.097 -11.144   5.400  0.00  0.00    +0.048 A 
ATOM     29  F   UNL     1       0.191 -11.114   8.792  0.00  0.00    -0.205 F 
ENDBRANCH  22  23
ENDBRANCH  20  22
ENDBRANCH  19  20
ENDBRANCH  17  19
ENDBRANCH   5  15
BRANCH   1  30
ATOM     30  C   UNL     1      -1.361  -2.053   0.102  0.00  0.00    +0.099 C 
BRANCH  30  31
ATOM     31  C   UNL     1      -1.371  -0.528  -0.020  0.00  0.00    -0.006 C 
ATOM     32  C   UNL     1      -2.083  -0.125  -1.313  0.00  0.00    +0.008 C 
BRANCH  31  34
ATOM     33  C   UNL     1       0.058   1.521  -0.043  0.00  0.00    +0.004 C 
ATOM     34  C   UNL     1       0.068  -0.009  -0.046  0.00  0.00    +0.000 C 
ENDBRANCH  31  34
ENDBRANCH  30  31
ENDBRANCH   1  30
TORSDOF 8
