REMARK  Name = ZINC33683159
REMARK  7 active torsions:
REMARK  status: ('A' for Active; 'I' for Inactive)
REMARK    1  A    between atoms: C_3  and  C_28
REMARK    2  A    between atoms: C_6  and  C_7
REMARK    3  A    between atoms: C_7  and  O_8
REMARK    4  A    between atoms: O_8  and  C_9
REMARK    5  A    between atoms: C_12  and  C_16
REMARK    6  A    between atoms: N_17  and  N_18
REMARK    7  A    between atoms: C_22  and  N_25
REMARK                            x       y       z     vdW  Elec       q    Type
REMARK                         _______ _______ _______ _____ _____    ______ ____
ROOT
ATOM      1  C   UNL     1      -9.628   4.144  -0.028  0.00  0.00    +0.135 A 
ATOM      2  C   UNL     1      -8.457   3.425   0.172  0.00  0.00    +0.047 A 
ATOM      3  C   UNL     1      -7.239   4.070   0.166  0.00  0.00    +0.013 A 
ATOM      4  C   UNL     1      -7.184   5.453  -0.031  0.00  0.00    -0.004 A 
ATOM      5  C   UNL     1      -8.365   6.173  -0.231  0.00  0.00    +0.028 A 
ATOM      6  C   UNL     1      -9.578   5.518  -0.228  0.00  0.00    +0.060 A 
ATOM      7 BR   UNL     1     -11.177   6.491  -0.499  0.00  0.00    -0.046 Br
ENDROOT
BRANCH   4   8
ATOM      8  C   UNL     1      -5.884   6.148  -0.034  0.00  0.00    +0.138 C 
ATOM      9  N   UNL     1      -4.783   5.466  -0.115  0.00  0.00    -0.189 NA
BRANCH   9  10
ATOM     10  N   UNL     1      -4.801   4.168  -0.643  0.00  0.00    -0.221 N 
ATOM     11  C   UNL     1      -3.650   3.390  -0.614  0.00  0.00    +0.138 A 
ATOM     12  C   UNL     1      -3.674   2.102  -1.139  0.00  0.00    +0.047 A 
ATOM     13  C   UNL     1      -2.521   1.339  -1.103  0.00  0.00    +0.037 A 
ATOM     14  C   UNL     1      -1.378   1.892  -0.540  0.00  0.00    +0.144 A 
ATOM     15  C   UNL     1      -1.426   3.175  -0.032  0.00  0.00    +0.145 A 
ATOM     16  N   UNL     1      -2.539   3.882  -0.085  0.00  0.00    -0.237 NA
ATOM     17  H   UNL     1      -5.726   3.765  -1.081  0.00  0.00    +0.176 HD
BRANCH  14  18
ATOM     18  N   UNL     1      -0.121   1.111  -0.480  0.00  0.00    +0.058 N 
ATOM     19  O   UNL     1      -0.087  -0.022  -0.926  0.00  0.00    -0.126 OA
ATOM     20  O   UNL     1       0.879   1.603   0.011  0.00  0.00    -0.126 OA
ENDBRANCH  14  18
ENDBRANCH   9  10
ENDBRANCH   4   8
BRANCH   1  21
ATOM     21  O   UNL     1     -10.825   3.502  -0.026  0.00  0.00    -0.486 OA
BRANCH  21  22
ATOM     22  C   UNL     1     -10.804   2.089   0.186  0.00  0.00    +0.264 C 
BRANCH  22  28
ATOM     23  C   UNL     1     -12.948   1.482   1.326  0.00  0.00    +0.008 A 
ATOM     24  C   UNL     1     -14.239   0.999   1.304  0.00  0.00    +0.015 A 
ATOM     25  C   UNL     1     -14.802   0.573   0.099  0.00  0.00    +0.063 A 
ATOM     26  C   UNL     1     -14.053   0.644  -1.078  0.00  0.00    +0.015 A 
ATOM     27  C   UNL     1     -12.764   1.135  -1.042  0.00  0.00    +0.008 A 
ATOM     28  C   UNL     1     -12.213   1.555   0.155  0.00  0.00    -0.010 A 
BRANCH  25  29
ATOM     29  C   UNL     1     -16.183   0.050   0.068  0.00  0.00    +0.387 C 
ATOM     30  O   UNL     1     -16.669  -0.320  -0.982  0.00  0.00    -0.241 OA
ATOM     31  O   UNL     1     -16.902  -0.018   1.205  0.00  0.00    -0.241 OA
ENDBRANCH  25  29
ENDBRANCH  22  28
ENDBRANCH  21  22
ENDBRANCH   1  21
TORSDOF 7
