REMARK  Name = ZINC13097493
REMARK  7 active torsions:
REMARK  status: ('A' for Active; 'I' for Inactive)
REMARK    1  A    between atoms: C_3  and  S_28
REMARK    2  A    between atoms: C_6  and  N_7
REMARK    3  A    between atoms: C_8  and  C_10
REMARK    4  A    between atoms: C_13  and  O_27
REMARK    5  A    between atoms: N_16  and  S_17
REMARK    6  A    between atoms: S_17  and  C_20
REMARK    7  A    between atoms: S_28  and  N_31
REMARK                            x       y       z     vdW  Elec       q    Type
REMARK                         _______ _______ _______ _____ _____    ______ ____
ROOT
ATOM      1  N   UNL     1       0.904   8.532   1.034  0.00  0.00    -0.284 N 
ATOM      2  C   UNL     1      -0.233   9.189   0.730  0.00  0.00    +0.236 C 
ATOM      3  O   UNL     1      -1.098   8.635   0.085  0.00  0.00    -0.274 OA
ATOM      4  H   UNL     1       1.563   8.946   1.613  0.00  0.00    +0.155 HD
ENDROOT
BRANCH   1  10
ATOM      5  C   UNL     1       0.660   6.919  -0.747  0.00  0.00    +0.025 A 
ATOM      6  C   UNL     1       0.888   5.655  -1.256  0.00  0.00    +0.030 A 
ATOM      7  C   UNL     1       1.587   4.724  -0.511  0.00  0.00    +0.106 A 
ATOM      8  C   UNL     1       2.056   5.052   0.748  0.00  0.00    +0.030 A 
ATOM      9  C   UNL     1       1.836   6.315   1.261  0.00  0.00    +0.025 A 
ATOM     10  C   UNL     1       1.134   7.253   0.515  0.00  0.00    +0.034 A 
BRANCH   7  11
ATOM     11  S   UNL     1       1.876   3.113  -1.164  0.00  0.00    +0.061 S 
ATOM     12  O   UNL     1       0.861   2.879  -2.130  0.00  0.00    -0.153 OA
ATOM     13  O   UNL     1       2.080   2.254  -0.050  0.00  0.00    -0.153 OA
BRANCH  11  14
ATOM     14  N   UNL     1       3.311   3.168  -1.988  0.00  0.00    -0.177 NA
ATOM     15  C   UNL     1       4.578   2.876  -1.306  0.00  0.00    +0.109 C 
ATOM     16  C   UNL     1       5.317   1.783  -2.084  0.00  0.00    +0.017 C 
ATOM     17  C   UNL     1       5.475   2.219  -3.543  0.00  0.00    +0.003 C 
ATOM     18  C   UNL     1       4.093   2.410  -4.172  0.00  0.00    +0.017 C 
ATOM     19  C   UNL     1       3.340   3.510  -3.417  0.00  0.00    +0.109 C 
ENDBRANCH  11  14
ENDBRANCH   7  11
ENDBRANCH   1  10
BRANCH   2  20
ATOM     20  C   UNL     1      -0.428  10.610   1.190  0.00  0.00    +0.168 C 
ATOM     21  C   UNL     1       0.660  11.515   0.575  0.00  0.00    +0.062 C 
ATOM     22  C   UNL     1      -0.114  12.820   0.252  0.00  0.00    +0.132 C 
ATOM     23  C   UNL     1      -1.498  12.264  -0.168  0.00  0.00    +0.141 C 
ATOM     24  N   UNL     1      -1.728  11.113   0.723  0.00  0.00    -0.162 NA
BRANCH  24  25
ATOM     25  S   UNL     1      -3.207  10.488   1.130  0.00  0.00    +0.062 S 
ATOM     26  O   UNL     1      -4.103  10.856   0.091  0.00  0.00    -0.153 OA
ATOM     27  O   UNL     1      -2.987   9.135   1.503  0.00  0.00    -0.153 OA
BRANCH  25  28
ATOM     28  C   UNL     1      -3.746  11.330   2.582  0.00  0.00    +0.106 A 
ATOM     29  C   UNL     1      -3.425  10.829   3.829  0.00  0.00    +0.031 A 
ATOM     30  C   UNL     1      -3.843  11.491   4.968  0.00  0.00    +0.040 A 
ATOM     31  C   UNL     1      -4.593  12.650   4.859  0.00  0.00    +0.124 A 
ATOM     32  C   UNL     1      -4.918  13.148   3.609  0.00  0.00    +0.040 A 
ATOM     33  C   UNL     1      -4.494  12.487   2.471  0.00  0.00    +0.031 A 
ATOM     34  F   UNL     1      -5.007  13.295   5.972  0.00  0.00    -0.205 F 
ENDBRANCH  25  28
ENDBRANCH  24  25
BRANCH  22  35
ATOM     35  O   UNL     1       0.502  13.528  -0.826  0.00  0.00    -0.390 OA
ATOM     36  H   UNL     1       0.053  14.351  -1.063  0.00  0.00    +0.210 HD
ENDBRANCH  22  35
ENDBRANCH   2  20
TORSDOF 7
