REMARK  Name = ZINC39736418
REMARK  16 active torsions:
REMARK  status: ('A' for Active; 'I' for Inactive)
REMARK    1  A    between atoms: C_1  and  C_2
REMARK    2  A    between atoms: C_2  and  C_3
REMARK    3  A    between atoms: N_12  and  C_13
REMARK    4  A    between atoms: C_13  and  C_14
REMARK    5  A    between atoms: C_14  and  N_15
REMARK    6  A    between atoms: N_15  and  C_16
REMARK    7  A    between atoms: N_15  and  C_18
REMARK    8  A    between atoms: C_16  and  C_17
REMARK    9  A    between atoms: C_18  and  C_19
REMARK   10  A    between atoms: C_20  and  C_22
REMARK   11  A    between atoms: C_25  and  S_28
REMARK   12  A    between atoms: S_28  and  N_31
REMARK   13  A    between atoms: N_31  and  C_32
REMARK   14  A    between atoms: N_31  and  C_33
REMARK   15  A    between atoms: C_33  and  C_34
REMARK   16  A    between atoms: C_33  and  C_35
REMARK                            x       y       z     vdW  Elec       q    Type
REMARK                         _______ _______ _______ _____ _____    ______ ____
ROOT
ATOM      1  C   UNL     1       0.484  -1.146  -1.283  0.00  0.00    -0.021 A 
ATOM      2  C   UNL     1       0.344  -1.418   0.053  0.00  0.00    +0.006 A 
ATOM      3  C   UNL     1      -0.867  -1.837   0.585  0.00  0.00    +0.001 A 
ATOM      4  C   UNL     1      -1.958  -1.985  -0.252  0.00  0.00    +0.017 A 
ATOM      5  C   UNL     1      -1.828  -1.715  -1.590  0.00  0.00    +0.041 A 
ATOM      6  C   UNL     1      -0.612  -1.281  -2.166  0.00  0.00    +0.083 A 
ATOM      7  N   UNL     1      -0.643  -1.051  -3.497  0.00  0.00    -0.224 NA
ATOM      8  C   UNL     1      -1.730  -1.213  -4.215  0.00  0.00    +0.168 A 
ATOM      9  S   UNL     1      -2.915  -1.763  -2.995  0.00  0.00    -0.052 S 
ATOM     10  N   UNL     1      -1.910  -1.018  -5.574  0.00  0.00    -0.248 N 
ATOM     11  C   UNL     1      -0.879  -0.605  -6.337  0.00  0.00    +0.252 C 
ATOM     12  O   UNL     1       0.230  -0.493  -5.852  0.00  0.00    -0.270 OA
ENDROOT
BRANCH  11  13
ATOM     13  C   UNL     1      -1.097  -0.289  -7.764  0.00  0.00    +0.037 A 
ATOM     14  C   UNL     1      -2.211   0.457  -8.155  0.00  0.00    +0.015 A 
ATOM     15  C   UNL     1      -2.408   0.749  -9.489  0.00  0.00    +0.029 A 
ATOM     16  C   UNL     1      -1.506   0.304 -10.438  0.00  0.00    +0.106 A 
ATOM     17  C   UNL     1      -0.400  -0.436 -10.058  0.00  0.00    +0.029 A 
ATOM     18  C   UNL     1      -0.187  -0.730  -8.727  0.00  0.00    +0.015 A 
BRANCH  16  19
ATOM     19  S   UNL     1      -1.766   0.680 -12.140  0.00  0.00    +0.061 S 
ATOM     20  O   UNL     1      -1.074  -0.312 -12.886  0.00  0.00    -0.153 OA
ATOM     21  O   UNL     1      -3.158   0.917 -12.295  0.00  0.00    -0.153 OA
BRANCH  19  22
ATOM     22  N   UNL     1      -1.004   2.119 -12.445  0.00  0.00    -0.177 NA
ATOM     23  C   UNL     1       0.395   2.129 -12.881  0.00  0.00    +0.132 C 
BRANCH  22  24
ATOM     24  C   UNL     1      -1.729   3.381 -12.279  0.00  0.00    +0.073 C 
ATOM     25  C   UNL     1      -1.021   4.241 -11.231  0.00  0.00    +0.025 C 
ATOM     26  C   UNL     1      -1.763   4.128 -13.614  0.00  0.00    +0.025 C 
ENDBRANCH  22  24
ENDBRANCH  19  22
ENDBRANCH  16  19
ENDBRANCH  11  13
BRANCH   1  28
ATOM     27  C   UNL     1       1.856   0.836  -1.865  0.00  0.00    +0.009 C 
ATOM     28  C   UNL     1       1.819  -0.693  -1.815  0.00  0.00    +0.034 C 
ENDBRANCH   1  28
BRANCH  10  29
ATOM     29  C   UNL     1      -3.221  -1.261  -6.181  0.00  0.00    +0.097 C 
BRANCH  29  30
ATOM     30  C   UNL     1      -4.163  -0.104  -5.840  0.00  0.00    -0.059 C 
BRANCH  30  31
ATOM     31  N   UNL     1      -5.419  -0.261  -6.584  0.00  0.00    +0.380 N 
ATOM     32  H   UNL     1      -5.219  -0.338  -7.570  0.00  0.00    -0.082 HD
BRANCH  31  33
ATOM     33  C   UNL     1      -6.111  -1.473  -6.128  0.00  0.00    -0.082 C 
ATOM     34  C   UNL     1      -7.324  -1.736  -7.023  0.00  0.00    -0.017 C 
ENDBRANCH  31  33
BRANCH  31  35
ATOM     35  C   UNL     1      -6.276   0.909  -6.350  0.00  0.00    -0.082 C 
ATOM     36  C   UNL     1      -5.607   2.156  -6.931  0.00  0.00    -0.017 C 
ENDBRANCH  31  35
ENDBRANCH  30  31
ENDBRANCH  29  30
ENDBRANCH  10  29
TORSDOF 10
