REMARK  Name = ZINC40035708
REMARK  8 active torsions:
REMARK  status: ('A' for Active; 'I' for Inactive)
REMARK    1  A    between atoms: C_1  and  C_2
REMARK    2  A    between atoms: C_2  and  C_3
REMARK    3  A    between atoms: C_3  and  C_40
REMARK    4  A    between atoms: N_15  and  C_33
REMARK    5  A    between atoms: N_18  and  N_19
REMARK    6  A    between atoms: C_20  and  C_21
REMARK    7  A    between atoms: C_30  and  C_32
REMARK    8  A    between atoms: C_36  and  C_39
REMARK                            x       y       z     vdW  Elec       q    Type
REMARK                         _______ _______ _______ _____ _____    ______ ____
ROOT
ATOM      1  C   UNL     1      -0.784  -0.020   0.633  0.00  0.00    +0.004 C 
ATOM      2  C   UNL     1      -0.326  -1.406   0.189  0.00  0.00    +0.047 C 
ATOM      3  C   UNL     1      -0.184  -2.322   1.375  0.00  0.00    -0.037 A 
ATOM      4  C   UNL     1       0.817  -3.271   1.410  0.00  0.00    +0.004 A 
ATOM      5  C   UNL     1       0.938  -4.111   2.502  0.00  0.00    +0.000 A 
ATOM      6  C   UNL     1       0.059  -4.008   3.566  0.00  0.00    +0.001 A 
ATOM      7  C   UNL     1      -0.947  -3.062   3.543  0.00  0.00    +0.010 A 
ATOM      8  C   UNL     1      -1.070  -2.214   2.447  0.00  0.00    +0.004 A 
ATOM      9  C   UNL     1      -2.132  -1.183   2.399  0.00  0.00    +0.084 A 
ATOM     10  C   UNL     1      -1.996  -0.121   1.516  0.00  0.00    +0.050 A 
ATOM     11  C   UNL     1      -3.005   0.849   1.466  0.00  0.00    +0.264 A 
ATOM     12  O   UNL     1      -2.921   1.796   0.701  0.00  0.00    -0.267 OA
ATOM     13  N   UNL     1      -4.072   0.715   2.283  0.00  0.00    -0.248 N 
ATOM     14  C   UNL     1      -4.154  -0.346   3.137  0.00  0.00    +0.223 A 
ATOM     15  N   UNL     1      -3.209  -1.263   3.188  0.00  0.00    -0.214 NA
ATOM     16  N   UNL     1      -5.243  -0.460   3.961  0.00  0.00    -0.206 N 
ATOM     17  C   UNL     1      -1.129   0.816  -0.601  0.00  0.00    +0.016 C 
ATOM     18  H   UNL     1      -5.954   0.199   3.920  0.00  0.00    +0.177 HD
ENDROOT
BRANCH  13  19
ATOM     19  C   UNL     1      -5.098   1.668   2.253  0.00  0.00    +0.053 A 
ATOM     20  C   UNL     1      -5.039   2.779   3.084  0.00  0.00    +0.026 A 
ATOM     21  C   UNL     1      -6.053   3.717   3.052  0.00  0.00    +0.005 A 
ATOM     22  C   UNL     1      -7.125   3.550   2.195  0.00  0.00    -0.050 A 
ATOM     23  C   UNL     1      -7.186   2.445   1.367  0.00  0.00    +0.005 A 
ATOM     24  C   UNL     1      -6.173   1.506   1.389  0.00  0.00    +0.026 A 
ATOM     25  C   UNL     1      -8.228   4.576   2.163  0.00  0.00    +0.044 C 
ENDBRANCH  13  19
BRANCH   1  27
ATOM     26  C   UNL     1      -0.098   2.064   1.829  0.00  0.00    +0.005 C 
ATOM     27  C   UNL     1       0.347   0.662   1.405  0.00  0.00    +0.008 C 
ENDBRANCH   1  27
BRANCH  16  28
ATOM     28  N   UNL     1      -5.331  -1.530   4.862  0.00  0.00    -0.188 NA
ATOM     29  C   UNL     1      -6.366  -1.639   5.645  0.00  0.00    +0.137 C 
BRANCH  29  30
ATOM     30  C   UNL     1      -6.455  -2.720   6.557  0.00  0.00    +0.013 C 
ATOM     31  C   UNL     1      -5.461  -3.640   6.620  0.00  0.00    +0.020 C 
ATOM     32  C   UNL     1      -5.614  -4.754   7.571  0.00  0.00    +0.017 A 
ATOM     33  C   UNL     1      -4.529  -5.545   7.945  0.00  0.00    +0.011 A 
ATOM     34  C   UNL     1      -4.719  -6.579   8.840  0.00  0.00    +0.001 A 
ATOM     35  C   UNL     1      -5.976  -6.830   9.363  0.00  0.00    +0.004 A 
ATOM     36  C   UNL     1      -7.059  -6.050   8.998  0.00  0.00    +0.046 A 
ATOM     37  C   UNL     1      -6.889  -5.011   8.103  0.00  0.00    +0.128 A 
ATOM     38  O   UNL     1      -7.930  -4.228   7.724  0.00  0.00    -0.484 OA
ATOM     39  C   UNL     1      -7.651  -2.849   7.464  0.00  0.00    +0.202 C 
ATOM     40  C   UNL     1      -8.866  -2.206   6.793  0.00  0.00    +0.057 C 
ENDBRANCH  29  30
ENDBRANCH  16  28
TORSDOF 4
