REMARK  Name = ZINC13108925
REMARK  10 active torsions:
REMARK  status: ('A' for Active; 'I' for Inactive)
REMARK    1  A    between atoms: C_1  and  C_2
REMARK    2  A    between atoms: C_3  and  C_16
REMARK    3  A    between atoms: N_5  and  C_7
REMARK    4  A    between atoms: C_7  and  C_8
REMARK    5  A    between atoms: C_17  and  C_18
REMARK    6  A    between atoms: N_20  and  C_21
REMARK    7  A    between atoms: C_21  and  C_23
REMARK    8  A    between atoms: C_21  and  C_34
REMARK    9  A    between atoms: C_34  and  C_35
REMARK   10  A    between atoms: C_34  and  C_36
REMARK                            x       y       z     vdW  Elec       q    Type
REMARK                         _______ _______ _______ _____ _____    ______ ____
ROOT
ATOM      1  C   UNL     1      -0.016   1.344   0.009  0.00  0.00    +0.237 C 
ATOM      2  O   UNL     1      -1.079   1.938   0.018  0.00  0.00    -0.271 OA
ATOM      3  N   UNL     1       0.002  -0.004   0.002  0.00  0.00    -0.305 N 
ATOM      4  H   UNL     1       0.849  -0.478  -0.009  0.00  0.00    +0.150 HD
ENDROOT
BRANCH   1   6
ATOM      5  C   UNL     1       1.183   3.420   0.009  0.00  0.00    +0.018 C 
ATOM      6  C   UNL     1       1.202   2.069   0.002  0.00  0.00    +0.068 C 
BRANCH   5   9
ATOM      7  C   UNL     1       1.916   5.793  -1.966  0.00  0.00    +0.068 C 
ATOM      8  C   UNL     1       2.787   5.231  -0.872  0.00  0.00    +0.069 A 
ATOM      9  C   UNL     1       2.445   4.171   0.001  0.00  0.00    +0.034 A 
ATOM     10  C   UNL     1       3.527   3.973   0.843  0.00  0.00    +0.135 A 
ATOM     11  N   UNL     1       4.470   4.868   0.501  0.00  0.00    -0.248 N 
ATOM     12  N   UNL     1       3.986   5.639  -0.562  0.00  0.00    -0.174 NA
ATOM     13 CL   UNL     1       3.643   2.787   2.106  0.00  0.00    -0.062 Cl
BRANCH  11  14
ATOM     14  C   UNL     1       5.782   5.013   1.135  0.00  0.00    +0.180 C 
BRANCH  14  15
ATOM     15  C   UNL     1       6.781   4.132   0.428  0.00  0.00    -0.026 A 
ATOM     16  C   UNL     1       6.981   2.833   0.856  0.00  0.00    +0.007 A 
ATOM     17  C   UNL     1       7.892   2.023   0.205  0.00  0.00    +0.020 A 
ATOM     18  C   UNL     1       8.613   2.517  -0.868  0.00  0.00    +0.041 A 
ATOM     19  C   UNL     1       8.417   3.819  -1.292  0.00  0.00    +0.020 A 
ATOM     20  C   UNL     1       7.501   4.626  -0.643  0.00  0.00    +0.007 A 
ATOM     21 CL   UNL     1       9.763   1.502  -1.682  0.00  0.00    -0.084 Cl
ENDBRANCH  14  15
ENDBRANCH  11  14
ENDBRANCH   5   9
ENDBRANCH   1   6
BRANCH   3  22
ATOM     22  C   UNL     1      -1.256  -0.754   0.010  0.00  0.00    +0.106 C 
BRANCH  22  23
ATOM     23  C   UNL     1      -1.024  -2.120   0.601  0.00  0.00    -0.023 A 
ATOM     24  C   UNL     1       0.127  -2.820   0.287  0.00  0.00    +0.009 A 
ATOM     25  C   UNL     1       0.351  -4.072   0.831  0.00  0.00    +0.050 A 
ATOM     26  C   UNL     1      -0.589  -4.628   1.682  0.00  0.00    +0.162 A 
ATOM     27  C   UNL     1      -1.746  -3.929   1.992  0.00  0.00    +0.162 A 
ATOM     28  C   UNL     1      -1.964  -2.674   1.451  0.00  0.00    +0.055 A 
ATOM     29  O   UNL     1      -2.666  -4.486   2.833  0.00  0.00    -0.488 OA
ATOM     30  C   UNL     1      -3.365  -5.626   2.328  0.00  0.00    +0.232 C 
ATOM     31  C   UNL     1      -2.558  -6.895   2.550  0.00  0.00    +0.082 C 
ATOM     32  C   UNL     1      -1.257  -6.899   1.762  0.00  0.00    +0.232 C 
ATOM     33  O   UNL     1      -0.384  -5.865   2.220  0.00  0.00    -0.488 OA
ENDBRANCH  22  23
BRANCH  22  34
ATOM     34  C   UNL     1      -1.773  -0.899  -1.423  0.00  0.00    +0.008 C 
ATOM     35  C   UNL     1      -2.009   0.488  -2.023  0.00  0.00    +0.009 C 
ATOM     36  C   UNL     1      -0.738  -1.649  -2.264  0.00  0.00    +0.009 C 
ENDBRANCH  22  34
ENDBRANCH   3  22
TORSDOF 7
