REMARK  Name = ZINC43737077
REMARK  9 active torsions:
REMARK  status: ('A' for Active; 'I' for Inactive)
REMARK    1  A    between atoms: C_1  and  C_2
REMARK    2  A    between atoms: C_13  and  C_15
REMARK    3  A    between atoms: C_15  and  C_17
REMARK    4  A    between atoms: C_17  and  C_18
REMARK    5  A    between atoms: C_25  and  O_26
REMARK    6  A    between atoms: O_26  and  C_27
REMARK    7  A    between atoms: N_33  and  C_34
REMARK    8  A    between atoms: C_38  and  C_45
REMARK    9  A    between atoms: C_41  and  O_44
REMARK                            x       y       z     vdW  Elec       q    Type
REMARK                         _______ _______ _______ _____ _____    ______ ____
ROOT
ATOM      1  C   UNL     1      -1.839   1.939   0.020  0.00  0.00    +0.012 C 
ATOM      2  C   UNL     1      -1.278   0.501  -0.098  0.00  0.00    -0.019 C 
ATOM      3  C   UNL     1      -0.781   0.352  -1.509  0.00  0.00    +0.008 C 
ATOM      4  C   UNL     1       0.318  -0.658  -1.757  0.00  0.00    +0.005 C 
ATOM      5  C   UNL     1       1.366  -0.740  -0.657  0.00  0.00    +0.003 C 
ATOM      6  C   UNL     1       0.696  -0.841   0.702  0.00  0.00    +0.000 C 
ATOM      7  C   UNL     1      -0.190   0.364   0.982  0.00  0.00    -0.001 C 
ATOM      8  C   UNL     1      -1.006   0.073   2.269  0.00  0.00    +0.005 C 
ATOM      9  C   UNL     1      -2.220  -0.750   1.798  0.00  0.00    +0.012 C 
ATOM     10  C   UNL     1      -2.411  -0.444   0.299  0.00  0.00    +0.061 C 
ATOM     11  C   UNL     1       1.734  -1.043   1.800  0.00  0.00    +0.031 C 
ATOM     12  C   UNL     1       2.857  -0.061   1.664  0.00  0.00    -0.027 C 
ATOM     13  C   UNL     1       3.180   0.516   0.549  0.00  0.00    -0.065 C 
ATOM     14  C   UNL     1       2.456   0.299  -0.753  0.00  0.00    -0.008 C 
ATOM     15  C   UNL     1       3.494  -0.143  -1.798  0.00  0.00    +0.014 C 
ATOM     16  C   UNL     1       4.646   0.853  -1.873  0.00  0.00    +0.032 C 
ATOM     17  C   UNL     1       5.351   0.991  -0.526  0.00  0.00    +0.119 C 
ATOM     18  C   UNL     1       4.363   1.469   0.543  0.00  0.00    +0.062 C 
ATOM     19  C   UNL     1       1.900   1.649  -1.198  0.00  0.00    +0.016 C 
ENDROOT
BRANCH  10  20
ATOM     20  C   UNL     1      -2.422  -1.722  -0.490  0.00  0.00    +0.136 C 
ATOM     21  O   UNL     1      -1.766  -2.667  -0.120  0.00  0.00    -0.297 OA
BRANCH  20  22
ATOM     22  C   UNL     1      -3.251  -1.826  -1.744  0.00  0.00    +0.064 C 
BRANCH  22  23
ATOM     23  C   UNL     1      -3.215  -3.265  -2.263  0.00  0.00    -0.027 C 
ATOM     24  C   UNL     1      -3.630  -4.201  -1.158  0.00  0.00    -0.012 A 
ATOM     25  C   UNL     1      -2.987  -5.403  -0.945  0.00  0.00    -0.040 A 
ATOM     26  C   UNL     1      -3.402  -6.239   0.079  0.00  0.00    +0.053 A 
ATOM     27  C   UNL     1      -4.460  -5.878   0.896  0.00  0.00    +0.170 A 
ATOM     28  C   UNL     1      -5.110  -4.667   0.687  0.00  0.00    +0.208 A 
ATOM     29  C   UNL     1      -4.693  -3.832  -0.340  0.00  0.00    +0.167 A 
ATOM     30  O   UNL     1      -6.107  -4.540   1.612  0.00  0.00    -0.449 OA
ATOM     31  C   UNL     1      -6.323  -5.867   2.128  0.00  0.00    +0.467 C 
ATOM     32  O   UNL     1      -5.048  -6.513   1.952  0.00  0.00    -0.452 OA
ATOM     33  C   UNL     1      -1.828  -5.836  -1.806  0.00  0.00    +0.017 C 
ATOM     34  C   UNL     1      -1.794  -5.002  -3.087  0.00  0.00    -0.074 C 
ATOM     35  N   UNL     1      -1.858  -3.579  -2.721  0.00  0.00    +0.383 N 
ATOM     36  C   UNL     1      -1.532  -2.755  -3.893  0.00  0.00    -0.095 C 
ATOM     37  H   UNL     1      -1.200  -3.391  -1.980  0.00  0.00    -0.081 HD
BRANCH  29  38
ATOM     38  O   UNL     1      -5.326  -2.646  -0.548  0.00  0.00    -0.491 OA
ATOM     39  C   UNL     1      -6.441  -2.654  -1.442  0.00  0.00    +0.277 C 
ENDBRANCH  29  38
ENDBRANCH  22  23
ENDBRANCH  20  22
ENDBRANCH  10  20
BRANCH  17  40
ATOM     40  O   UNL     1       5.901  -0.270  -0.139  0.00  0.00    -0.391 OA
ATOM     41  H   UNL     1       6.364  -0.253   0.710  0.00  0.00    +0.210 HD
ENDBRANCH  17  40
TORSDOF 5
