REMARK  Name = ZINC05798919
REMARK  4 active torsions:
REMARK  status: ('A' for Active; 'I' for Inactive)
REMARK    1  A    between atoms: C_1  and  C_2
REMARK    2  A    between atoms: C_7  and  N_8
REMARK    3  A    between atoms: C_14  and  C_16
REMARK    4  A    between atoms: C_24  and  C_26
REMARK                            x       y       z     vdW  Elec       q    Type
REMARK                         _______ _______ _______ _____ _____    ______ ____
ROOT
ATOM      1  N   UNL     1      -3.349   1.646   5.459  0.00  0.00    -0.327 N 
ATOM      2  C   UNL     1      -3.153   0.478   4.590  0.00  0.00    +0.124 C 
ATOM      3  C   UNL     1      -1.701   0.446   4.102  0.00  0.00    +0.126 C 
ATOM      4  N   UNL     1      -1.388   1.742   3.481  0.00  0.00    -0.298 N 
ATOM      5  C   UNL     1      -1.680   2.966   4.242  0.00  0.00    +0.126 C 
ATOM      6  C   UNL     1      -3.138   2.900   4.722  0.00  0.00    +0.124 C 
ATOM      7  C   UNL     1      -0.843   1.805   2.250  0.00  0.00    +0.222 C 
ATOM      8  O   UNL     1      -0.604   0.785   1.639  0.00  0.00    -0.275 OA
ENDROOT
BRANCH   1  15
ATOM      9  C   UNL     1      -3.494   1.380   8.287  0.00  0.00    +0.045 C 
ATOM     10  C   UNL     1      -4.730   1.493   7.432  0.00  0.00    -0.029 A 
ATOM     11  C   UNL     1      -5.981   1.474   8.018  0.00  0.00    +0.006 A 
ATOM     12  C   UNL     1      -7.115   1.572   7.234  0.00  0.00    +0.020 A 
ATOM     13  C   UNL     1      -7.002   1.695   5.860  0.00  0.00    +0.043 A 
ATOM     14  C   UNL     1      -5.754   1.720   5.268  0.00  0.00    +0.043 A 
ATOM     15  C   UNL     1      -4.612   1.622   6.054  0.00  0.00    +0.034 A 
ATOM     16 CL   UNL     1      -8.430   1.819   4.880  0.00  0.00    -0.083 Cl
ENDBRANCH   1  15
BRANCH   7  17
ATOM     17  C   UNL     1      -0.530   3.144   1.633  0.00  0.00    +0.120 C 
ATOM     18  C   UNL     1       0.607   3.863   2.419  0.00  0.00    +0.131 C 
ATOM     19  C   UNL     1       1.697   2.774   2.654  0.00  0.00    +0.035 C 
ATOM     20  C   UNL     1       2.314   2.597   1.243  0.00  0.00    +0.035 C 
ATOM     21  C   UNL     1       1.499   3.607   0.381  0.00  0.00    +0.133 C 
ATOM     22  C   UNL     1       0.087   2.967   0.222  0.00  0.00    +0.145 C 
ATOM     23  O   UNL     1       1.226   4.663   1.359  0.00  0.00    -0.372 OA
BRANCH  22  24
ATOM     24  C   UNL     1      -0.720   3.706  -0.814  0.00  0.00    +0.362 C 
ATOM     25  O   UNL     1      -1.730   4.286  -0.493  0.00  0.00    -0.246 OA
ATOM     26  O   UNL     1      -0.317   3.719  -2.095  0.00  0.00    -0.246 OA
ENDBRANCH  22  24
ENDBRANCH   7  17
TORSDOF 3
