REMARK  Name = ZINC31854398
REMARK  7 active torsions:
REMARK  status: ('A' for Active; 'I' for Inactive)
REMARK    1  A    between atoms: C_1  and  C_2
REMARK    2  A    between atoms: C_2  and  C_3
REMARK    3  A    between atoms: C_2  and  C_4
REMARK    4  A    between atoms: C_7  and  C_10
REMARK    5  A    between atoms: N_11  and  N_12
REMARK    6  A    between atoms: C_15  and  C_18
REMARK    7  A    between atoms: C_22  and  N_24
REMARK                            x       y       z     vdW  Elec       q    Type
REMARK                         _______ _______ _______ _____ _____    ______ ____
ROOT
ATOM      1  N   UNL     1       1.993   8.294   0.677  0.00  0.00    -0.215 N 
ATOM      2  C   UNL     1       1.001   7.393   0.647  0.00  0.00    +0.178 A 
ATOM      3  N   UNL     1       1.013   6.129   1.081  0.00  0.00    -0.224 NA
ATOM      4  C   UNL     1      -0.043   5.378   0.978  0.00  0.00    +0.080 A 
ATOM      5  C   UNL     1      -1.236   5.987   0.358  0.00  0.00    +0.077 A 
ATOM      6  S   UNL     1      -0.657   7.589   0.017  0.00  0.00    -0.059 S 
ATOM      7  H   UNL     1       2.971   8.022   1.101  0.00  0.00    +0.176 HD
ENDROOT
BRANCH   4   8
ATOM      8  C   UNL     1      -0.047   3.982   1.451  0.00  0.00    +0.003 A 
ATOM      9  C   UNL     1      -1.201   3.198   1.325  0.00  0.00    +0.010 A 
ATOM     10  C   UNL     1      -1.194   1.893   1.764  0.00  0.00    +0.003 A 
ATOM     11  C   UNL     1      -0.053   1.358   2.341  0.00  0.00    +0.033 A 
ATOM     12  C   UNL     1       1.093   2.126   2.470  0.00  0.00    +0.127 A 
ATOM     13  C   UNL     1       1.104   3.432   2.030  0.00  0.00    +0.042 A 
BRANCH  12  14
ATOM     14  N   UNL     1       2.307   1.542   3.082  0.00  0.00    +0.056 N 
ATOM     15  O   UNL     1       2.298   0.295   3.503  0.00  0.00    -0.126 OA
ATOM     16  O   UNL     1       3.397   2.271   3.205  0.00  0.00    -0.126 OA
ENDBRANCH  12  14
ENDBRANCH   4   8
BRANCH   1  18
ATOM     17  C   UNL     1       2.809  10.328   0.126  0.00  0.00    +0.138 C 
ATOM     18  N   UNL     1       1.801   9.480   0.208  0.00  0.00    -0.188 NA
BRANCH  17  22
ATOM     19  C   UNL     1       6.790   8.887   0.079  0.00  0.00    -0.045 A 
ATOM     20  C   UNL     1       5.737   8.008  -0.123  0.00  0.00    +0.004 A 
ATOM     21  C   UNL     1       4.439   8.466  -0.110  0.00  0.00    +0.010 A 
ATOM     22  C   UNL     1       4.183   9.830   0.110  0.00  0.00    -0.005 A 
ATOM     23  C   UNL     1       5.258  10.714   0.309  0.00  0.00    +0.010 A 
ATOM     24  C   UNL     1       6.548  10.234   0.298  0.00  0.00    +0.004 A 
BRANCH  19  26
ATOM     25  C   UNL     1       8.991   9.077  -1.047  0.00  0.00    +0.012 C 
ATOM     26  C   UNL     1       8.207   8.374   0.062  0.00  0.00    +0.013 C 
ATOM     27  C   UNL     1       8.868   8.657   1.413  0.00  0.00    +0.012 C 
ENDBRANCH  19  26
ENDBRANCH  17  22
ENDBRANCH   1  18
TORSDOF 5
