REMARK  Name = ZINC20617058
REMARK  9 active torsions:
REMARK  status: ('A' for Active; 'I' for Inactive)
REMARK    1  A    between atoms: C_1  and  C_2
REMARK    2  A    between atoms: C_5  and  N_9
REMARK    3  A    between atoms: C_11  and  C_26
REMARK    4  A    between atoms: C_14  and  C_21
REMARK    5  A    between atoms: C_17  and  C_20
REMARK    6  A    between atoms: C_21  and  O_22
REMARK    7  A    between atoms: O_22  and  C_23
REMARK    8  A    between atoms: C_23  and  C_25
REMARK    9  A    between atoms: N_28  and  C_29
REMARK                            x       y       z     vdW  Elec       q    Type
REMARK                         _______ _______ _______ _____ _____    ______ ____
ROOT
ATOM      1  N   UNL     1       5.053   4.130   0.360  0.00  0.00    -0.325 N 
ATOM      2  C   UNL     1       4.901   5.297  -0.225  0.00  0.00    +0.212 A 
ATOM      3  C   UNL     1       3.596   5.987  -0.214  0.00  0.00    +0.098 A 
ATOM      4  C   UNL     1       3.608   7.361  -0.311  0.00  0.00    +0.030 A 
ATOM      5  C   UNL     1       4.913   8.015  -0.426  0.00  0.00    +0.028 A 
ATOM      6  C   UNL     1       5.061   9.398  -0.268  0.00  0.00    +0.018 A 
ATOM      7  C   UNL     1       6.324   9.942  -0.387  0.00  0.00    +0.118 A 
ATOM      8  N   UNL     1       7.374   9.184  -0.644  0.00  0.00    -0.256 NA
ATOM      9  C   UNL     1       7.285   7.879  -0.802  0.00  0.00    +0.081 A 
ATOM     10  C   UNL     1       6.057   7.242  -0.701  0.00  0.00    +0.159 A 
ATOM     11  O   UNL     1       5.939   5.903  -0.864  0.00  0.00    -0.437 OA
ATOM     12  C   UNL     1       8.526   7.074  -1.093  0.00  0.00    +0.069 C 
ATOM     13  H   UNL     1       4.226   3.692   0.938  0.00  0.00    +0.169 HD
ENDROOT
BRANCH   1  18
ATOM     14  C   UNL     1       9.952   1.361  -0.095  0.00  0.00    +0.047 C 
ATOM     15  C   UNL     1       8.645   2.100   0.027  0.00  0.00    -0.015 A 
ATOM     16  C   UNL     1       7.685   1.969  -0.961  0.00  0.00    +0.008 A 
ATOM     17  C   UNL     1       6.484   2.639  -0.853  0.00  0.00    +0.026 A 
ATOM     18  C   UNL     1       6.240   3.459   0.251  0.00  0.00    +0.045 A 
ATOM     19  C   UNL     1       7.212   3.588   1.246  0.00  0.00    +0.064 A 
ATOM     20  C   UNL     1       8.409   2.907   1.129  0.00  0.00    +0.128 A 
ATOM     21  F   UNL     1       9.351   3.030   2.089  0.00  0.00    -0.205 F 
ENDBRANCH   1  18
BRANCH   3  22
ATOM     22  C   UNL     1       2.332   5.237  -0.097  0.00  0.00    +0.253 C 
ATOM     23  O   UNL     1       1.271   5.831  -0.084  0.00  0.00    -0.270 OA
ATOM     24  N   UNL     1       2.353   3.893  -0.003  0.00  0.00    -0.279 N 
ATOM     25  H   UNL     1       3.313   3.360   0.059  0.00  0.00    +0.155 HD
BRANCH  24  26
ATOM     26  C   UNL     1       1.152   3.174   0.015  0.00  0.00    +0.069 A 
ATOM     27  C   UNL     1       0.030   3.709   0.634  0.00  0.00    +0.026 A 
ATOM     28  C   UNL     1      -1.153   2.997   0.650  0.00  0.00    +0.002 A 
ATOM     29  C   UNL     1      -1.224   1.755   0.047  0.00  0.00    +0.003 A 
ATOM     30  C   UNL     1      -0.109   1.215  -0.566  0.00  0.00    +0.040 A 
ATOM     31  C   UNL     1       1.080   1.922  -0.587  0.00  0.00    +0.144 A 
ATOM     32  F   UNL     1       2.169   1.397  -1.190  0.00  0.00    -0.204 F 
ENDBRANCH  24  26
ENDBRANCH   3  22
BRANCH   6  33
ATOM     33  C   UNL     1       3.869  10.273   0.024  0.00  0.00    +0.269 C 
BRANCH  33  34
ATOM     34  O   UNL     1       4.300  11.655   0.139  0.00  0.00    -0.460 OA
BRANCH  34  35
ATOM     35  C   UNL     1       3.352  12.569   0.400  0.00  0.00    +0.304 C 
ATOM     36  O   UNL     1       2.201  12.225   0.529  0.00  0.00    -0.251 OA
ATOM     37  C   UNL     1       3.724  14.023   0.533  0.00  0.00    +0.136 C 
ENDBRANCH  34  35
ENDBRANCH  33  34
ENDBRANCH   6  33
TORSDOF 6
