REMARK  Name = ZINC08427161
REMARK  12 active torsions:
REMARK  status: ('A' for Active; 'I' for Inactive)
REMARK    1  A    between atoms: C_1  and  N_2
REMARK    2  A    between atoms: N_2  and  C_3
REMARK    3  A    between atoms: N_2  and  C_4
REMARK    4  A    between atoms: C_7  and  C_10
REMARK    5  A    between atoms: C_11  and  C_12
REMARK    6  A    between atoms: C_11  and  N_26
REMARK    7  A    between atoms: N_14  and  N_15
REMARK    8  A    between atoms: C_16  and  C_17
REMARK    9  A    between atoms: C_19  and  O_24
REMARK   10  A    between atoms: C_22  and  O_23
REMARK   11  A    between atoms: O_24  and  C_25
REMARK   12  A    between atoms: C_27  and  C_29
REMARK                            x       y       z     vdW  Elec       q    Type
REMARK                         _______ _______ _______ _____ _____    ______ ____
ROOT
ATOM      1  C   UNL     1      -0.052  -2.825  -4.889  0.00  0.00    +0.036 C 
ATOM      2  C   UNL     1      -0.122  -2.066  -6.009  0.00  0.00    +0.098 C 
ENDROOT
BRANCH   1   6
ATOM      3  C   UNL     1      -0.404  -1.010  -1.072  0.00  0.00    +0.029 A 
ATOM      4  C   UNL     1       0.244  -2.235  -1.201  0.00  0.00    +0.023 A 
ATOM      5  C   UNL     1       0.360  -2.828  -2.437  0.00  0.00    +0.010 A 
ATOM      6  C   UNL     1      -0.174  -2.196  -3.567  0.00  0.00    -0.023 A 
ATOM      7  C   UNL     1      -0.826  -0.964  -3.433  0.00  0.00    +0.010 A 
ATOM      8  C   UNL     1      -0.942  -0.381  -2.192  0.00  0.00    +0.023 A 
BRANCH   3  10
ATOM      9  C   UNL     1      -1.206   0.873   0.320  0.00  0.00    +0.129 C 
ATOM     10  N   UNL     1      -0.519  -0.414   0.181  0.00  0.00    -0.336 N 
ATOM     11  C   UNL     1       0.046  -1.074   1.361  0.00  0.00    +0.129 C 
ENDBRANCH   3  10
ENDBRANCH   1   6
BRANCH   2  12
ATOM     12  C   UNL     1      -0.164  -2.706  -7.329  0.00  0.00    +0.277 C 
ATOM     13  O   UNL     1      -0.247  -3.918  -7.415  0.00  0.00    -0.267 OA
ATOM     14  N   UNL     1      -0.110  -1.954  -8.445  0.00  0.00    -0.202 N 
ATOM     15  H   UNL     1       0.031  -0.996  -8.379  0.00  0.00    +0.178 HD
BRANCH  14  16
ATOM     16  N   UNL     1      -0.256  -2.554  -9.703  0.00  0.00    -0.187 NA
ATOM     17  C   UNL     1      -0.204  -1.829 -10.778  0.00  0.00    +0.142 C 
BRANCH  17  18
ATOM     18  C   UNL     1      -0.358  -2.461 -12.101  0.00  0.00    +0.039 A 
ATOM     19  C   UNL     1      -0.296  -1.685 -13.261  0.00  0.00    +0.058 A 
ATOM     20  C   UNL     1      -0.441  -2.285 -14.499  0.00  0.00    +0.121 A 
ATOM     21  C   UNL     1      -0.648  -3.655 -14.590  0.00  0.00    +0.049 A 
ATOM     22  C   UNL     1      -0.710  -4.429 -13.447  0.00  0.00    +0.049 A 
ATOM     23  C   UNL     1      -0.561  -3.844 -12.201  0.00  0.00    +0.126 A 
BRANCH  23  24
ATOM     24  O   UNL     1      -0.617  -4.607 -11.079  0.00  0.00    -0.506 OA
ATOM     25  H   UNL     1      -1.507  -4.703 -10.712  0.00  0.00    +0.292 HD
ENDBRANCH  23  24
BRANCH  20  26
ATOM     26  O   UNL     1      -0.382  -1.531 -15.629  0.00  0.00    -0.495 OA
ATOM     27  C   UNL     1      -0.539  -2.215 -16.874  0.00  0.00    +0.277 C 
ENDBRANCH  20  26
ENDBRANCH  17  18
ENDBRANCH  14  16
ENDBRANCH   2  12
BRANCH   2  28
ATOM     28  N   UNL     1      -0.155  -0.670  -5.908  0.00  0.00    -0.277 N 
ATOM     29  C   UNL     1      -1.158   0.024  -6.481  0.00  0.00    +0.248 C 
ATOM     30  O   UNL     1      -2.079  -0.566  -7.012  0.00  0.00    -0.270 OA
ATOM     31  H   UNL     1       0.544  -0.203  -5.425  0.00  0.00    +0.155 HD
BRANCH  29  32
ATOM     32  C   UNL     1      -1.138   1.502  -6.465  0.00  0.00    +0.037 A 
ATOM     33  C   UNL     1      -0.078   2.182  -5.861  0.00  0.00    +0.013 A 
ATOM     34  C   UNL     1      -0.065   3.561  -5.849  0.00  0.00    +0.001 A 
ATOM     35  C   UNL     1      -1.099   4.271  -6.434  0.00  0.00    +0.000 A 
ATOM     36  C   UNL     1      -2.153   3.603  -7.034  0.00  0.00    +0.001 A 
ATOM     37  C   UNL     1      -2.175   2.224  -7.057  0.00  0.00    +0.013 A 
ENDBRANCH  29  32
ENDBRANCH   2  28
TORSDOF 9
