REMARK  Name = ZINC38925703
REMARK  8 active torsions:
REMARK  status: ('A' for Active; 'I' for Inactive)
REMARK    1  A    between atoms: C_1  and  O_2
REMARK    2  A    between atoms: O_2  and  C_3
REMARK    3  A    between atoms: C_6  and  C_11
REMARK    4  A    between atoms: C_8  and  O_9
REMARK    5  A    between atoms: O_9  and  C_10
REMARK    6  A    between atoms: N_17  and  N_18
REMARK    7  A    between atoms: C_19  and  C_20
REMARK    8  A    between atoms: C_25  and  O_26
REMARK                            x       y       z     vdW  Elec       q    Type
REMARK                         _______ _______ _______ _____ _____    ______ ____
ROOT
ATOM      1  C   UNL     1       2.504  -2.563  -4.533  0.00  0.00    +0.264 C 
ATOM      2  N   UNL     1       3.152  -3.752  -3.958  0.00  0.00    -0.189 NA
ATOM      3  N   UNL     1       4.370  -3.554  -3.940  0.00  0.00    -0.219 N 
ATOM      4  C   UNL     1       4.727  -2.340  -4.439  0.00  0.00    +0.174 C 
ATOM      5  S   UNL     1       6.334  -1.761  -4.553  0.00  0.00    -0.015 S 
ATOM      6  N   UNL     1       3.627  -1.655  -4.834  0.00  0.00    -0.172 N 
ATOM      7  H   UNL     1       5.009  -4.200  -3.603  0.00  0.00    +0.176 HD
ENDROOT
BRANCH   1  11
ATOM      8  C   UNL     1      -0.147  -0.773  -1.694  0.00  0.00    +0.162 A 
ATOM      9  C   UNL     1       0.540   0.019  -2.600  0.00  0.00    +0.050 A 
ATOM     10  C   UNL     1       1.397  -0.562  -3.516  0.00  0.00    +0.011 A 
ATOM     11  C   UNL     1       1.569  -1.934  -3.531  0.00  0.00    +0.001 A 
ATOM     12  C   UNL     1       0.886  -2.730  -2.631  0.00  0.00    +0.056 A 
ATOM     13  C   UNL     1       0.031  -2.153  -1.706  0.00  0.00    +0.162 A 
BRANCH   8  15
ATOM     14  C   UNL     1      -1.123   1.220  -0.838  0.00  0.00    +0.277 C 
ATOM     15  O   UNL     1      -0.990  -0.202  -0.792  0.00  0.00    -0.491 OA
ENDBRANCH   8  15
BRANCH  13  16
ATOM     16  O   UNL     1      -0.637  -2.934  -0.815  0.00  0.00    -0.491 OA
ATOM     17  C   UNL     1      -0.405  -4.342  -0.886  0.00  0.00    +0.277 C 
ENDBRANCH  13  16
ENDBRANCH   1  11
BRANCH   6  18
ATOM     18  N   UNL     1       3.567  -0.375  -5.399  0.00  0.00    -0.183 NA
ATOM     19  C   UNL     1       4.662   0.253  -5.704  0.00  0.00    +0.142 C 
BRANCH  19  20
ATOM     20  C   UNL     1       4.609   1.657  -6.144  0.00  0.00    +0.037 A 
ATOM     21  C   UNL     1       5.784   2.334  -6.478  0.00  0.00    +0.028 A 
ATOM     22  C   UNL     1       5.727   3.650  -6.891  0.00  0.00    +0.019 A 
ATOM     23  C   UNL     1       4.508   4.302  -6.976  0.00  0.00    +0.019 A 
ATOM     24  C   UNL     1       3.338   3.643  -6.648  0.00  0.00    +0.047 A 
ATOM     25  C   UNL     1       3.377   2.320  -6.237  0.00  0.00    +0.126 A 
ATOM     26 BR   UNL     1       7.318   4.566  -7.342  0.00  0.00    -0.050 Br
BRANCH  25  27
ATOM     27  O   UNL     1       2.227   1.670  -5.921  0.00  0.00    -0.506 OA
ATOM     28  H   UNL     1       1.975   1.748  -4.991  0.00  0.00    +0.292 HD
ENDBRANCH  25  27
ENDBRANCH  19  20
ENDBRANCH   6  18
TORSDOF 6
