REMARK  Name = ZINC24886544
REMARK  10 active torsions:
REMARK  status: ('A' for Active; 'I' for Inactive)
REMARK    1  A    between atoms: C_1  and  C_2
REMARK    2  A    between atoms: N_7  and  C_9
REMARK    3  A    between atoms: C_9  and  C_10
REMARK    4  A    between atoms: N_15  and  C_16
REMARK    5  A    between atoms: C_16  and  C_18
REMARK    6  A    between atoms: C_18  and  C_20
REMARK    7  A    between atoms: C_18  and  N_23
REMARK    8  A    between atoms: C_20  and  C_21
REMARK    9  A    between atoms: C_20  and  C_22
REMARK   10  A    between atoms: C_24  and  C_26
REMARK                            x       y       z     vdW  Elec       q    Type
REMARK                         _______ _______ _______ _____ _____    ______ ____
ROOT
ATOM      1  C   UNL     1      -0.790  -8.080   2.805  0.00  0.00    +0.259 C 
ATOM      2  O   UNL     1       0.330  -8.550   2.744  0.00  0.00    -0.272 OA
ENDROOT
BRANCH   1   8
ATOM      3  C   UNL     1       1.321  -3.966   2.518  0.00  0.00    +0.008 A 
ATOM      4  C   UNL     1       2.416  -4.733   2.469  0.00  0.00    +0.067 A 
ATOM      5  S   UNL     1       1.724  -6.373   2.573  0.00  0.00    -0.061 S 
ATOM      6  C   UNL     1       0.097  -5.957   2.671  0.00  0.00    +0.163 A 
ATOM      7  N   UNL     1       0.122  -4.598   2.628  0.00  0.00    -0.341 N 
ATOM      8  N   UNL     1      -0.961  -6.764   2.772  0.00  0.00    -0.155 NA
ATOM      9  H   UNL     1      -0.702  -4.088   2.672  0.00  0.00    +0.167 HD
BRANCH   3  10
ATOM     10  C   UNL     1       1.413  -2.463   2.461  0.00  0.00    -0.024 C 
BRANCH  10  16
ATOM     11  C   UNL     1      -0.019   1.526   0.010  0.00  0.00    +0.005 C 
ATOM     12  C   UNL     1       0.002  -0.004   0.002  0.00  0.00    -0.031 C 
ATOM     13  C   UNL     1       0.721  -0.499  -1.257  0.00  0.00    -0.001 C 
ATOM     14  C   UNL     1       0.805  -2.027  -1.217  0.00  0.00    -0.018 C 
ATOM     15  C   UNL     1       1.518  -2.460   0.066  0.00  0.00    -0.078 C 
ATOM     16  N   UNL     1       0.768  -1.979   1.233  0.00  0.00    +0.384 N 
ATOM     17  C   UNL     1       0.744  -0.512   1.240  0.00  0.00    -0.075 C 
ATOM     18  H   UNL     1      -0.177  -2.330   1.192  0.00  0.00    -0.081 HD
ENDBRANCH  10  16
ENDBRANCH   3  10
ENDBRANCH   1   8
BRANCH   1  19
ATOM     19  C   UNL     1      -1.985  -8.991   2.918  0.00  0.00    +0.164 C 
BRANCH  19  20
ATOM     20  N   UNL     1      -1.535 -10.386   2.935  0.00  0.00    -0.300 N 
ATOM     21  C   UNL     1      -2.367 -11.367   2.530  0.00  0.00    +0.246 C 
ATOM     22  O   UNL     1      -3.490 -11.094   2.152  0.00  0.00    -0.270 OA
ATOM     23  H   UNL     1      -0.639 -10.603   3.236  0.00  0.00    +0.150 HD
BRANCH  21  24
ATOM     24  C   UNL     1      -1.913 -12.772   2.547  0.00  0.00    +0.055 A 
ATOM     25  C   UNL     1      -0.626 -13.089   2.986  0.00  0.00    +0.016 A 
ATOM     26  C   UNL     1      -0.208 -14.402   3.000  0.00  0.00    +0.021 A 
ATOM     27  C   UNL     1      -1.062 -15.409   2.578  0.00  0.00    +0.042 A 
ATOM     28  C   UNL     1      -2.340 -15.103   2.141  0.00  0.00    +0.040 A 
ATOM     29  C   UNL     1      -2.773 -13.792   2.129  0.00  0.00    +0.054 A 
ATOM     30 CL   UNL     1      -4.377 -13.410   1.588  0.00  0.00    -0.083 Cl
ATOM     31 CL   UNL     1      -0.528 -17.060   2.598  0.00  0.00    -0.083 Cl
ENDBRANCH  21  24
ENDBRANCH  19  20
BRANCH  19  32
ATOM     32  C   UNL     1      -2.740  -8.684   4.213  0.00  0.00    +0.012 C 
ATOM     33  C   UNL     1      -1.781  -8.785   5.400  0.00  0.00    +0.009 C 
ATOM     34  C   UNL     1      -3.317  -7.268   4.143  0.00  0.00    +0.009 C 
ENDBRANCH  19  32
ENDBRANCH   1  19
TORSDOF 7
