REMARK  Name = ZINC08856089
REMARK  7 active torsions:
REMARK  status: ('A' for Active; 'I' for Inactive)
REMARK    1  A    between atoms: C_8  and  O_18
REMARK    2  A    between atoms: C_10  and  O_12
REMARK    3  A    between atoms: O_12  and  C_13
REMARK    4  A    between atoms: C_13  and  C_14
REMARK    5  A    between atoms: O_18  and  C_19
REMARK    6  A    between atoms: C_19  and  C_20
REMARK    7  A    between atoms: C_24  and  N_61
REMARK                            x       y       z     vdW  Elec       q    Type
REMARK                         _______ _______ _______ _____ _____    ______ ____
ROOT
ATOM      1  C   UNL     1      -0.916   3.097   5.897  0.00  0.00    +0.089 C 
ATOM      2  C   UNL     1      -1.650   3.506   7.175  0.00  0.00    -0.059 C 
ATOM      3  C   UNL     1      -0.797   1.538   8.296  0.00  0.00    -0.059 C 
ATOM      4  C   UNL     1      -0.062   1.129   7.017  0.00  0.00    +0.089 C 
ATOM      5  N   UNL     1      -0.798   1.633   5.849  0.00  0.00    -0.303 N 
ATOM      6  C   UNL     1      -0.203   1.222   4.674  0.00  0.00    +0.226 A 
ATOM      7  N   UNL     1       0.892   0.470   4.711  0.00  0.00    -0.161 NA
ATOM      8  C   UNL     1       1.464   0.075   3.580  0.00  0.00    +0.326 A 
ATOM      9  N   UNL     1       0.940   0.428   2.412  0.00  0.00    -0.141 NA
ATOM     10  C   UNL     1      -0.151   1.184   2.374  0.00  0.00    +0.326 A 
ATOM     11  N   UNL     1      -0.725   1.579   3.504  0.00  0.00    -0.161 NA
ATOM     12  N   UNL     1      -0.888   3.012   8.341  0.00  0.00    +0.385 N 
ATOM     13  H   UNL     1       0.060   3.406   8.312  0.00  0.00    -0.081 HD
ENDROOT
BRANCH  12  14
ATOM     14  C   UNL     1      -1.548   3.439   9.594  0.00  0.00    -0.065 C 
ATOM     15  C   UNL     1      -2.948   2.832   9.696  0.00  0.00    -0.009 C 
ATOM     16  C   UNL     1      -3.608   3.287  10.999  0.00  0.00    -0.012 C 
ATOM     17  C   UNL     1      -3.712   4.813  11.011  0.00  0.00    +0.007 C 
ATOM     18  C   UNL     1      -2.312   5.421  10.909  0.00  0.00    -0.012 C 
ATOM     19  C   UNL     1      -1.652   4.966   9.606  0.00  0.00    -0.009 C 
ATOM     20  C   UNL     1      -1.467   4.958  12.098  0.00  0.00    +0.007 C 
ATOM     21  C   UNL     1      -1.363   3.432  12.086  0.00  0.00    -0.012 C 
ATOM     22  C   UNL     1      -2.763   2.824  12.188  0.00  0.00    +0.007 C 
ATOM     23  C   UNL     1      -0.703   2.976  10.783  0.00  0.00    -0.009 C 
ENDBRANCH  12  14
BRANCH  10  24
ATOM     24  O   UNL     1      -0.682   1.547   1.184  0.00  0.00    -0.453 OA
BRANCH  24  25
ATOM     25  C   UNL     1      -0.013   1.086   0.008  0.00  0.00    +0.345 C 
BRANCH  25  26
ATOM     26  C   UNL     1      -0.753   1.593  -1.232  0.00  0.00    +0.424 C 
ATOM     27  F   UNL     1      -0.772   2.991  -1.224  0.00  0.00    -0.167 F 
ATOM     28  F   UNL     1      -0.098   1.141  -2.382  0.00  0.00    -0.167 F 
ATOM     29  F   UNL     1      -2.065   1.108  -1.222  0.00  0.00    -0.167 F 
ENDBRANCH  25  26
ENDBRANCH  24  25
ENDBRANCH  10  24
BRANCH   8  30
ATOM     30  O   UNL     1       2.579  -0.691   3.617  0.00  0.00    -0.453 OA
BRANCH  30  31
ATOM     31  C   UNL     1       3.142  -1.079   2.362  0.00  0.00    +0.345 C 
BRANCH  31  32
ATOM     32  C   UNL     1       4.387  -1.934   2.604  0.00  0.00    +0.424 C 
ATOM     33  F   UNL     1       4.034  -3.077   3.330  0.00  0.00    -0.167 F 
ATOM     34  F   UNL     1       4.938  -2.314   1.376  0.00  0.00    -0.167 F 
ATOM     35  F   UNL     1       5.328  -1.194   3.329  0.00  0.00    -0.167 F 
ENDBRANCH  31  32
ENDBRANCH  30  31
ENDBRANCH   8  30
TORSDOF 7
