REMARK  Name = ZINC02758108
REMARK  11 active torsions:
REMARK  status: ('A' for Active; 'I' for Inactive)
REMARK    1  A    between atoms: C_1  and  C_2
REMARK    2  A    between atoms: C_3  and  C_35
REMARK    3  A    between atoms: C_4  and  C_21
REMARK    4  A    between atoms: C_10  and  C_15
REMARK    5  A    between atoms: C_24  and  O_27
REMARK    6  A    between atoms: O_27  and  C_28
REMARK    7  A    between atoms: C_28  and  C_29
REMARK    8  A    between atoms: C_35  and  O_37
REMARK    9  A    between atoms: O_37  and  C_38
REMARK   10  A    between atoms: C_38  and  C_39
REMARK   11  A    between atoms: C_38  and  C_40
REMARK                            x       y       z     vdW  Elec       q    Type
REMARK                         _______ _______ _______ _____ _____    ______ ____
ROOT
ATOM      1  C   UNL     1      -4.899   3.980   0.811  0.00  0.00    +0.061 C 
ATOM      2  C   UNL     1      -3.668   3.207   0.413  0.00  0.00    +0.016 C 
ATOM      3  C   UNL     1      -3.596   1.889   0.667  0.00  0.00    +0.065 C 
ATOM      4  C   UNL     1      -2.389   1.086   0.280  0.00  0.00    +0.092 C 
ATOM      5  C   UNL     1      -1.206   1.983   0.015  0.00  0.00    +0.024 C 
ATOM      6  C   UNL     1      -1.379   3.302  -0.215  0.00  0.00    +0.016 C 
ATOM      7  N   UNL     1      -2.632   3.853  -0.193  0.00  0.00    -0.321 N 
ATOM      8  C   UNL     1      -0.202   4.200  -0.505  0.00  0.00    +0.059 C 
ATOM      9  C   UNL     1       1.036   3.677   0.226  0.00  0.00    +0.032 C 
ATOM     10  C   UNL     1       1.304   2.241  -0.237  0.00  0.00    +0.088 C 
ATOM     11  C   UNL     1       0.077   1.408   0.016  0.00  0.00    +0.162 C 
ATOM     12  O   UNL     1       0.197   0.216   0.220  0.00  0.00    -0.292 OA
ATOM     13  H   UNL     1      -2.797   4.830  -0.672  0.00  0.00    +0.152 HD
ENDROOT
BRANCH   9  14
ATOM     14  C   UNL     1       2.223   4.545  -0.103  0.00  0.00    -0.044 A 
ATOM     15  C   UNL     1       2.633   4.686  -1.416  0.00  0.00    +0.004 A 
ATOM     16  C   UNL     1       3.720   5.485  -1.719  0.00  0.00    +0.000 A 
ATOM     17  C   UNL     1       4.402   6.136  -0.708  0.00  0.00    +0.000 A 
ATOM     18  C   UNL     1       3.995   5.992   0.605  0.00  0.00    +0.000 A 
ATOM     19  C   UNL     1       2.906   5.196   0.907  0.00  0.00    +0.004 A 
ENDBRANCH   9  14
BRANCH   4  20
ATOM     20  C   UNL     1      -2.700   0.296  -0.965  0.00  0.00    -0.035 A 
ATOM     21  C   UNL     1      -3.034   0.953  -2.134  0.00  0.00    +0.008 A 
ATOM     22  C   UNL     1      -3.314   0.231  -3.278  0.00  0.00    +0.046 A 
ATOM     23  C   UNL     1      -3.271  -1.155  -3.250  0.00  0.00    +0.121 A 
ATOM     24  C   UNL     1      -2.941  -1.813  -2.074  0.00  0.00    +0.046 A 
ATOM     25  C   UNL     1      -2.656  -1.086  -0.934  0.00  0.00    +0.008 A 
BRANCH  23  26
ATOM     26  O   UNL     1      -3.551  -1.868  -4.372  0.00  0.00    -0.487 OA
BRANCH  26  27
ATOM     27  C   UNL     1      -3.883  -1.125  -5.547  0.00  0.00    +0.264 C 
BRANCH  27  28
ATOM     28  C   UNL     1      -4.160  -2.076  -6.682  0.00  0.00    -0.010 A 
ATOM     29  C   UNL     1      -3.132  -2.478  -7.514  0.00  0.00    +0.007 A 
ATOM     30  C   UNL     1      -3.385  -3.355  -8.552  0.00  0.00    +0.000 A 
ATOM     31  C   UNL     1      -4.668  -3.822  -8.765  0.00  0.00    +0.000 A 
ATOM     32  C   UNL     1      -5.698  -3.416  -7.937  0.00  0.00    +0.000 A 
ATOM     33  C   UNL     1      -5.444  -2.543  -6.895  0.00  0.00    +0.007 A 
ENDBRANCH  27  28
ENDBRANCH  26  27
ENDBRANCH  23  26
ENDBRANCH   4  20
BRANCH   3  34
ATOM     34  C   UNL     1      -4.679   1.247   1.312  0.00  0.00    +0.338 C 
ATOM     35  O   UNL     1      -5.609   1.904   1.741  0.00  0.00    -0.245 OA
BRANCH  34  36
ATOM     36  O   UNL     1      -4.681  -0.096   1.452  0.00  0.00    -0.459 OA
BRANCH  36  37
ATOM     37  C   UNL     1      -5.806  -0.677   2.113  0.00  0.00    +0.171 C 
ATOM     38  C   UNL     1      -6.047  -2.086   1.566  0.00  0.00    +0.052 C 
ATOM     39  C   UNL     1      -5.531  -0.754   3.616  0.00  0.00    +0.052 C 
ENDBRANCH  36  37
ENDBRANCH  34  36
ENDBRANCH   3  34
TORSDOF 8
