REMARK  Name = ZINC22258127
REMARK  10 active torsions:
REMARK  status: ('A' for Active; 'I' for Inactive)
REMARK    1  A    between atoms: C_1  and  C_2
REMARK    2  A    between atoms: C_4  and  C_9
REMARK    3  A    between atoms: C_5  and  S_7
REMARK    4  A    between atoms: S_7  and  C_8
REMARK    5  A    between atoms: C_11  and  C_34
REMARK    6  A    between atoms: C_12  and  N_33
REMARK    7  A    between atoms: N_13  and  C_23
REMARK    8  A    between atoms: C_19  and  C_21
REMARK    9  A    between atoms: C_19  and  C_22
REMARK   10  A    between atoms: C_26  and  N_30
REMARK                            x       y       z     vdW  Elec       q    Type
REMARK                         _______ _______ _______ _____ _____    ______ ____
ROOT
ATOM      1  C   UNL     1      -4.330  -0.400  -0.056  0.00  0.00    +0.099 C 
ATOM      2  C   UNL     1      -4.029   0.166   1.301  0.00  0.00    +0.077 C 
ATOM      3  C   UNL     1      -3.107   1.149   1.460  0.00  0.00    +0.107 C 
ATOM      4  N   UNL     1      -2.442   1.659   0.368  0.00  0.00    -0.259 N 
ATOM      5  C   UNL     1      -2.945   1.488  -0.895  0.00  0.00    +0.025 C 
ATOM      6  C   UNL     1      -3.851   0.521  -1.149  0.00  0.00    +0.025 C 
ATOM      7  C   UNL     1      -4.373   0.339  -2.442  0.00  0.00    +0.162 C 
ATOM      8  O   UNL     1      -5.202  -0.528  -2.634  0.00  0.00    -0.292 OA
ATOM      9  C   UNL     1      -3.925   1.199  -3.592  0.00  0.00    +0.086 C 
ATOM     10  C   UNL     1      -2.492   1.674  -3.330  0.00  0.00    -0.023 C 
ATOM     11  C   UNL     1      -2.463   2.410  -1.988  0.00  0.00    +0.058 C 
ATOM     12  C   UNL     1      -1.552   0.468  -3.275  0.00  0.00    +0.011 C 
ATOM     13  C   UNL     1      -2.050   2.619  -4.449  0.00  0.00    +0.011 C 
ENDROOT
BRANCH   4  14
ATOM     14  C   UNL     1      -1.239   2.352   0.549  0.00  0.00    +0.058 A 
ATOM     15  C   UNL     1      -0.030   1.671   0.508  0.00  0.00    +0.027 A 
ATOM     16  C   UNL     1       1.155   2.357   0.693  0.00  0.00    +0.034 A 
ATOM     17  C   UNL     1       1.138   3.722   0.913  0.00  0.00    +0.128 A 
ATOM     18  C   UNL     1      -0.063   4.405   0.950  0.00  0.00    +0.054 A 
ATOM     19  C   UNL     1      -1.252   3.725   0.766  0.00  0.00    +0.065 A 
ATOM     20 CL   UNL     1      -2.761   4.583   0.812  0.00  0.00    -0.082 Cl
BRANCH  17  21
ATOM     21  N   UNL     1       2.410   4.453   1.111  0.00  0.00    +0.056 N 
ATOM     22  O   UNL     1       2.397   5.656   1.306  0.00  0.00    -0.126 OA
ATOM     23  O   UNL     1       3.469   3.853   1.079  0.00  0.00    -0.126 OA
ENDBRANCH  17  21
ENDBRANCH   4  14
BRANCH   1  27
ATOM     24  C   UNL     1      -0.213  -3.386  -0.328  0.00  0.00    +0.051 C 
ATOM     25  C   UNL     1      -1.679  -3.036  -0.313  0.00  0.00    -0.012 A 
ATOM     26  C   UNL     1      -2.263  -1.821  -0.189  0.00  0.00    +0.016 A 
ATOM     27  C   UNL     1      -3.644  -1.734  -0.198  0.00  0.00    -0.014 A 
ATOM     28  C   UNL     1      -4.372  -2.877  -0.343  0.00  0.00    +0.049 A 
ATOM     29  S   UNL     1      -3.092  -4.116  -0.463  0.00  0.00    -0.087 S 
BRANCH  28  30
ATOM     30  S   UNL     1      -6.121  -3.080  -0.398  0.00  0.00    -0.121 S 
ATOM     31  C   UNL     1      -6.350  -4.867  -0.609  0.00  0.00    +0.090 C 
ENDBRANCH  28  30
ENDBRANCH   1  27
BRANCH   3  32
ATOM     32  N   UNL     1      -2.841   1.639   2.716  0.00  0.00    -0.345 N 
ATOM     33  H   UNL     1      -2.094   2.435   2.849  0.00  0.00    +0.144 HD
ATOM     34  H   UNL     1      -3.375   1.234   3.589  0.00  0.00    +0.144 HD
ENDBRANCH   3  32
BRANCH   2  35
ATOM     35  C   UNL     1      -4.721  -0.343   2.446  0.00  0.00    +0.099 C 
ATOM     36  N   UNL     1      -5.271  -0.747   3.354  0.00  0.00    -0.191 NA
ENDBRANCH   2  35
TORSDOF 6
