REMARK  Name = ZINC39663897
REMARK  15 active torsions:
REMARK  status: ('A' for Active; 'I' for Inactive)
REMARK    1  A    between atoms: C_1  and  C_2
REMARK    2  A    between atoms: C_2  and  C_3
REMARK    3  A    between atoms: C_3  and  C_4
REMARK    4  A    between atoms: C_4  and  C_5
REMARK    5  A    between atoms: C_5  and  C_7
REMARK    6  A    between atoms: C_5  and  C_8
REMARK    7  A    between atoms: C_12  and  C_21
REMARK    8  A    between atoms: N_23  and  C_24
REMARK    9  A    between atoms: C_24  and  C_25
REMARK   10  A    between atoms: C_25  and  C_27
REMARK   11  A    between atoms: C_25  and  N_35
REMARK   12  A    between atoms: C_30  and  O_33
REMARK   13  A    between atoms: O_33  and  C_34
REMARK   14  A    between atoms: N_35  and  C_36
REMARK   15  A    between atoms: N_35  and  C_37
REMARK                            x       y       z     vdW  Elec       q    Type
REMARK                         _______ _______ _______ _____ _____    ______ ____
ROOT
ATOM      1  C   UNL     1       1.789  -4.274  -3.014  0.00  0.00    +0.218 C 
ATOM      2  O   UNL     1       1.093  -4.998  -2.334  0.00  0.00    -0.275 OA
ATOM      3  N   UNL     1       2.471  -4.782  -4.059  0.00  0.00    -0.300 N 
ATOM      4  C   UNL     1       3.438  -4.083  -4.939  0.00  0.00    +0.121 C 
ATOM      5  C   UNL     1       4.555  -5.120  -5.193  0.00  0.00    +0.100 C 
ATOM      6  C   UNL     1       3.884  -6.484  -4.963  0.00  0.00    -0.004 C 
ATOM      7  C   UNL     1       2.429  -6.168  -4.585  0.00  0.00    +0.115 C 
ATOM      8  C   UNL     1       3.929  -7.318  -6.240  0.00  0.00    -0.010 C 
ATOM      9  C   UNL     1       3.307  -8.691  -5.971  0.00  0.00    -0.082 C 
ATOM     10  N   UNL     1       4.049  -9.364  -4.898  0.00  0.00    +0.379 N 
ATOM     11  C   UNL     1       3.923  -8.603  -3.649  0.00  0.00    -0.082 C 
ATOM     12  C   UNL     1       4.571  -7.226  -3.820  0.00  0.00    -0.010 C 
ATOM     13  H   UNL     1       3.676 -10.292  -4.764  0.00  0.00    -0.086 HD
ATOM     14  H   UNL     1       5.023  -9.429  -5.154  0.00  0.00    -0.086 HD
ENDROOT
BRANCH   5  15
ATOM     15  C   UNL     1       5.688  -4.920  -4.219  0.00  0.00    +0.218 C 
ATOM     16  O   UNL     1       5.477  -4.408  -3.140  0.00  0.00    -0.275 OA
ATOM     17  N   UNL     1       6.936  -5.309  -4.548  0.00  0.00    -0.316 N 
ATOM     18  H   UNL     1       7.104  -5.719  -5.411  0.00  0.00    +0.149 HD
BRANCH  17  19
ATOM     19  C   UNL     1       8.037  -5.115  -3.601  0.00  0.00    +0.093 C 
BRANCH  19  20
ATOM     20  C   UNL     1       9.356  -5.519  -4.263  0.00  0.00    -0.021 C 
BRANCH  20  21
ATOM     21  C   UNL     1       9.632  -4.607  -5.431  0.00  0.00    -0.059 A 
ATOM     22  C   UNL     1      10.170  -3.352  -5.215  0.00  0.00    +0.005 A 
ATOM     23  C   UNL     1      10.424  -2.514  -6.283  0.00  0.00    +0.046 A 
ATOM     24  C   UNL     1      10.138  -2.933  -7.575  0.00  0.00    +0.120 A 
ATOM     25  C   UNL     1       9.598  -4.193  -7.789  0.00  0.00    +0.046 A 
ATOM     26  C   UNL     1       9.351  -5.029  -6.718  0.00  0.00    +0.005 A 
BRANCH  24  27
ATOM     27  O   UNL     1      10.386  -2.111  -8.627  0.00  0.00    -0.495 OA
ATOM     28  C   UNL     1      10.067  -2.608  -9.929  0.00  0.00    +0.277 C 
ENDBRANCH  24  27
ENDBRANCH  20  21
BRANCH  20  29
ATOM     29  N   UNL     1      10.447  -5.408  -3.287  0.00  0.00    +0.382 N 
ATOM     30  C   UNL     1      10.219  -6.356  -2.188  0.00  0.00    -0.096 C 
ATOM     31  C   UNL     1      11.725  -5.718  -3.943  0.00  0.00    -0.096 C 
ATOM     32  H   UNL     1      10.477  -4.469  -2.920  0.00  0.00    -0.082 HD
ENDBRANCH  20  29
ENDBRANCH  19  20
ENDBRANCH  17  19
ENDBRANCH   5  15
BRANCH   1  33
ATOM     33  C   UNL     1       1.892  -2.805  -2.690  0.00  0.00    +0.072 C 
ATOM     34  C   UNL     1       1.815  -2.611  -1.174  0.00  0.00    +0.017 C 
BRANCH  33  35
ATOM     35  C   UNL     1       0.739  -2.054  -3.359  0.00  0.00    +0.012 C 
BRANCH  35  36
ATOM     36  C   UNL     1       0.912  -0.550  -3.134  0.00  0.00    +0.000 C 
BRANCH  36  38
ATOM     37  C   UNL     1      -0.067   1.705  -3.579  0.00  0.00    +0.004 C 
ATOM     38  C   UNL     1      -0.240   0.201  -3.804  0.00  0.00    -0.003 C 
ENDBRANCH  36  38
ENDBRANCH  35  36
ENDBRANCH  33  35
ENDBRANCH   1  33
TORSDOF 10
