REMARK  Name = ZINC22326130
REMARK  11 active torsions:
REMARK  status: ('A' for Active; 'I' for Inactive)
REMARK    1  A    between atoms: C_1  and  C_2
REMARK    2  A    between atoms: C_5  and  S_8
REMARK    3  A    between atoms: S_8  and  N_11
REMARK    4  A    between atoms: N_11  and  C_12
REMARK    5  A    between atoms: N_11  and  C_29
REMARK    6  A    between atoms: C_12  and  C_13
REMARK    7  A    between atoms: N_15  and  C_16
REMARK    8  A    between atoms: C_19  and  C_27
REMARK    9  A    between atoms: C_19  and  C_28
REMARK   10  A    between atoms: C_32  and  O_36
REMARK   11  A    between atoms: O_36  and  C_37
REMARK                            x       y       z     vdW  Elec       q    Type
REMARK                         _______ _______ _______ _____ _____    ______ ____
ROOT
ATOM      1  N   UNL     1      -0.897   1.885  -1.312  0.00  0.00    -0.194 N 
ENDROOT
BRANCH   1   2
ATOM      2  C   UNL     1      -0.612   3.099  -1.948  0.00  0.00    +0.053 A 
ATOM      3  C   UNL     1      -0.937   3.274  -3.287  0.00  0.00    +0.028 A 
ATOM      4  C   UNL     1      -0.655   4.472  -3.915  0.00  0.00    +0.049 A 
ATOM      5  C   UNL     1      -0.048   5.499  -3.209  0.00  0.00    +0.138 A 
ATOM      6  C   UNL     1       0.277   5.325  -1.871  0.00  0.00    +0.084 A 
ATOM      7  C   UNL     1      -0.009   4.129  -1.240  0.00  0.00    +0.048 A 
ATOM      8 CL   UNL     1       1.037   6.612  -0.988  0.00  0.00    -0.080 Cl
BRANCH   5   9
ATOM      9  O   UNL     1       0.229   6.678  -3.828  0.00  0.00    -0.494 OA
ATOM     10  C   UNL     1      -0.134   6.788  -5.206  0.00  0.00    +0.277 C 
ENDBRANCH   5   9
ENDBRANCH   1   2
BRANCH   1  11
ATOM     11  S   UNL     1      -0.017   1.417   0.010  0.00  0.00    +0.075 S 
ATOM     12  O   UNL     1       0.002  -0.004   0.002  0.00  0.00    -0.150 OA
ATOM     13  O   UNL     1       1.172   2.195   0.003  0.00  0.00    -0.150 OA
BRANCH  11  18
ATOM     14  C   UNL     1      -3.132   3.072   4.905  0.00  0.00    +0.044 C 
ATOM     15  C   UNL     1      -2.354   2.659   3.683  0.00  0.00    -0.050 A 
ATOM     16  C   UNL     1      -2.559   1.412   3.121  0.00  0.00    +0.005 A 
ATOM     17  C   UNL     1      -1.846   1.033   2.000  0.00  0.00    +0.029 A 
ATOM     18  C   UNL     1      -0.927   1.900   1.439  0.00  0.00    +0.109 A 
ATOM     19  C   UNL     1      -0.717   3.145   2.004  0.00  0.00    +0.029 A 
ATOM     20  C   UNL     1      -1.434   3.526   3.123  0.00  0.00    +0.005 A 
ENDBRANCH  11  18
ENDBRANCH   1  11
BRANCH   1  21
ATOM     21  C   UNL     1      -1.975   1.030  -1.816  0.00  0.00    +0.227 C 
BRANCH  21  22
ATOM     22  C   UNL     1      -3.289   1.480  -1.230  0.00  0.00    +0.233 C 
ATOM     23  O   UNL     1      -3.322   2.422  -0.468  0.00  0.00    -0.274 OA
ATOM     24  N   UNL     1      -4.427   0.835  -1.554  0.00  0.00    -0.307 N 
ATOM     25  H   UNL     1      -4.397  -0.020  -2.246  0.00  0.00    +0.149 HD
BRANCH  24  26
ATOM     26  C   UNL     1      -5.704   1.272  -0.985  0.00  0.00    +0.110 C 
ATOM     27  C   UNL     1      -6.685   0.098  -0.972  0.00  0.00    +0.074 C 
ATOM     28  C   UNL     1      -8.084   0.642  -0.654  0.00  0.00    +0.107 C 
ATOM     29  O   UNL     1      -8.488   1.498  -1.723  0.00  0.00    -0.486 OA
ATOM     30  C   UNL     1      -7.613   2.451  -2.139  0.00  0.00    +0.126 A 
ATOM     31  C   UNL     1      -6.267   2.394  -1.820  0.00  0.00    +0.015 A 
ATOM     32  C   UNL     1      -5.410   3.384  -2.271  0.00  0.00    +0.009 A 
ATOM     33  C   UNL     1      -5.893   4.429  -3.035  0.00  0.00    +0.001 A 
ATOM     34  C   UNL     1      -7.237   4.490  -3.353  0.00  0.00    +0.004 A 
ATOM     35  C   UNL     1      -8.095   3.505  -2.907  0.00  0.00    +0.046 A 
ATOM     36  C   UNL     1      -9.071  -0.520  -0.523  0.00  0.00    +0.055 C 
ATOM     37  C   UNL     1      -8.043   1.434   0.654  0.00  0.00    +0.055 C 
ENDBRANCH  24  26
ENDBRANCH  21  22
ENDBRANCH   1  21
TORSDOF 7
