REMARK  Name = ZINC39360661
REMARK  6 active torsions:
REMARK  status: ('A' for Active; 'I' for Inactive)
REMARK    1  A    between atoms: C_1  and  C_2
REMARK    2  A    between atoms: C_2  and  C_35
REMARK    3  A    between atoms: C_6  and  C_26
REMARK    4  A    between atoms: C_12  and  S_16
REMARK    5  A    between atoms: S_16  and  C_17
REMARK    6  A    between atoms: C_17  and  C_18
REMARK                            x       y       z     vdW  Elec       q    Type
REMARK                         _______ _______ _______ _____ _____    ______ ____
ROOT
ATOM      1  C   UNL     1      -0.019   1.526   0.010  0.00  0.00    +0.011 C 
ATOM      2  C   UNL     1       0.002  -0.004   0.002  0.00  0.00    -0.023 C 
ATOM      3  C   UNL     1       0.741  -0.503  -1.241  0.00  0.00    +0.058 C 
ATOM      4  C   UNL     1       2.168  -0.008  -1.216  0.00  0.00    +0.017 C 
ATOM      5  C   UNL     1       2.818   0.177  -0.051  0.00  0.00    +0.021 C 
ATOM      6  C   UNL     1       4.254   0.645   0.006  0.00  0.00    +0.073 C 
ATOM      7  C   UNL     1       4.631   1.362  -1.292  0.00  0.00    +0.152 C 
ATOM      8  C   UNL     1       4.108   0.528  -2.438  0.00  0.00    +0.115 C 
ATOM      9  N   UNL     1       4.887   0.079  -3.374  0.00  0.00    -0.213 NA
ATOM     10  C   UNL     1       6.208   0.300  -3.371  0.00  0.00    +0.182 C 
ATOM     11  N   UNL     1       6.802   0.981  -2.401  0.00  0.00    -0.154 NA
ATOM     12  C   UNL     1       6.122   1.510  -1.386  0.00  0.00    +0.250 C 
ATOM     13  O   UNL     1       6.713   2.120  -0.517  0.00  0.00    -0.273 OA
ATOM     14  N   UNL     1       2.769   0.253  -2.428  0.00  0.00    -0.305 N 
ATOM     15  C   UNL     1       2.173  -0.060   1.180  0.00  0.00    +0.162 C 
ATOM     16  O   UNL     1       2.788   0.107   2.215  0.00  0.00    -0.292 OA
ATOM     17  C   UNL     1       0.742  -0.517   1.242  0.00  0.00    +0.086 C 
ATOM     18  C   UNL     1      -1.431  -0.539  -0.001  0.00  0.00    +0.011 C 
ATOM     19  H   UNL     1       2.256   0.242  -3.251  0.00  0.00    +0.153 HD
ENDROOT
BRANCH   6  20
ATOM     20  C   UNL     1       4.424   1.594   1.164  0.00  0.00    -0.039 A 
ATOM     21  C   UNL     1       3.684   2.760   1.216  0.00  0.00    +0.004 A 
ATOM     22  C   UNL     1       3.840   3.631   2.279  0.00  0.00    +0.000 A 
ATOM     23  C   UNL     1       4.736   3.335   3.289  0.00  0.00    +0.000 A 
ATOM     24  C   UNL     1       5.476   2.168   3.237  0.00  0.00    +0.000 A 
ATOM     25  C   UNL     1       5.316   1.295   2.177  0.00  0.00    +0.004 A 
ENDBRANCH   6  20
BRANCH  10  26
ATOM     26  S   UNL     1       7.185  -0.334  -4.693  0.00  0.00    -0.084 S 
BRANCH  26  27
ATOM     27  C   UNL     1       8.873   0.191  -4.283  0.00  0.00    +0.115 C 
BRANCH  27  28
ATOM     28  C   UNL     1       9.822  -0.292  -5.348  0.00  0.00    -0.002 A 
ATOM     29  C   UNL     1      10.421  -1.532  -5.230  0.00  0.00    +0.007 A 
ATOM     30  C   UNL     1      11.292  -1.976  -6.207  0.00  0.00    +0.000 A 
ATOM     31  C   UNL     1      11.566  -1.180  -7.304  0.00  0.00    +0.003 A 
ATOM     32  C   UNL     1      10.968   0.060  -7.425  0.00  0.00    +0.038 A 
ATOM     33  C   UNL     1      10.091   0.503  -6.449  0.00  0.00    +0.127 A 
ATOM     34  F   UNL     1       9.502   1.713  -6.569  0.00  0.00    -0.205 F 
ENDBRANCH  27  28
ENDBRANCH  26  27
ENDBRANCH  10  26
TORSDOF 4
