REMARK  Name = ZINC08709062
REMARK  11 active torsions:
REMARK  status: ('A' for Active; 'I' for Inactive)
REMARK    1  A    between atoms: C_1  and  C_2
REMARK    2  A    between atoms: C_2  and  C_3
REMARK    3  A    between atoms: C_3  and  C_4
REMARK    4  A    between atoms: C_4  and  N_5
REMARK    5  A    between atoms: C_6  and  N_35
REMARK    6  A    between atoms: C_7  and  N_14
REMARK    7  A    between atoms: N_14  and  C_15
REMARK    8  A    between atoms: C_20  and  C_22
REMARK    9  A    between atoms: C_22  and  S_23
REMARK   10  A    between atoms: S_23  and  C_24
REMARK   11  A    between atoms: C_27  and  C_30
REMARK                            x       y       z     vdW  Elec       q    Type
REMARK                         _______ _______ _______ _____ _____    ______ ____
ROOT
ATOM      1  N   UNL     1       5.750   4.466   0.030  0.00  0.00    -0.260 N 
ATOM      2  C   UNL     1       4.442   4.583  -0.281  0.00  0.00    +0.231 C 
ATOM      3  O   UNL     1       3.973   5.673  -0.532  0.00  0.00    -0.274 OA
ENDROOT
BRANCH   1   6
ATOM      4  N   UNL     1       7.109   7.629   1.313  0.00  0.00    -0.280 N 
ATOM      5  C   UNL     1       6.314   6.512   1.200  0.00  0.00    +0.127 A 
ATOM      6  C   UNL     1       6.547   5.621   0.172  0.00  0.00    +0.140 A 
ATOM      7  C   UNL     1       7.598   5.881  -0.727  0.00  0.00    +0.277 A 
ATOM      8  O   UNL     1       7.829   5.108  -1.641  0.00  0.00    -0.266 OA
ATOM      9  N   UNL     1       8.344   6.993  -0.575  0.00  0.00    -0.273 N 
ATOM     10  H   UNL     1       9.085   7.183  -1.218  0.00  0.00    +0.173 HD
ATOM     11  C   UNL     1       8.102   7.850   0.433  0.00  0.00    +0.331 A 
ATOM     12  O   UNL     1       8.793   8.844   0.550  0.00  0.00    -0.246 OA
BRANCH   5  13
ATOM     13  N   UNL     1       5.300   6.286   2.100  0.00  0.00    -0.343 N 
ATOM     14  H   UNL     1       4.802   5.454   2.071  0.00  0.00    +0.144 HD
ATOM     15  H   UNL     1       5.082   6.958   2.764  0.00  0.00    +0.144 HD
ENDBRANCH   5  13
BRANCH   4  16
ATOM     16  C   UNL     1       6.872   8.584   2.399  0.00  0.00    +0.128 C 
BRANCH  16  17
ATOM     17  C   UNL     1       7.701   8.182   3.620  0.00  0.00    +0.021 C 
BRANCH  17  19
ATOM     18  C   UNL     1       8.283   8.778   5.976  0.00  0.00    +0.004 C 
ATOM     19  C   UNL     1       7.454   9.180   4.754  0.00  0.00    -0.002 C 
ENDBRANCH  17  19
ENDBRANCH  16  17
ENDBRANCH   4  16
ENDBRANCH   1   6
BRANCH   1  20
ATOM     20  C   UNL     1       6.341   3.139   0.219  0.00  0.00    +0.082 C 
ATOM     21  C   UNL     1       6.229   2.320  -1.083  0.00  0.00    +0.023 C 
ATOM     22  C   UNL     1       5.944   0.875  -0.599  0.00  0.00    +0.002 C 
ATOM     23  C   UNL     1       5.004   1.099   0.611  0.00  0.00    +0.002 C 
ATOM     24  C   UNL     1       5.563   2.363   1.296  0.00  0.00    +0.023 C 
ENDBRANCH   1  20
BRANCH   2  25
ATOM     25  C   UNL     1       3.563   3.359  -0.316  0.00  0.00    +0.173 C 
BRANCH  25  26
ATOM     26  S   UNL     1       1.930   3.807  -0.954  0.00  0.00    -0.077 S 
BRANCH  26  27
ATOM     27  C   UNL     1       1.134   2.236  -0.888  0.00  0.00    +0.190 A 
ATOM     28  N   UNL     1      -0.153   1.964  -1.260  0.00  0.00    -0.316 N 
ATOM     29  H   UNL     1      -0.807   2.588  -1.613  0.00  0.00    +0.169 HD
ATOM     30  C   UNL     1      -0.327   0.616  -1.033  0.00  0.00    +0.169 A 
ATOM     31  N   UNL     1       0.810   0.157  -0.558  0.00  0.00    -0.128 NA
ATOM     32  N   UNL     1       1.667   1.110  -0.473  0.00  0.00    -0.122 NA
BRANCH  30  33
ATOM     33  C   UNL     1      -1.552  -0.162  -1.278  0.00  0.00    +0.056 A 
ATOM     34  C   UNL     1      -1.781  -1.500  -1.078  0.00  0.00    +0.019 A 
ATOM     35  C   UNL     1      -3.024  -2.010  -1.378  0.00  0.00    +0.008 A 
ATOM     36  C   UNL     1      -3.979  -1.179  -1.872  0.00  0.00    +0.046 A 
ATOM     37  S   UNL     1      -3.125   0.388  -1.918  0.00  0.00    -0.094 S 
ENDBRANCH  30  33
ENDBRANCH  26  27
ENDBRANCH  25  26
ENDBRANCH   2  25
TORSDOF 10
