REMARK  Name = ZINC46773532
REMARK  6 active torsions:
REMARK  status: ('A' for Active; 'I' for Inactive)
REMARK    1  A    between atoms: C_6  and  N_7
REMARK    2  A    between atoms: C_9  and  C_14
REMARK    3  A    between atoms: N_16  and  N_17
REMARK    4  A    between atoms: N_17  and  C_18
REMARK    5  A    between atoms: C_18  and  N_20
REMARK    6  A    between atoms: N_20  and  C_21
REMARK                            x       y       z     vdW  Elec       q    Type
REMARK                         _______ _______ _______ _____ _____    ______ ____
ROOT
ATOM      1  C   UNL     1      -4.826  -1.117   0.498  0.00  0.00    +0.234 C 
ATOM      2  O   UNL     1      -4.893  -0.409   1.481  0.00  0.00    -0.274 OA
ATOM      3  N   UNL     1      -5.814  -1.993   0.229  0.00  0.00    -0.235 N 
ATOM      4  H   UNL     1      -5.761  -2.559  -0.557  0.00  0.00    +0.173 HD
ENDROOT
BRANCH   1   7
ATOM      5  N   UNL     1      -1.305  -0.491  -0.227  0.00  0.00    -0.271 N 
ATOM      6  C   UNL     1      -2.636   0.046   0.082  0.00  0.00    +0.127 C 
ATOM      7  C   UNL     1      -3.636  -1.018  -0.422  0.00  0.00    +0.103 C 
ATOM      8  C   UNL     1      -2.783  -2.305  -0.365  0.00  0.00    +0.110 C 
ATOM      9  C   UNL     1      -1.358  -1.810  -0.482  0.00  0.00    +0.221 C 
ATOM     10  O   UNL     1      -0.403  -2.502  -0.763  0.00  0.00    -0.275 OA
BRANCH   5  16
ATOM     11  C   UNL     1       1.096  -0.347  -0.448  0.00  0.00    +0.027 A 
ATOM     12  C   UNL     1       2.255   0.406  -0.479  0.00  0.00    +0.051 A 
ATOM     13  C   UNL     1       2.195   1.781  -0.319  0.00  0.00    +0.166 A 
ATOM     14  C   UNL     1       0.964   2.406  -0.128  0.00  0.00    +0.168 A 
ATOM     15  C   UNL     1      -0.196   1.651  -0.097  0.00  0.00    +0.073 A 
ATOM     16  C   UNL     1      -0.131   0.273  -0.257  0.00  0.00    +0.040 A 
ATOM     17  O   UNL     1       1.173   3.749   0.002  0.00  0.00    -0.453 OA
ATOM     18  C   UNL     1       2.575   3.894   0.297  0.00  0.00    +0.466 C 
ATOM     19  O   UNL     1       3.174   2.733  -0.309  0.00  0.00    -0.453 OA
ENDBRANCH   5  16
ENDBRANCH   1   7
BRANCH   3  20
ATOM     20  N   UNL     1      -6.920  -2.085   1.085  0.00  0.00    -0.246 N 
ATOM     21  H   UNL     1      -6.974  -1.519   1.871  0.00  0.00    +0.172 HD
BRANCH  20  22
ATOM     22  C   UNL     1      -7.909  -2.961   0.816  0.00  0.00    +0.151 C 
ATOM     23  S   UNL     1      -9.260  -3.074   1.861  0.00  0.00    -0.017 S 
BRANCH  22  24
ATOM     24  N   UNL     1      -7.834  -3.747  -0.276  0.00  0.00    -0.295 N 
ATOM     25  H   UNL     1      -7.036  -3.736  -0.828  0.00  0.00    +0.154 HD
BRANCH  24  26
ATOM     26  C   UNL     1      -8.907  -4.580  -0.614  0.00  0.00    +0.051 A 
ATOM     27  C   UNL     1     -10.208  -4.098  -0.554  0.00  0.00    +0.026 A 
ATOM     28  C   UNL     1     -11.265  -4.922  -0.888  0.00  0.00    +0.022 A 
ATOM     29  C   UNL     1     -11.029  -6.228  -1.282  0.00  0.00    +0.042 A 
ATOM     30  C   UNL     1      -9.735  -6.712  -1.342  0.00  0.00    +0.041 A 
ATOM     31  C   UNL     1      -8.672  -5.890  -1.015  0.00  0.00    +0.063 A 
ATOM     32 CL   UNL     1      -7.048  -6.495  -1.098  0.00  0.00    -0.082 Cl
ATOM     33 CL   UNL     1     -12.361  -7.260  -1.701  0.00  0.00    -0.083 Cl
ENDBRANCH  24  26
ENDBRANCH  22  24
ENDBRANCH  20  22
ENDBRANCH   3  20
TORSDOF 6
