REMARK  Name = ZINC33260366
REMARK  5 active torsions:
REMARK  status: ('A' for Active; 'I' for Inactive)
REMARK    1  A    between atoms: C_5  and  C_7
REMARK    2  A    between atoms: C_19  and  C_22
REMARK    3  A    between atoms: N_24  and  C_25
REMARK    4  A    between atoms: C_25  and  C_26
REMARK    5  A    between atoms: C_26  and  C_27
REMARK                            x       y       z     vdW  Elec       q    Type
REMARK                         _______ _______ _______ _____ _____    ______ ____
ROOT
ATOM      1  C   UNL     1       0.597  10.031 -12.527  0.00  0.00    +0.188 A 
ATOM      2  N   UNL     1       0.090  10.059 -13.746  0.00  0.00    -0.127 NA
ATOM      3  N   UNL     1      -0.549   8.968 -13.984  0.00  0.00    -0.128 NA
ATOM      4  C   UNL     1      -0.486   8.176 -12.924  0.00  0.00    +0.178 A 
ATOM      5  N   UNL     1       0.247   8.837 -11.970  0.00  0.00    -0.191 N 
ATOM      6  N   UNL     1       0.484   8.242 -10.729  0.00  0.00    -0.148 NA
ATOM      7  C   UNL     1       0.009   7.047 -10.463  0.00  0.00    +0.142 A 
ATOM      8  C   UNL     1      -0.743   6.340 -11.421  0.00  0.00    +0.049 A 
ATOM      9  C   UNL     1      -0.994   6.895 -12.637  0.00  0.00    +0.053 A 
ATOM     10  N   UNL     1       0.256   6.471  -9.221  0.00  0.00    -0.314 N 
ATOM     11  C   UNL     1       1.057   7.365  -8.376  0.00  0.00    +0.107 C 
ATOM     12  C   UNL     1       1.431   6.643  -7.079  0.00  0.00    +0.031 C 
ATOM     13  C   UNL     1       0.154   6.227  -6.346  0.00  0.00    +0.078 C 
ATOM     14  C   UNL     1      -0.688   5.337  -7.264  0.00  0.00    +0.031 C 
ATOM     15  C   UNL     1      -0.999   6.095  -8.557  0.00  0.00    +0.107 C 
ENDROOT
BRANCH   1  20
ATOM     16  C   UNL     1       2.425  13.265 -11.974  0.00  0.00    +0.001 A 
ATOM     17  C   UNL     1       2.892  13.094 -10.683  0.00  0.00    +0.003 A 
ATOM     18  C   UNL     1       2.617  11.930  -9.989  0.00  0.00    +0.039 A 
ATOM     19  C   UNL     1       1.866  10.931 -10.580  0.00  0.00    +0.134 A 
ATOM     20  C   UNL     1       1.396  11.096 -11.886  0.00  0.00    +0.056 A 
ATOM     21  C   UNL     1       1.679  12.274 -12.579  0.00  0.00    +0.014 A 
ATOM     22  F   UNL     1       1.593   9.797  -9.899  0.00  0.00    -0.205 F 
ENDBRANCH   1  20
BRANCH  13  23
ATOM     23  C   UNL     1       0.515   5.464  -5.098  0.00  0.00    +0.216 C 
ATOM     24  O   UNL     1       1.680   5.273  -4.820  0.00  0.00    -0.276 OA
ATOM     25  N   UNL     1      -0.456   4.993  -4.290  0.00  0.00    -0.315 N 
ATOM     26  H   UNL     1      -1.513   5.166  -4.542  0.00  0.00    +0.149 HD
BRANCH  25  27
ATOM     27  C   UNL     1      -0.104   4.251  -3.077  0.00  0.00    +0.108 C 
BRANCH  27  28
ATOM     28  C   UNL     1      -1.382   3.833  -2.347  0.00  0.00    +0.049 C 
BRANCH  28  29
ATOM     29  C   UNL     1      -1.020   3.070  -1.099  0.00  0.00    -0.072 C 
ATOM     30  C   UNL     1      -0.952   3.725   0.015  0.00  0.00    -0.028 C 
ATOM     31  C   UNL     1      -0.595   3.106   1.335  0.00  0.00    +0.027 C 
ATOM     32  C   UNL     1      -0.739   1.585   1.264  0.00  0.00    +0.004 C 
ATOM     33  C   UNL     1      -0.013   1.086   0.008  0.00  0.00    +0.005 C 
ATOM     34  C   UNL     1      -0.761   1.597  -1.225  0.00  0.00    +0.030 C 
ENDBRANCH  28  29
ENDBRANCH  27  28
ENDBRANCH  25  27
ENDBRANCH  13  23
TORSDOF 5
