REMARK  Name = ZINC13367166
REMARK  11 active torsions:
REMARK  status: ('A' for Active; 'I' for Inactive)
REMARK    1  A    between atoms: C_1  and  O_2
REMARK    2  A    between atoms: O_2  and  C_3
REMARK    3  A    between atoms: C_6  and  C_29
REMARK    4  A    between atoms: C_8  and  S_9
REMARK    5  A    between atoms: S_9  and  N_12
REMARK    6  A    between atoms: N_12  and  C_13
REMARK    7  A    between atoms: C_17  and  S_19
REMARK    8  A    between atoms: S_19  and  N_22
REMARK    9  A    between atoms: N_22  and  C_23
REMARK   10  A    between atoms: C_23  and  C_24
REMARK   11  A    between atoms: C_30  and  C_31
REMARK                            x       y       z     vdW  Elec       q    Type
REMARK                         _______ _______ _______ _____ _____    ______ ____
ROOT
ATOM      1  N   UNL     1      -0.069   5.239   0.030  0.00  0.00    -0.216 N 
ATOM      2  H   UNL     1      -0.664   5.713   0.633  0.00  0.00    +0.174 HD
ENDROOT
BRANCH   1   3
ATOM      3  C   UNL     1      -0.050   3.842   0.023  0.00  0.00    +0.050 A 
ATOM      4  C   UNL     1       1.161   3.163   0.008  0.00  0.00    +0.024 A 
ATOM      5  C   UNL     1       1.177   1.782   0.000  0.00  0.00    +0.004 A 
ATOM      6  C   UNL     1      -0.013   1.076   0.008  0.00  0.00    +0.028 A 
ATOM      7  C   UNL     1      -1.220   1.749   0.017  0.00  0.00    +0.107 A 
ATOM      8  C   UNL     1      -1.242   3.130   0.031  0.00  0.00    +0.053 A 
BRANCH   7   9
ATOM      9  S   UNL     1      -2.732   0.845   0.019  0.00  0.00    +0.059 S 
ATOM     10  O   UNL     1      -3.723   1.708  -0.522  0.00  0.00    -0.153 OA
ATOM     11  O   UNL     1      -2.444  -0.429  -0.540  0.00  0.00    -0.153 OA
BRANCH   9  12
ATOM     12  N   UNL     1      -3.145   0.584   1.601  0.00  0.00    -0.183 NA
ATOM     13  H   UNL     1      -3.167  -0.319   1.955  0.00  0.00    +0.148 HD
BRANCH  12  14
ATOM     14  C   UNL     1      -3.478   1.718   2.468  0.00  0.00    +0.180 C 
BRANCH  14  15
ATOM     15  C   UNL     1      -4.161   1.214   3.713  0.00  0.00    +0.120 A 
ATOM     16  C   UNL     1      -3.548   0.859   4.857  0.00  0.00    +0.046 A 
ATOM     17  C   UNL     1      -4.562   0.451   5.755  0.00  0.00    +0.041 A 
ATOM     18  C   UNL     1      -5.733   0.582   5.106  0.00  0.00    +0.195 A 
ATOM     19  O   UNL     1      -5.484   1.050   3.872  0.00  0.00    -0.466 OA
ENDBRANCH  14  15
ENDBRANCH  12  14
ENDBRANCH   9  12
ENDBRANCH   7   9
ENDBRANCH   1   3
BRANCH   1  20
ATOM     20  S   UNL     1       0.924   6.086  -0.989  0.00  0.00    +0.076 S 
ATOM     21  O   UNL     1       0.655   7.463  -0.766  0.00  0.00    -0.150 OA
ATOM     22  O   UNL     1       2.224   5.530  -0.845  0.00  0.00    -0.150 OA
BRANCH  20  28
ATOM     23  C   UNL     1       0.521   4.441  -3.137  0.00  0.00    +0.147 A 
ATOM     24  C   UNL     1       0.113   4.154  -4.435  0.00  0.00    +0.048 A 
ATOM     25  C   UNL     1      -0.409   5.149  -5.230  0.00  0.00    +0.011 A 
ATOM     26  C   UNL     1      -0.529   6.452  -4.730  0.00  0.00    -0.023 A 
ATOM     27  C   UNL     1      -0.122   6.733  -3.420  0.00  0.00    +0.040 A 
ATOM     28  C   UNL     1       0.405   5.732  -2.635  0.00  0.00    +0.150 A 
BRANCH  23  30
ATOM     29  C   UNL     1       1.127   2.152  -2.935  0.00  0.00    +0.277 C 
ATOM     30  O   UNL     1       1.035   3.456  -2.357  0.00  0.00    -0.493 OA
ENDBRANCH  23  30
BRANCH  26  31
ATOM     31  C   UNL     1      -1.085   7.518  -5.574  0.00  0.00    +0.015 C 
ATOM     32  C   UNL     1      -1.482   7.242  -6.835  0.00  0.00    +0.096 C 
BRANCH  32  33
ATOM     33  C   UNL     1      -2.019   8.271  -7.650  0.00  0.00    +0.380 C 
ATOM     34  O   UNL     1      -2.123   9.401  -7.213  0.00  0.00    -0.241 OA
ATOM     35  O   UNL     1      -2.416   7.996  -8.910  0.00  0.00    -0.241 OA
ENDBRANCH  32  33
ENDBRANCH  26  31
ENDBRANCH  20  28
ENDBRANCH   1  20
TORSDOF 10
