REMARK  Name = ZINC39487659
REMARK  12 active torsions:
REMARK  status: ('A' for Active; 'I' for Inactive)
REMARK    1  A    between atoms: C_1  and  C_2
REMARK    2  A    between atoms: C_2  and  C_3
REMARK    3  A    between atoms: C_2  and  C_4
REMARK    4  A    between atoms: C_4  and  C_5
REMARK    5  A    between atoms: C_5  and  C_35
REMARK    6  A    between atoms: N_7  and  S_26
REMARK    7  A    between atoms: N_10  and  C_11
REMARK    8  A    between atoms: C_11  and  C_12
REMARK    9  A    between atoms: C_12  and  C_20
REMARK   10  A    between atoms: N_15  and  O_18
REMARK   11  A    between atoms: O_18  and  C_19
REMARK   12  A    between atoms: S_26  and  C_29
REMARK                            x       y       z     vdW  Elec       q    Type
REMARK                         _______ _______ _______ _____ _____    ______ ____
ROOT
ATOM      1  C   UNL     1       0.578   0.547   3.092  0.00  0.00    +0.054 C 
ATOM      2  C   UNL     1       1.042   1.966   3.473  0.00  0.00    +0.161 C 
ATOM      3  N   UNL     1       2.049   1.738   4.521  0.00  0.00    -0.153 N 
ATOM      4  C   UNL     1       2.171   0.421   4.734  0.00  0.00    +0.325 C 
ATOM      5  O   UNL     1       2.938  -0.049   5.552  0.00  0.00    -0.251 OA
ATOM      6  N   UNL     1       1.372  -0.330   3.965  0.00  0.00    -0.277 N 
ATOM      7  C   UNL     1      -0.916   0.374   3.373  0.00  0.00    +0.033 C 
ENDROOT
BRANCH   3   8
ATOM      8  S   UNL     1       2.896   2.921   5.311  0.00  0.00    +0.078 S 
ATOM      9  O   UNL     1       4.091   2.317   5.787  0.00  0.00    -0.150 OA
ATOM     10  O   UNL     1       2.905   4.055   4.455  0.00  0.00    -0.150 OA
BRANCH   8  11
ATOM     11  C   UNL     1       1.959   3.372   6.734  0.00  0.00    +0.109 A 
ATOM     12  C   UNL     1       1.017   4.381   6.650  0.00  0.00    +0.029 A 
ATOM     13  C   UNL     1       0.282   4.734   7.766  0.00  0.00    +0.002 A 
ATOM     14  C   UNL     1       0.488   4.079   8.965  0.00  0.00    +0.000 A 
ATOM     15  C   UNL     1       1.429   3.069   9.049  0.00  0.00    +0.002 A 
ATOM     16  C   UNL     1       2.161   2.713   7.932  0.00  0.00    +0.029 A 
ENDBRANCH   8  11
ENDBRANCH   3   8
BRANCH   1  17
ATOM     17  C   UNL     1       0.884   0.259   1.621  0.00  0.00    +0.030 C 
BRANCH  17  19
ATOM     18  C   UNL     1       0.253   2.564   0.891  0.00  0.00    +0.007 C 
ATOM     19  C   UNL     1      -0.060   1.075   0.735  0.00  0.00    -0.015 C 
ATOM     20  C   UNL     1       0.130   0.664  -0.727  0.00  0.00    +0.007 C 
ENDBRANCH  17  19
ENDBRANCH   1  17
BRANCH   6  21
ATOM     21  C   UNL     1       1.301  -1.793   3.990  0.00  0.00    +0.117 C 
BRANCH  21  22
ATOM     22  C   UNL     1       2.573  -2.376   3.371  0.00  0.00    -0.008 C 
ATOM     23  C   UNL     1       2.544  -3.903   3.483  0.00  0.00    +0.026 C 
ATOM     24  C   UNL     1       2.521  -4.301   4.961  0.00  0.00    +0.115 C 
ATOM     25  N   UNL     1       3.713  -3.766   5.631  0.00  0.00    -0.188 NA
ATOM     26  C   UNL     1       3.739  -2.299   5.577  0.00  0.00    +0.115 C 
ATOM     27  C   UNL     1       3.798  -1.841   4.118  0.00  0.00    +0.026 C 
BRANCH  22  28
ATOM     28  C   UNL     1       2.656  -1.972   1.898  0.00  0.00    -0.003 C 
ATOM     29  C   UNL     1       1.545  -2.672   1.113  0.00  0.00    +0.004 C 
ATOM     30  C   UNL     1       1.628  -2.267  -0.360  0.00  0.00    +0.000 C 
ATOM     31  C   UNL     1       2.988  -2.679  -0.926  0.00  0.00    +0.000 C 
ATOM     32  C   UNL     1       4.100  -1.979  -0.141  0.00  0.00    +0.000 C 
ATOM     33  C   UNL     1       4.017  -2.383   1.332  0.00  0.00    +0.004 C 
ENDBRANCH  22  28
BRANCH  25  34
ATOM     34  O   UNL     1       3.796  -4.242   7.012  0.00  0.00    -0.300 OA
ATOM     35  C   UNL     1       4.979  -4.991   7.298  0.00  0.00    +0.221 C 
ENDBRANCH  25  34
ENDBRANCH  21  22
ENDBRANCH   6  21
TORSDOF 8
