REMARK  Name = ZINC13240425
REMARK  10 active torsions:
REMARK  status: ('A' for Active; 'I' for Inactive)
REMARK    1  A    between atoms: C_1  and  C_2
REMARK    2  A    between atoms: C_5  and  C_9
REMARK    3  A    between atoms: C_7  and  C_8
REMARK    4  A    between atoms: C_10  and  C_20
REMARK    5  A    between atoms: N_12  and  C_14
REMARK    6  A    between atoms: C_20  and  N_21
REMARK    7  A    between atoms: N_21  and  C_22
REMARK    8  A    between atoms: N_21  and  S_23
REMARK    9  A    between atoms: S_23  and  C_26
REMARK   10  A    between atoms: C_30  and  C_32
REMARK                            x       y       z     vdW  Elec       q    Type
REMARK                         _______ _______ _______ _____ _____    ______ ____
ROOT
ATOM      1  C   UNL     1      -0.392  -2.290  -2.407  0.00  0.00    +0.098 A 
ATOM      2  C   UNL     1      -1.079  -1.164  -1.911  0.00  0.00    +0.014 A 
ATOM      3  C   UNL     1      -1.571  -0.480  -2.967  0.00  0.00    +0.120 A 
ATOM      4  N   UNL     1      -1.205  -1.138  -4.098  0.00  0.00    -0.239 N 
ATOM      5  N   UNL     1      -0.470  -2.270  -3.721  0.00  0.00    -0.166 NA
ENDROOT
BRANCH   1  10
ATOM      6  C   UNL     1       2.291  -6.281   0.762  0.00  0.00    +0.044 C 
ATOM      7  C   UNL     1       1.589  -5.237  -0.067  0.00  0.00    -0.047 A 
ATOM      8  C   UNL     1       1.704  -3.899   0.267  0.00  0.00    +0.004 A 
ATOM      9  C   UNL     1       1.064  -2.938  -0.489  0.00  0.00    +0.010 A 
ATOM     10  C   UNL     1       0.299  -3.318  -1.591  0.00  0.00    +0.003 A 
ATOM     11  C   UNL     1       0.182  -4.667  -1.919  0.00  0.00    +0.013 A 
ATOM     12  C   UNL     1       0.831  -5.619  -1.159  0.00  0.00    -0.047 A 
ATOM     13  C   UNL     1       0.709  -7.078  -1.517  0.00  0.00    +0.044 C 
ENDBRANCH   1  10
BRANCH   4  14
ATOM     14  C   UNL     1      -1.512  -0.755  -5.410  0.00  0.00    +0.065 A 
ATOM     15  C   UNL     1      -2.257   0.393  -5.643  0.00  0.00    +0.028 A 
ATOM     16  C   UNL     1      -2.554   0.771  -6.938  0.00  0.00    +0.002 A 
ATOM     17  C   UNL     1      -2.119   0.002  -8.001  0.00  0.00    +0.000 A 
ATOM     18  C   UNL     1      -1.382  -1.146  -7.772  0.00  0.00    +0.002 A 
ATOM     19  C   UNL     1      -1.077  -1.526  -6.480  0.00  0.00    +0.028 A 
ENDBRANCH   4  14
BRANCH   2  20
ATOM     20  C   UNL     1      -1.243  -0.793  -0.460  0.00  0.00    +0.148 C 
BRANCH  20  21
ATOM     21  N   UNL     1      -2.136   0.363  -0.349  0.00  0.00    -0.175 NA
ATOM     22  C   UNL     1      -1.599   1.719  -0.482  0.00  0.00    +0.132 C 
BRANCH  21  23
ATOM     23  S   UNL     1      -3.753   0.136  -0.072  0.00  0.00    +0.061 S 
ATOM     24  O   UNL     1      -4.415   1.296  -0.559  0.00  0.00    -0.153 OA
ATOM     25  O   UNL     1      -4.065  -1.170  -0.537  0.00  0.00    -0.153 OA
BRANCH  23  26
ATOM     26  C   UNL     1      -3.986   0.119   1.674  0.00  0.00    +0.106 A 
ATOM     27  C   UNL     1      -3.914  -1.078   2.368  0.00  0.00    +0.031 A 
ATOM     28  C   UNL     1      -4.089  -1.101   3.738  0.00  0.00    +0.041 A 
ATOM     29  C   UNL     1      -4.349   0.070   4.426  0.00  0.00    +0.138 A 
ATOM     30  C   UNL     1      -4.429   1.281   3.729  0.00  0.00    +0.100 A 
ATOM     31  C   UNL     1      -4.244   1.295   2.344  0.00  0.00    +0.046 A 
ATOM     32  F   UNL     1      -4.526   0.046   5.765  0.00  0.00    -0.205 F 
BRANCH  30  33
ATOM     33  C   UNL     1      -4.705   2.537   4.453  0.00  0.00    +0.389 C 
ATOM     34  O   UNL     1      -4.865   2.521   5.657  0.00  0.00    -0.240 OA
ATOM     35  O   UNL     1      -4.780   3.700   3.779  0.00  0.00    -0.240 OA
ENDBRANCH  30  33
ENDBRANCH  23  26
ENDBRANCH  21  23
ENDBRANCH  20  21
ENDBRANCH   2  20
TORSDOF 7
