REMARK  Name = ZINC09559826
REMARK  11 active torsions:
REMARK  status: ('A' for Active; 'I' for Inactive)
REMARK    1  A    between atoms: C_1  and  C_2
REMARK    2  A    between atoms: C_7  and  C_8
REMARK    3  A    between atoms: C_8  and  O_10
REMARK    4  A    between atoms: O_10  and  C_11
REMARK    5  A    between atoms: C_20  and  C_25
REMARK    6  A    between atoms: C_27  and  O_35
REMARK    7  A    between atoms: C_28  and  O_33
REMARK    8  A    between atoms: C_29  and  O_31
REMARK    9  A    between atoms: O_31  and  C_32
REMARK   10  A    between atoms: O_33  and  C_34
REMARK   11  A    between atoms: O_35  and  C_36
REMARK                            x       y       z     vdW  Elec       q    Type
REMARK                         _______ _______ _______ _____ _____    ______ ____
ROOT
ATOM      1  C   UNL     1       1.893   0.351  -4.928  0.00  0.00    +0.047 C 
ATOM      2  C   UNL     1       2.232   0.718  -3.507  0.00  0.00    -0.008 A 
ATOM      3  C   UNL     1       1.327   0.982  -2.472  0.00  0.00    +0.042 A 
ATOM      4  C   UNL     1       2.067   1.276  -1.326  0.00  0.00    +0.028 A 
ATOM      5  N   UNL     1       3.359   1.201  -1.642  0.00  0.00    -0.352 N 
ATOM      6  H   UNL     1       4.096   1.361  -1.032  0.00  0.00    +0.166 HD
ATOM      7  C   UNL     1       3.485   0.859  -2.975  0.00  0.00    +0.128 A 
ATOM      8  C   UNL     1       1.426   1.610  -0.003  0.00  0.00    +0.062 C 
ATOM      9  C   UNL     1      -0.013   1.086   0.008  0.00  0.00    +0.032 C 
ATOM     10  C   UNL     1      -0.781   1.587  -1.219  0.00  0.00    +0.088 C 
ATOM     11  C   UNL     1      -0.144   0.985  -2.463  0.00  0.00    +0.166 C 
ATOM     12  O   UNL     1      -0.802   0.540  -3.381  0.00  0.00    -0.292 OA
ENDROOT
BRANCH   9  13
ATOM     13  C   UNL     1      -0.706   1.566   1.257  0.00  0.00    -0.036 A 
ATOM     14  C   UNL     1      -0.844   2.921   1.491  0.00  0.00    +0.053 A 
ATOM     15  C   UNL     1      -1.486   3.367   2.636  0.00  0.00    +0.165 A 
ATOM     16  C   UNL     1      -1.983   2.449   3.554  0.00  0.00    +0.204 A 
ATOM     17  C   UNL     1      -1.838   1.087   3.317  0.00  0.00    +0.165 A 
ATOM     18  C   UNL     1      -1.199   0.650   2.167  0.00  0.00    +0.053 A 
BRANCH  17  19
ATOM     19  O   UNL     1      -2.323   0.185   4.212  0.00  0.00    -0.491 OA
ATOM     20  C   UNL     1      -2.139  -1.198   3.903  0.00  0.00    +0.277 C 
ENDBRANCH  17  19
BRANCH  16  21
ATOM     21  O   UNL     1      -2.610   2.883   4.681  0.00  0.00    -0.488 OA
ATOM     22  C   UNL     1      -1.795   3.101   5.834  0.00  0.00    +0.277 C 
ENDBRANCH  16  21
BRANCH  15  23
ATOM     23  O   UNL     1      -1.626   4.701   2.863  0.00  0.00    -0.491 OA
ATOM     24  C   UNL     1      -1.091   5.586   1.877  0.00  0.00    +0.277 C 
ENDBRANCH  15  23
ENDBRANCH   9  13
BRANCH   7  25
ATOM     25  C   UNL     1       4.748   0.676  -3.698  0.00  0.00    +0.356 C 
ATOM     26  O   UNL     1       4.737   0.373  -4.875  0.00  0.00    -0.243 OA
BRANCH  25  27
ATOM     27  O   UNL     1       5.923   0.844  -3.056  0.00  0.00    -0.457 OA
BRANCH  27  28
ATOM     28  C   UNL     1       7.133   0.647  -3.834  0.00  0.00    +0.177 C 
ATOM     29  C   UNL     1       7.562  -0.819  -3.748  0.00  0.00    +0.044 C 
ATOM     30  C   UNL     1       8.574  -1.120  -4.855  0.00  0.00    +0.004 C 
ATOM     31  C   UNL     1       8.098  -0.493  -6.167  0.00  0.00    +0.000 C 
ATOM     32  C   UNL     1       9.051   0.634  -6.569  0.00  0.00    +0.000 C 
ATOM     33  C   UNL     1       8.783   1.863  -5.698  0.00  0.00    +0.000 C 
ATOM     34  C   UNL     1       9.376   1.640  -4.305  0.00  0.00    +0.004 C 
ATOM     35  C   UNL     1       8.246   1.538  -3.279  0.00  0.00    +0.044 C 
ENDBRANCH  27  28
ENDBRANCH  25  27
ENDBRANCH   7  25
TORSDOF 7
