REMARK  Name = ZINC20558405
REMARK  5 active torsions:
REMARK  status: ('A' for Active; 'I' for Inactive)
REMARK    1  A    between atoms: C_1  and  C_2
REMARK    2  A    between atoms: C_2  and  N_3
REMARK    3  A    between atoms: C_15  and  C_23
REMARK    4  A    between atoms: C_17  and  C_21
REMARK    5  A    between atoms: C_18  and  N_20
REMARK                            x       y       z     vdW  Elec       q    Type
REMARK                         _______ _______ _______ _____ _____    ______ ____
ROOT
ATOM      1  N   UNL     1       1.892  -3.894   3.648  0.00  0.00    -0.203 N 
ATOM      2  C   UNL     1       3.266  -4.087   3.458  0.00  0.00    +0.062 A 
ATOM      3  C   UNL     1       4.008  -4.657   4.485  0.00  0.00    +0.025 A 
ATOM      4  C   UNL     1       5.368  -4.842   4.338  0.00  0.00    +0.002 A 
ATOM      5  C   UNL     1       5.997  -4.461   3.165  0.00  0.00    +0.001 A 
ATOM      6  C   UNL     1       5.272  -3.899   2.137  0.00  0.00    +0.013 A 
ATOM      7  C   UNL     1       3.890  -3.708   2.269  0.00  0.00    +0.042 A 
ATOM      8  C   UNL     1       3.163  -3.107   1.126  0.00  0.00    +0.162 C 
ATOM      9  C   UNL     1       1.952  -2.575   1.271  0.00  0.00    +0.141 C 
ATOM     10  S   UNL     1       1.198  -2.595   2.871  0.00  0.00    +0.075 S 
ATOM     11  O   UNL     1       1.631  -1.424   3.550  0.00  0.00    -0.150 OA
ATOM     12  O   UNL     1      -0.174  -2.911   2.679  0.00  0.00    -0.150 OA
ATOM     13  C   UNL     1       1.213  -1.962   0.114  0.00  0.00    +0.119 C 
ATOM     14  C   UNL     1       1.812  -2.427  -1.185  0.00  0.00    +0.099 C 
ATOM     15  C   UNL     1       3.051  -2.974  -1.212  0.00  0.00    +0.199 C 
ATOM     16  O   UNL     1       3.773  -3.112  -0.089  0.00  0.00    -0.439 OA
ENDROOT
BRANCH  13  17
ATOM     17  C   UNL     1       1.308  -0.461   0.199  0.00  0.00    -0.015 A 
ATOM     18  C   UNL     1       2.544   0.157   0.166  0.00  0.00    +0.006 A 
ATOM     19  C   UNL     1       2.631   1.534   0.243  0.00  0.00    +0.000 A 
ATOM     20  C   UNL     1       1.482   2.295   0.355  0.00  0.00    +0.001 A 
ATOM     21  C   UNL     1       0.245   1.678   0.389  0.00  0.00    +0.020 A 
ATOM     22  C   UNL     1       0.158   0.299   0.311  0.00  0.00    +0.045 A 
ATOM     23 CL   UNL     1      -1.395  -0.476   0.353  0.00  0.00    -0.083 Cl
ENDBRANCH  13  17
BRANCH  15  24
ATOM     24  N   UNL     1       3.577  -3.395  -2.408  0.00  0.00    -0.328 N 
ATOM     25  H   UNL     1       4.582  -3.841  -2.439  0.00  0.00    +0.145 HD
ATOM     26  H   UNL     1       2.994  -3.287  -3.334  0.00  0.00    +0.145 HD
ENDBRANCH  15  24
BRANCH   1  28
ATOM     27  C   UNL     1       0.682  -6.019   3.680  0.00  0.00    +0.026 C 
ATOM     28  C   UNL     1       1.102  -4.792   4.493  0.00  0.00    +0.128 C 
ENDBRANCH   1  28
BRANCH  14  29
ATOM     29  C   UNL     1       1.071  -2.290  -2.403  0.00  0.00    +0.101 C 
ATOM     30  N   UNL     1       0.483  -2.181  -3.369  0.00  0.00    -0.191 NA
ENDBRANCH  14  29
TORSDOF 4
