REMARK  Name = ZINC66668483
REMARK  12 active torsions:
REMARK  status: ('A' for Active; 'I' for Inactive)
REMARK    1  A    between atoms: C_1  and  C_2
REMARK    2  A    between atoms: C_2  and  O_3
REMARK    3  A    between atoms: O_3  and  C_4
REMARK    4  A    between atoms: N_6  and  C_7
REMARK    5  A    between atoms: C_11  and  N_14
REMARK    6  A    between atoms: C_12  and  C_13
REMARK    7  A    between atoms: N_17  and  C_18
REMARK    8  A    between atoms: C_18  and  C_20
REMARK    9  A    between atoms: C_18  and  C_21
REMARK   10  A    between atoms: C_21  and  C_22
REMARK   11  A    between atoms: C_25  and  C_29
REMARK   12  A    between atoms: C_27  and  C_28
REMARK                            x       y       z     vdW  Elec       q    Type
REMARK                         _______ _______ _______ _____ _____    ______ ____
ROOT
ATOM      1  N   UNL     1      -5.556  -6.133  -0.392  0.00  0.00    -0.269 N 
ATOM      2  C   UNL     1      -5.722  -7.470  -0.392  0.00  0.00    +0.304 C 
ATOM      3  O   UNL     1      -4.751  -8.203  -0.390  0.00  0.00    -0.253 OA
ATOM      4  N   UNL     1      -6.963  -7.995  -0.394  0.00  0.00    -0.296 N 
ATOM      5  H   UNL     1      -6.327  -5.548  -0.462  0.00  0.00    +0.156 HD
ATOM      6  H   UNL     1      -7.737  -7.410  -0.395  0.00  0.00    +0.151 HD
ENDROOT
BRANCH   1  11
ATOM      7  C   UNL     1      -2.798  -3.863   0.501  0.00  0.00    +0.041 A 
ATOM      8  C   UNL     1      -1.724  -4.512  -0.094  0.00  0.00    +0.024 A 
ATOM      9  C   UNL     1      -1.924  -5.693  -0.783  0.00  0.00    +0.004 A 
ATOM     10  C   UNL     1      -3.193  -6.231  -0.883  0.00  0.00    +0.024 A 
ATOM     11  C   UNL     1      -4.271  -5.587  -0.290  0.00  0.00    +0.039 A 
ATOM     12  C   UNL     1      -4.072  -4.404   0.408  0.00  0.00    -0.008 A 
ATOM     13  C   UNL     1      -5.239  -3.706   1.058  0.00  0.00    +0.047 C 
BRANCH   7  16
ATOM     14  C   UNL     1      -1.386  -2.393   1.728  0.00  0.00    +0.405 C 
ATOM     15  O   UNL     1      -0.503  -3.227   1.690  0.00  0.00    -0.226 OA
ATOM     16  N   UNL     1      -2.595  -2.667   1.199  0.00  0.00    -0.251 N 
ATOM     17  H   UNL     1      -3.323  -2.035   1.302  0.00  0.00    +0.158 HD
BRANCH  14  18
ATOM     18  O   UNL     1      -1.157  -1.196   2.300  0.00  0.00    -0.450 OA
BRANCH  18  20
ATOM     19  C   UNL     1       0.218   0.431   3.443  0.00  0.00    +0.048 C 
ATOM     20  C   UNL     1       0.147  -0.974   2.841  0.00  0.00    +0.230 C 
ENDBRANCH  18  20
ENDBRANCH  14  18
ENDBRANCH   7  16
ENDBRANCH   1  11
BRANCH   4  21
ATOM     21  C   UNL     1      -7.143  -9.449  -0.394  0.00  0.00    +0.076 C 
ATOM     22  C   UNL     1      -7.083  -9.970   1.043  0.00  0.00    +0.028 C 
BRANCH  21  23
ATOM     23  C   UNL     1      -8.502  -9.794  -1.006  0.00  0.00    +0.057 C 
BRANCH  23  24
ATOM     24  C   UNL     1      -8.517  -9.391  -2.458  0.00  0.00    -0.043 A 
ATOM     25  C   UNL     1      -9.027  -8.160  -2.828  0.00  0.00    +0.004 A 
ATOM     26  C   UNL     1      -9.040  -7.790  -4.160  0.00  0.00    +0.003 A 
ATOM     27  C   UNL     1      -8.543  -8.650  -5.121  0.00  0.00    -0.050 A 
ATOM     28  C   UNL     1      -8.032  -9.880  -4.751  0.00  0.00    +0.007 A 
ATOM     29  C   UNL     1      -8.015 -10.248  -3.418  0.00  0.00    -0.047 A 
ATOM     30  C   UNL     1      -7.453 -11.587  -3.014  0.00  0.00    +0.044 C 
ATOM     31  C   UNL     1      -8.559  -8.247  -6.573  0.00  0.00    +0.044 C 
ENDBRANCH  23  24
ENDBRANCH  21  23
ENDBRANCH   4  21
TORSDOF 7
