REMARK  Name = ZINC12660897
REMARK  6 active torsions:
REMARK  status: ('A' for Active; 'I' for Inactive)
REMARK    1  A    between atoms: C_1  and  C_2
REMARK    2  A    between atoms: C_4  and  O_38
REMARK    3  A    between atoms: C_14  and  C_16
REMARK    4  A    between atoms: C_16  and  C_21
REMARK    5  A    between atoms: C_26  and  C_37
REMARK    6  A    between atoms: N_28  and  O_29
REMARK                            x       y       z     vdW  Elec       q    Type
REMARK                         _______ _______ _______ _____ _____    ______ ____
ROOT
ATOM      1  C   UNL     1      -0.227   4.051   0.619  0.00  0.00    +0.012 C 
ATOM      2  C   UNL     1      -1.374   3.047   0.774  0.00  0.00    -0.019 C 
ATOM      3  C   UNL     1      -2.521   3.665   1.532  0.00  0.00    +0.039 C 
ATOM      4  C   UNL     1      -2.482   3.250   3.018  0.00  0.00    +0.119 C 
ATOM      5  C   UNL     1      -1.042   3.098   3.462  0.00  0.00    +0.033 C 
ATOM      6  C   UNL     1      -0.406   1.870   2.802  0.00  0.00    -0.001 C 
ATOM      7  C   UNL     1      -0.907   1.719   1.401  0.00  0.00    -0.001 C 
ATOM      8  C   UNL     1       0.086   1.201   0.349  0.00  0.00    +0.005 C 
ATOM      9  C   UNL     1      -0.600   1.569  -0.995  0.00  0.00    +0.009 C 
ATOM     10  C   UNL     1      -1.733   2.568  -0.650  0.00  0.00    +0.054 C 
ATOM     11  C   UNL     1       1.108   1.979   2.950  0.00  0.00    +0.004 C 
ATOM     12  C   UNL     1       1.413   1.930   4.456  0.00  0.00    +0.005 C 
ATOM     13  C   UNL     1       0.747   3.102   5.175  0.00  0.00    +0.006 C 
ATOM     14  C   UNL     1      -0.776   3.098   4.954  0.00  0.00    +0.018 C 
ATOM     15  C   UNL     1      -1.347   1.911   5.680  0.00  0.00    +0.069 C 
ATOM     16  N   UNL     1      -2.062   1.018   5.115  0.00  0.00    -0.096 NA
ATOM     17  C   UNL     1      -1.042   1.790   7.163  0.00  0.00    +0.119 C 
ATOM     18  C   UNL     1       0.472   1.848   7.363  0.00  0.00    +0.176 C 
ATOM     19  C   UNL     1       1.080   3.057   6.661  0.00  0.00    +0.069 C 
ATOM     20  O   UNL     1       1.071   0.638   6.871  0.00  0.00    -0.346 OA
ATOM     21  C   UNL     1       2.141   0.346   7.801  0.00  0.00    +0.191 C 
ATOM     22  C   UNL     1       1.493   0.770   9.144  0.00  0.00    +0.191 C 
ATOM     23  O   UNL     1       0.748   1.948   8.774  0.00  0.00    -0.346 OA
ATOM     24  C   UNL     1      -1.349   4.388   5.562  0.00  0.00    +0.018 C 
ENDROOT
BRANCH  10  25
ATOM     25  C   UNL     1      -1.720   3.754  -1.616  0.00  0.00    +0.171 C 
ATOM     26  O   UNL     1      -0.421   4.369  -1.608  0.00  0.00    -0.346 OA
ATOM     27  C   UNL     1      -0.680   5.785  -1.762  0.00  0.00    +0.191 C 
ATOM     28  C   UNL     1      -1.988   5.956  -0.949  0.00  0.00    +0.191 C 
ATOM     29  O   UNL     1      -2.692   4.723  -1.201  0.00  0.00    -0.346 OA
ATOM     30  C   UNL     1      -2.048   3.270  -3.030  0.00  0.00    +0.074 C 
ENDBRANCH  10  25
BRANCH  16  31
ATOM     31  O   UNL     1      -2.563  -0.070   5.870  0.00  0.00    -0.409 OA
ATOM     32  H   UNL     1      -3.093  -0.695   5.356  0.00  0.00    +0.328 HD
ENDBRANCH  16  31
BRANCH   4  33
ATOM     33  O   UNL     1      -3.203   2.023   3.165  0.00  0.00    -0.391 OA
ATOM     34  H   UNL     1      -4.131   2.078   2.898  0.00  0.00    +0.210 HD
ENDBRANCH   4  33
TORSDOF 3
