REMARK  Name = ZINC34829770
REMARK  8 active torsions:
REMARK  status: ('A' for Active; 'I' for Inactive)
REMARK    1  A    between atoms: C_1  and  C_2
REMARK    2  A    between atoms: C_2  and  C_3
REMARK    3  A    between atoms: C_6  and  C_9
REMARK    4  A    between atoms: C_16  and  C_18
REMARK    5  A    between atoms: C_19  and  C_21
REMARK    6  A    between atoms: C_21  and  N_22
REMARK    7  A    between atoms: C_30  and  C_32
REMARK    8  A    between atoms: C_35  and  C_38
REMARK                            x       y       z     vdW  Elec       q    Type
REMARK                         _______ _______ _______ _____ _____    ______ ____
ROOT
ATOM      1  C   UNL     1       2.776  -1.460  -4.827  0.00  0.00    +0.247 C 
ATOM      2  O   UNL     1       2.121  -1.689  -5.825  0.00  0.00    -0.270 OA
ATOM      3  N   UNL     1       4.091  -1.750  -4.802  0.00  0.00    -0.292 N 
ATOM      4  C   UNL     1       4.894  -1.484  -3.600  0.00  0.00    +0.127 C 
ATOM      5  C   UNL     1       6.083  -0.598  -3.991  0.00  0.00    +0.126 C 
ATOM      6  N   UNL     1       6.741  -1.187  -5.166  0.00  0.00    -0.300 N 
ATOM      7  C   UNL     1       5.939  -1.453  -6.368  0.00  0.00    +0.130 C 
ATOM      8  C   UNL     1       4.748  -2.344  -5.976  0.00  0.00    +0.091 C 
ATOM      9  C   UNL     1       3.755  -2.418  -7.137  0.00  0.00    +0.029 C 
ATOM     10  C   UNL     1       8.057  -1.477  -5.141  0.00  0.00    +0.199 C 
ATOM     11  O   UNL     1       8.589  -1.963  -6.117  0.00  0.00    -0.278 OA
ENDROOT
BRANCH   1  15
ATOM     12  C   UNL     1       0.915   0.256  -1.415  0.00  0.00    -0.048 A 
ATOM     13  C   UNL     1       0.463   0.579  -2.682  0.00  0.00    +0.004 A 
ATOM     14  C   UNL     1       1.062   0.026  -3.794  0.00  0.00    +0.013 A 
ATOM     15  C   UNL     1       2.128  -0.862  -3.639  0.00  0.00    +0.037 A 
ATOM     16  C   UNL     1       2.580  -1.184  -2.359  0.00  0.00    +0.013 A 
ATOM     17  C   UNL     1       1.975  -0.619  -1.255  0.00  0.00    +0.004 A 
BRANCH  12  19
ATOM     18  C   UNL     1       0.955   2.179   0.151  0.00  0.00    +0.009 C 
ATOM     19  C   UNL     1       0.255   0.865  -0.205  0.00  0.00    +0.032 C 
ENDBRANCH  12  19
ENDBRANCH   1  15
BRANCH  10  20
ATOM     20  C   UNL     1       8.867  -1.199  -3.902  0.00  0.00    +0.020 C 
BRANCH  20  21
ATOM     21  N   UNL     1      10.262  -1.601  -4.128  0.00  0.00    +0.393 N 
ATOM     22  C   UNL     1      10.836  -0.774  -5.198  0.00  0.00    -0.072 C 
ATOM     23  C   UNL     1      12.162  -1.405  -5.657  0.00  0.00    +0.024 C 
ATOM     24  C   UNL     1      12.952  -1.735  -4.433  0.00  0.00    -0.010 A 
ATOM     25  C   UNL     1      12.486  -1.761  -3.152  0.00  0.00    -0.047 A 
ATOM     26  C   UNL     1      13.408  -2.092  -2.162  0.00  0.00    +0.010 A 
ATOM     27  C   UNL     1      14.690  -2.369  -2.497  0.00  0.00    +0.045 A 
ATOM     28  S   UNL     1      14.659  -2.172  -4.273  0.00  0.00    -0.101 S 
ATOM     29  C   UNL     1      11.020  -1.439  -2.881  0.00  0.00    -0.005 C 
ATOM     30  H   UNL     1      10.287  -2.570  -4.408  0.00  0.00    -0.080 HD
BRANCH  29  31
ATOM     31  C   UNL     1      10.480  -2.382  -1.836  0.00  0.00    -0.057 A 
ATOM     32  C   UNL     1      10.116  -3.668  -2.189  0.00  0.00    +0.002 A 
ATOM     33  C   UNL     1       9.621  -4.534  -1.231  0.00  0.00    +0.003 A 
ATOM     34  C   UNL     1       9.491  -4.113   0.080  0.00  0.00    -0.050 A 
ATOM     35  C   UNL     1       9.856  -2.827   0.432  0.00  0.00    +0.003 A 
ATOM     36  C   UNL     1      10.355  -1.963  -0.525  0.00  0.00    +0.002 A 
ATOM     37  C   UNL     1       8.951  -5.056   1.124  0.00  0.00    +0.044 C 
ENDBRANCH  29  31
ENDBRANCH  20  21
ENDBRANCH  10  20
TORSDOF 5
