REMARK  Name = ZINC38650739
REMARK  11 active torsions:
REMARK  status: ('A' for Active; 'I' for Inactive)
REMARK    1  A    between atoms: C_1  and  C_2
REMARK    2  A    between atoms: C_2  and  C_3
REMARK    3  A    between atoms: C_3  and  O_4
REMARK    4  A    between atoms: O_4  and  C_5
REMARK    5  A    between atoms: C_8  and  C_11
REMARK    6  A    between atoms: C_16  and  O_25
REMARK    7  A    between atoms: C_20  and  N_24
REMARK    8  A    between atoms: C_21  and  C_22
REMARK    9  A    between atoms: O_25  and  C_26
REMARK   10  A    between atoms: C_26  and  C_28
REMARK   11  A    between atoms: C_30  and  N_35
REMARK                            x       y       z     vdW  Elec       q    Type
REMARK                         _______ _______ _______ _____ _____    ______ ____
ROOT
ATOM      1  C   UNL     1       3.367  -4.434   5.507  0.00  0.00    +0.098 C 
ATOM      2  C   UNL     1       4.504  -5.278   4.994  0.00  0.00    +0.008 A 
ATOM      3  C   UNL     1       5.647  -4.662   4.517  0.00  0.00    +0.012 A 
ATOM      4  C   UNL     1       6.700  -5.419   4.042  0.00  0.00    +0.047 A 
ATOM      5  C   UNL     1       6.613  -6.804   4.043  0.00  0.00    +0.135 A 
ATOM      6  C   UNL     1       5.470  -7.425   4.520  0.00  0.00    +0.093 A 
ATOM      7  C   UNL     1       4.412  -6.661   4.996  0.00  0.00    +0.138 A 
ATOM      8  O   UNL     1       3.299  -7.283   5.459  0.00  0.00    -0.441 OA
ATOM      9  C   UNL     1       2.448  -6.624   6.263  0.00  0.00    +0.199 C 
ATOM     10  C   UNL     1       2.431  -5.274   6.330  0.00  0.00    +0.098 C 
ENDROOT
BRANCH   1  14
ATOM     11  C   UNL     1       1.237  -2.766   2.200  0.00  0.00    +0.121 A 
ATOM     12  C   UNL     1       1.838  -1.932   3.131  0.00  0.00    +0.046 A 
ATOM     13  C   UNL     1       2.526  -2.473   4.199  0.00  0.00    +0.008 A 
ATOM     14  C   UNL     1       2.616  -3.846   4.341  0.00  0.00    -0.034 A 
ATOM     15  C   UNL     1       2.018  -4.679   3.414  0.00  0.00    +0.008 A 
ATOM     16  C   UNL     1       1.324  -4.143   2.347  0.00  0.00    +0.046 A 
BRANCH  11  17
ATOM     17  O   UNL     1       0.560  -2.235   1.148  0.00  0.00    -0.492 OA
BRANCH  17  18
ATOM     18  C   UNL     1       0.512  -0.810   1.060  0.00  0.00    +0.229 C 
BRANCH  18  20
ATOM     19  C   UNL     1      -0.340   1.124  -0.274  0.00  0.00    +0.007 C 
ATOM     20  C   UNL     1      -0.288  -0.402  -0.179  0.00  0.00    +0.038 C 
ENDBRANCH  18  20
ENDBRANCH  17  18
ENDBRANCH  11  17
ENDBRANCH   1  14
BRANCH   9  21
ATOM     21  N   UNL     1       1.571  -7.342   7.036  0.00  0.00    -0.328 N 
ATOM     22  H   UNL     1       1.571  -8.311   6.997  0.00  0.00    +0.145 HD
ATOM     23  H   UNL     1       0.950  -6.880   7.621  0.00  0.00    +0.145 HD
ENDBRANCH   9  21
BRANCH  10  24
ATOM     24  C   UNL     1       1.498  -4.632   7.206  0.00  0.00    +0.101 C 
ATOM     25  N   UNL     1       0.758  -4.122   7.901  0.00  0.00    -0.191 NA
ENDBRANCH  10  24
BRANCH   5  26
ATOM     26  O   UNL     1       7.648  -7.551   3.575  0.00  0.00    -0.422 OA
BRANCH  26  27
ATOM     27  C   UNL     1       8.787  -7.575   4.295  0.00  0.00    +0.346 C 
ATOM     28  O   UNL     1       8.832  -7.027   5.379  0.00  0.00    -0.244 OA
BRANCH  27  29
ATOM     29  C   UNL     1       9.979  -8.267   3.768  0.00  0.00    +0.080 A 
ATOM     30  C   UNL     1       9.932  -8.893   2.520  0.00  0.00    +0.049 A 
ATOM     31  C   UNL     1      11.050  -9.538   2.033  0.00  0.00    +0.127 A 
ATOM     32  C   UNL     1      12.217  -9.566   2.777  0.00  0.00    +0.034 A 
ATOM     33  C   UNL     1      12.272  -8.949   4.014  0.00  0.00    +0.023 A 
ATOM     34  C   UNL     1      11.162  -8.294   4.511  0.00  0.00    +0.055 A 
ATOM     35 CL   UNL     1      11.234  -7.512   6.060  0.00  0.00    -0.083 Cl
BRANCH  31  36
ATOM     36  N   UNL     1      11.002 -10.202   0.711  0.00  0.00    +0.056 N 
ATOM     37  O   UNL     1       9.983 -10.178   0.060  0.00  0.00    -0.126 OA
ATOM     38  O   UNL     1      11.981 -10.767   0.283  0.00  0.00    -0.126 OA
ENDBRANCH  31  36
ENDBRANCH  27  29
ENDBRANCH  26  27
ENDBRANCH   5  26
TORSDOF 10
