REMARK  Name = ZINC57341492
REMARK  3 active torsions:
REMARK  status: ('A' for Active; 'I' for Inactive)
REMARK    1  A    between atoms: C_1  and  C_2
REMARK    2  A    between atoms: C_6  and  C_8
REMARK    3  A    between atoms: N_14  and  C_15
REMARK                            x       y       z     vdW  Elec       q    Type
REMARK                         _______ _______ _______ _____ _____    ______ ____
ROOT
ATOM      1  C   UNL     1       0.221  -2.857   2.468  0.00  0.00    +0.080 A 
ATOM      2  C   UNL     1       0.024  -4.229   2.450  0.00  0.00    +0.098 A 
ATOM      3  C   UNL     1      -0.171  -4.897   3.669  0.00  0.00    +0.253 A 
ATOM      4  N   UNL     1      -0.159  -4.181   4.812  0.00  0.00    -0.295 N 
ATOM      5  C   UNL     1       0.040  -2.835   4.774  0.00  0.00    +0.200 A 
ATOM      6  N   UNL     1       0.228  -2.201   3.636  0.00  0.00    -0.216 NA
ATOM      7  N   UNL     1       0.049  -2.125   5.947  0.00  0.00    -0.284 N 
ATOM      8  O   UNL     1      -0.348  -6.104   3.694  0.00  0.00    -0.268 OA
ATOM      9  H   UNL     1      -0.001  -2.591   6.796  0.00  0.00    +0.155 HD
ATOM     10  H   UNL     1      -0.292  -4.627   5.664  0.00  0.00    +0.172 HD
ENDROOT
BRANCH   7  11
ATOM     11  C   UNL     1       0.130  -0.727   5.918  0.00  0.00    +0.048 A 
ATOM     12  C   UNL     1      -0.477  -0.017   4.891  0.00  0.00    +0.027 A 
ATOM     13  C   UNL     1      -0.397   1.362   4.865  0.00  0.00    +0.040 A 
ATOM     14  C   UNL     1       0.288   2.036   5.862  0.00  0.00    +0.125 A 
ATOM     15  C   UNL     1       0.894   1.330   6.888  0.00  0.00    +0.055 A 
ATOM     16  C   UNL     1       0.812  -0.049   6.921  0.00  0.00    +0.042 A 
ATOM     17 BR   UNL     1       1.634  -1.013   8.325  0.00  0.00    -0.048 Br
ATOM     18  F   UNL     1       0.366   3.384   5.834  0.00  0.00    -0.205 F 
ENDBRANCH   7  11
BRANCH   1  24
ATOM     19  C   UNL     1       1.050   1.433   0.052  0.00  0.00    +0.044 C 
ATOM     20  C   UNL     1       0.829  -0.058   0.034  0.00  0.00    -0.050 A 
ATOM     21  C   UNL     1       0.821  -0.740  -1.169  0.00  0.00    +0.003 A 
ATOM     22  C   UNL     1       0.619  -2.108  -1.194  0.00  0.00    +0.001 A 
ATOM     23  C   UNL     1       0.423  -2.801  -0.016  0.00  0.00    +0.010 A 
ATOM     24  C   UNL     1       0.430  -2.119   1.200  0.00  0.00    +0.001 A 
ATOM     25  C   UNL     1       0.640  -0.740   1.218  0.00  0.00    +0.013 A 
ENDBRANCH   1  24
TORSDOF 2
