REMARK  Name = ZINC08633100
REMARK  12 active torsions:
REMARK  status: ('A' for Active; 'I' for Inactive)
REMARK    1  A    between atoms: C_1  and  C_2
REMARK    2  A    between atoms: N_13  and  C_33
REMARK    3  A    between atoms: C_14  and  S_16
REMARK    4  A    between atoms: S_16  and  C_17
REMARK    5  A    between atoms: C_17  and  C_19
REMARK    6  A    between atoms: C_17  and  C_20
REMARK    7  A    between atoms: N_22  and  C_23
REMARK    8  A    between atoms: C_25  and  O_31
REMARK    9  A    between atoms: C_28  and  O_29
REMARK   10  A    between atoms: O_29  and  C_30
REMARK   11  A    between atoms: O_31  and  C_32
REMARK   12  A    between atoms: C_33  and  C_34
REMARK                            x       y       z     vdW  Elec       q    Type
REMARK                         _______ _______ _______ _____ _____    ______ ____
ROOT
ATOM      1  C   UNL     1     -11.058   6.107   0.384  0.00  0.00    +0.008 C 
ATOM      2  C   UNL     1      -9.542   6.035   0.190  0.00  0.00    -0.009 C 
ATOM      3  C   UNL     1      -8.840   6.717   1.368  0.00  0.00    +0.008 C 
ATOM      4  C   UNL     1      -7.348   6.869   1.067  0.00  0.00    +0.037 C 
ATOM      5  C   UNL     1      -6.787   5.508   0.663  0.00  0.00    -0.023 A 
ATOM      6  C   UNL     1      -7.606   4.517   0.257  0.00  0.00    -0.004 A 
ATOM      7  S   UNL     1      -6.535   3.151  -0.101  0.00  0.00    -0.073 S 
ATOM      8  C   UNL     1      -4.984   3.918   0.294  0.00  0.00    +0.117 A 
ATOM      9  C   UNL     1      -5.353   5.214   0.695  0.00  0.00    +0.076 A 
ATOM     10  C   UNL     1      -4.279   6.077   1.080  0.00  0.00    +0.263 A 
ATOM     11  O   UNL     1      -4.503   7.219   1.442  0.00  0.00    -0.267 OA
ATOM     12  N   UNL     1      -3.017   5.609   1.041  0.00  0.00    -0.283 N 
ATOM     13  C   UNL     1      -2.747   4.335   0.633  0.00  0.00    +0.174 A 
ATOM     14  N   UNL     1      -3.717   3.519   0.274  0.00  0.00    -0.216 NA
ATOM     15  C   UNL     1      -9.099   4.565   0.138  0.00  0.00    +0.046 C 
ENDROOT
BRANCH  13  16
ATOM     16  S   UNL     1      -1.078   3.771   0.593  0.00  0.00    -0.075 S 
BRANCH  16  17
ATOM     17  C   UNL     1      -1.332   2.079   0.004  0.00  0.00    +0.137 C 
ATOM     18  C   UNL     1      -1.895   2.113  -1.418  0.00  0.00    +0.029 C 
BRANCH  17  19
ATOM     19  C   UNL     1      -0.017   1.344   0.006  0.00  0.00    +0.230 C 
ATOM     20  O   UNL     1       1.025   1.964   0.005  0.00  0.00    -0.274 OA
ATOM     21  N   UNL     1       0.002  -0.004   0.002  0.00  0.00    -0.282 N 
ATOM     22  H   UNL     1      -0.827  -0.501   0.083  0.00  0.00    +0.155 HD
BRANCH  21  23
ATOM     23  C   UNL     1       1.219  -0.688  -0.119  0.00  0.00    +0.079 A 
ATOM     24  C   UNL     1       2.302  -0.075  -0.731  0.00  0.00    +0.072 A 
ATOM     25  C   UNL     1       3.506  -0.752  -0.846  0.00  0.00    +0.122 A 
ATOM     26  C   UNL     1       3.626  -2.045  -0.358  0.00  0.00    +0.049 A 
ATOM     27  C   UNL     1       2.546  -2.659   0.249  0.00  0.00    +0.051 A 
ATOM     28  C   UNL     1       1.342  -1.986   0.370  0.00  0.00    +0.141 A 
BRANCH  28  29
ATOM     29  O   UNL     1       0.280  -2.592   0.966  0.00  0.00    -0.493 OA
ATOM     30  C   UNL     1       0.477  -3.924   1.445  0.00  0.00    +0.277 C 
ENDBRANCH  28  29
BRANCH  25  31
ATOM     31  O   UNL     1       4.570  -0.150  -1.442  0.00  0.00    -0.495 OA
ATOM     32  C   UNL     1       5.779  -0.908  -1.531  0.00  0.00    +0.277 C 
ENDBRANCH  25  31
ENDBRANCH  21  23
ENDBRANCH  17  19
ENDBRANCH  16  17
ENDBRANCH  13  16
BRANCH  12  33
ATOM     33  C   UNL     1      -1.913   6.486   1.440  0.00  0.00    +0.154 C 
BRANCH  33  34
ATOM     34  C   UNL     1      -1.412   7.242   0.236  0.00  0.00    -0.013 C 
ATOM     35  C   UNL     1      -1.357   8.550   0.261  0.00  0.00    +0.005 C 
ENDBRANCH  33  34
ENDBRANCH  12  33
TORSDOF 8
