REMARK  Name = ZINC08978090
REMARK  13 active torsions:
REMARK  status: ('A' for Active; 'I' for Inactive)
REMARK    1  A    between atoms: C_1  and  C_2
REMARK    2  A    between atoms: C_7  and  C_8
REMARK    3  A    between atoms: C_10  and  C_28
REMARK    4  A    between atoms: C_11  and  O_14
REMARK    5  A    between atoms: O_14  and  C_15
REMARK    6  A    between atoms: C_15  and  C_16
REMARK    7  A    between atoms: C_16  and  C_18
REMARK    8  A    between atoms: C_21  and  N_24
REMARK    9  A    between atoms: C_25  and  C_27
REMARK   10  A    between atoms: C_31  and  O_36
REMARK   11  A    between atoms: C_32  and  O_34
REMARK   12  A    between atoms: O_34  and  C_35
REMARK   13  A    between atoms: O_36  and  C_37
REMARK                            x       y       z     vdW  Elec       q    Type
REMARK                         _______ _______ _______ _____ _____    ______ ____
ROOT
ATOM      1  C   UNL     1       5.517  13.463   3.980  0.00  0.00    +0.044 C 
ATOM      2  C   UNL     1       4.717  13.124   2.749  0.00  0.00    -0.047 A 
ATOM      3  C   UNL     1       3.732  12.163   2.814  0.00  0.00    +0.019 A 
ATOM      4  C   UNL     1       2.995  11.854   1.671  0.00  0.00    +0.068 A 
ATOM      5  C   UNL     1       3.256  12.518   0.462  0.00  0.00    +0.140 A 
ATOM      6  C   UNL     1       4.254  13.483   0.418  0.00  0.00    +0.050 A 
ATOM      7  C   UNL     1       4.975  13.780   1.555  0.00  0.00    -0.044 A 
ATOM      8  C   UNL     1       6.056  14.829   1.499  0.00  0.00    +0.044 C 
ATOM      9  O   UNL     1       2.539  12.216  -0.641  0.00  0.00    -0.451 OA
ATOM     10  C   UNL     1       1.566  11.290  -0.636  0.00  0.00    +0.181 A 
ATOM     11  C   UNL     1       1.232  10.583   0.494  0.00  0.00    +0.211 A 
ATOM     12  C   UNL     1       1.927  10.836   1.702  0.00  0.00    +0.235 A 
ATOM     13  O   UNL     1       1.656  10.232   2.728  0.00  0.00    -0.283 OA
ENDROOT
BRANCH  10  14
ATOM     14  C   UNL     1       0.832  11.023  -1.886  0.00  0.00    +0.025 A 
ATOM     15  C   UNL     1      -0.565  10.974  -1.882  0.00  0.00    +0.015 A 
ATOM     16  C   UNL     1      -1.249  10.724  -3.052  0.00  0.00    +0.050 A 
ATOM     17  C   UNL     1      -0.554  10.520  -4.236  0.00  0.00    +0.162 A 
ATOM     18  C   UNL     1       0.838  10.568  -4.248  0.00  0.00    +0.162 A 
ATOM     19  C   UNL     1       1.531  10.823  -3.080  0.00  0.00    +0.061 A 
BRANCH  18  20
ATOM     20  O   UNL     1       1.516  10.367  -5.410  0.00  0.00    -0.491 OA
ATOM     21  C   UNL     1       2.942  10.430  -5.349  0.00  0.00    +0.277 C 
ENDBRANCH  18  20
BRANCH  17  22
ATOM     22  O   UNL     1      -1.234  10.274  -5.386  0.00  0.00    -0.491 OA
ATOM     23  C   UNL     1      -2.660  10.240  -5.303  0.00  0.00    +0.277 C 
ENDBRANCH  17  22
ENDBRANCH  10  14
BRANCH  11  24
ATOM     24  O   UNL     1       0.239   9.653   0.453  0.00  0.00    -0.477 OA
BRANCH  24  25
ATOM     25  C   UNL     1       0.631   8.295   0.239  0.00  0.00    +0.308 C 
BRANCH  25  26
ATOM     26  C   UNL     1      -0.593   7.416   0.225  0.00  0.00    +0.200 C 
ATOM     27  O   UNL     1      -1.692   7.904   0.383  0.00  0.00    -0.288 OA
BRANCH  26  28
ATOM     28  C   UNL     1      -0.455   5.968   0.020  0.00  0.00    +0.021 A 
ATOM     29  C   UNL     1      -1.591   5.149   0.006  0.00  0.00    +0.013 A 
ATOM     30  C   UNL     1      -1.457   3.798  -0.186  0.00  0.00    +0.024 A 
ATOM     31  C   UNL     1      -0.194   3.241  -0.368  0.00  0.00    +0.033 A 
ATOM     32  C   UNL     1       0.938   4.050  -0.350  0.00  0.00    +0.024 A 
ATOM     33  C   UNL     1       0.814   5.403  -0.164  0.00  0.00    +0.013 A 
BRANCH  31  34
ATOM     34  N   UNL     1      -0.063   1.868  -0.563  0.00  0.00    -0.286 N 
ATOM     35  C   UNL     1       0.915   1.390  -1.358  0.00  0.00    +0.214 C 
ATOM     36  O   UNL     1       1.621   2.157  -1.978  0.00  0.00    -0.276 OA
ATOM     37  C   UNL     1       1.128  -0.097  -1.480  0.00  0.00    +0.109 C 
ATOM     38  H   UNL     1      -0.676   1.255  -0.127  0.00  0.00    +0.155 HD
ENDBRANCH  31  34
ENDBRANCH  26  28
ENDBRANCH  25  26
ENDBRANCH  24  25
ENDBRANCH  11  24
TORSDOF 8
