REMARK  Name = ZINC15731204
REMARK  5 active torsions:
REMARK  status: ('A' for Active; 'I' for Inactive)
REMARK    1  A    between atoms: C_1  and  C_2
REMARK    2  A    between atoms: C_9  and  S_15
REMARK    3  A    between atoms: S_15  and  N_18
REMARK    4  A    between atoms: C_21  and  C_24
REMARK    5  A    between atoms: C_24  and  N_64
REMARK                            x       y       z     vdW  Elec       q    Type
REMARK                         _______ _______ _______ _____ _____    ______ ____
ROOT
ATOM      1  N   UNL     1      -2.826   1.380   0.037  0.00  0.00    -0.177 NA
ATOM      2  C   UNL     1      -2.178   1.033  -1.236  0.00  0.00    +0.109 C 
ATOM      3  C   UNL     1      -0.752   1.593  -1.232  0.00  0.00    +0.019 C 
ATOM      4  C   UNL     1      -0.013   1.086   0.008  0.00  0.00    -0.025 C 
ATOM      5  C   UNL     1      -0.729   1.579   1.268  0.00  0.00    +0.019 C 
ATOM      6  C   UNL     1      -2.154   1.019   1.293  0.00  0.00    +0.109 C 
ENDROOT
BRANCH   1   7
ATOM      7  S   UNL     1      -4.284   2.164   0.055  0.00  0.00    +0.061 S 
ATOM      8  O   UNL     1      -4.370   2.834   1.305  0.00  0.00    -0.153 OA
ATOM      9  O   UNL     1      -4.393   2.848  -1.185  0.00  0.00    -0.153 OA
BRANCH   7  17
ATOM     10  C   UNL     1      -9.120  -4.001   3.650  0.00  0.00    +0.018 C 
ATOM     11  C   UNL     1      -9.009  -2.848   2.650  0.00  0.00    +0.082 C 
ATOM     12  C   UNL     1      -8.578  -3.398   1.320  0.00  0.00    +0.087 C 
ATOM     13  S   UNL     1      -8.772  -2.249  -0.034  0.00  0.00    -0.123 S 
ATOM     14  C   UNL     1      -7.527  -1.030   0.096  0.00  0.00    +0.029 A 
ATOM     15  C   UNL     1      -7.026  -0.518  -1.109  0.00  0.00    +0.018 A 
ATOM     16  C   UNL     1      -6.051   0.450  -1.133  0.00  0.00    +0.030 A 
ATOM     17  C   UNL     1      -5.540   0.927   0.060  0.00  0.00    +0.107 A 
ATOM     18  C   UNL     1      -6.021   0.436   1.250  0.00  0.00    +0.053 A 
ATOM     19  C   UNL     1      -7.019  -0.552   1.294  0.00  0.00    +0.049 A 
ATOM     20  N   UNL     1      -7.391  -0.931   2.557  0.00  0.00    -0.284 N 
ATOM     21  C   UNL     1      -8.054  -1.839   3.182  0.00  0.00    +0.221 C 
ATOM     22  O   UNL     1      -7.874  -1.878   4.381  0.00  0.00    -0.275 OA
ATOM     23  H   UNL     1      -7.032  -0.298   3.199  0.00  0.00    +0.155 HD
ENDBRANCH   7  17
ENDBRANCH   1   7
BRANCH   4  24
ATOM     24  C   UNL     1       1.423   1.615  -0.003  0.00  0.00    -0.075 C 
BRANCH  24  34
ATOM     25  C   UNL     1       3.482   1.678   1.273  0.00  0.00    -0.074 C 
ATOM     26  C   UNL     1       4.049   1.307   2.644  0.00  0.00    +0.017 C 
ATOM     27  C   UNL     1       3.982  -0.185   2.842  0.00  0.00    -0.048 A 
ATOM     28  C   UNL     1       4.753  -0.754   3.845  0.00  0.00    +0.004 A 
ATOM     29  C   UNL     1       4.715  -2.116   4.065  0.00  0.00    +0.000 A 
ATOM     30  C   UNL     1       3.906  -2.918   3.282  0.00  0.00    +0.000 A 
ATOM     31  C   UNL     1       3.140  -2.353   2.282  0.00  0.00    +0.002 A 
ATOM     32  C   UNL     1       3.178  -0.984   2.058  0.00  0.00    -0.061 A 
ATOM     33  C   UNL     1       2.329  -0.414   0.952  0.00  0.00    -0.043 C 
ATOM     34  N   UNL     1       2.158   1.036   1.144  0.00  0.00    +0.383 N 
ATOM     35  H   UNL     1       1.621   1.200   2.003  0.00  0.00    -0.081 HD
ENDBRANCH  24  34
ENDBRANCH   4  24
TORSDOF 4
