REMARK  Name = ZINC14472915
REMARK  8 active torsions:
REMARK  status: ('A' for Active; 'I' for Inactive)
REMARK    1  A    between atoms: C_2  and  C_3
REMARK    2  A    between atoms: C_3  and  N_4
REMARK    3  A    between atoms: N_4  and  C_5
REMARK    4  A    between atoms: N_4  and  S_8
REMARK    5  A    between atoms: C_5  and  C_6
REMARK    6  A    between atoms: S_8  and  C_11
REMARK    7  A    between atoms: C_24  and  C_27
REMARK    8  A    between atoms: C_29  and  N_34
REMARK                            x       y       z     vdW  Elec       q    Type
REMARK                         _______ _______ _______ _____ _____    ______ ____
ROOT
ATOM      1  C   UNL     1       1.164   3.161   0.006  0.00  0.00    +0.106 A 
ATOM      2  C   UNL     1       1.175   1.778   0.000  0.00  0.00    +0.030 A 
ATOM      3  C   UNL     1      -0.013   1.076   0.008  0.00  0.00    +0.025 A 
ATOM      4  C   UNL     1      -1.227   1.751   0.017  0.00  0.00    +0.031 A 
ATOM      5  C   UNL     1      -1.230   3.150   0.017  0.00  0.00    -0.018 A 
ATOM      6  C   UNL     1      -0.039   3.843   0.012  0.00  0.00    +0.034 A 
ATOM      7  C   UNL     1      -2.544   3.830   0.004  0.00  0.00    +0.049 C 
ATOM      8  C   UNL     1      -2.723   5.200   0.550  0.00  0.00    -0.023 C 
ATOM      9  C   UNL     1      -3.953   5.306   1.036  0.00  0.00    -0.030 C 
ATOM     10  C   UNL     1      -4.694   3.976   0.879  0.00  0.00    +0.033 C 
ATOM     11  C   UNL     1      -3.531   2.976   0.856  0.00  0.00    +0.029 C 
ATOM     12  C   UNL     1      -3.735   1.691   0.074  0.00  0.00    +0.106 C 
ATOM     13  N   UNL     1      -2.419   1.016   0.066  0.00  0.00    -0.336 N 
ATOM     14  H   UNL     1      -2.380   0.047   0.092  0.00  0.00    +0.147 HD
ENDROOT
BRANCH  12  15
ATOM     15  C   UNL     1      -4.761   0.824   0.756  0.00  0.00    -0.007 A 
ATOM     16  C   UNL     1      -4.357  -0.173   1.624  0.00  0.00    +0.039 A 
ATOM     17  C   UNL     1      -5.298  -0.965   2.253  0.00  0.00    +0.127 A 
ATOM     18  C   UNL     1      -6.644  -0.768   2.008  0.00  0.00    +0.034 A 
ATOM     19  C   UNL     1      -7.050   0.224   1.136  0.00  0.00    +0.022 A 
ATOM     20  C   UNL     1      -6.108   1.021   0.509  0.00  0.00    +0.046 A 
ATOM     21 CL   UNL     1      -6.616   2.269  -0.586  0.00  0.00    -0.083 Cl
BRANCH  17  22
ATOM     22  N   UNL     1      -4.864  -2.029   3.187  0.00  0.00    +0.056 N 
ATOM     23  O   UNL     1      -5.694  -2.731   3.738  0.00  0.00    -0.126 OA
ATOM     24  O   UNL     1      -3.679  -2.203   3.403  0.00  0.00    -0.126 OA
ENDBRANCH  17  22
ENDBRANCH  12  15
BRANCH   1  25
ATOM     25  S   UNL     1       2.683   4.055   0.004  0.00  0.00    +0.061 S 
ATOM     26  O   UNL     1       2.403   5.332   0.561  0.00  0.00    -0.153 OA
ATOM     27  O   UNL     1       3.666   3.185   0.548  0.00  0.00    -0.153 OA
BRANCH  25  28
ATOM     28  N   UNL     1       3.099   4.309  -1.578  0.00  0.00    -0.169 NA
BRANCH  28  29
ATOM     29  C   UNL     1       2.641   5.515  -2.272  0.00  0.00    +0.136 C 
BRANCH  29  31
ATOM     30  C   UNL     1       4.163   7.128  -3.293  0.00  0.00    +0.005 C 
ATOM     31  C   UNL     1       3.709   6.575  -2.195  0.00  0.00    -0.018 C 
ENDBRANCH  29  31
ENDBRANCH  28  29
BRANCH  28  32
ATOM     32  C   UNL     1       3.927   3.328  -2.284  0.00  0.00    +0.136 C 
BRANCH  32  33
ATOM     33  C   UNL     1       3.040   2.377  -3.046  0.00  0.00    -0.018 C 
ATOM     34  C   UNL     1       3.213   2.208  -4.333  0.00  0.00    +0.005 C 
ENDBRANCH  32  33
ENDBRANCH  28  32
ENDBRANCH  25  28
ENDBRANCH   1  25
TORSDOF 8
