REMARK  Name = ZINC09592358
REMARK  7 active torsions:
REMARK  status: ('A' for Active; 'I' for Inactive)
REMARK    1  A    between atoms: C_1  and  C_2
REMARK    2  A    between atoms: C_2  and  C_4
REMARK    3  A    between atoms: C_2  and  N_46
REMARK    4  A    between atoms: N_6  and  C_7
REMARK    5  A    between atoms: C_15  and  N_46
REMARK    6  A    between atoms: C_16  and  C_17
REMARK    7  A    between atoms: C_16  and  N_46
REMARK                            x       y       z     vdW  Elec       q    Type
REMARK                         _______ _______ _______ _____ _____    ______ ____
ROOT
ATOM      1  C   UNL     1       0.597  -4.944   1.615  0.00  0.00    -0.004 C 
ATOM      2  C   UNL     1      -0.027  -4.293   0.379  0.00  0.00    +0.016 C 
ENDROOT
BRANCH   2   3
ATOM      3  C   UNL     1      -0.194  -2.814   0.620  0.00  0.00    +0.203 C 
ATOM      4  O   UNL     1      -1.267  -2.376   0.977  0.00  0.00    -0.277 OA
ATOM      5  N   UNL     1       0.849  -1.980   0.439  0.00  0.00    -0.286 N 
ATOM      6  H   UNL     1       1.684  -2.318   0.079  0.00  0.00    +0.155 HD
BRANCH   5   7
ATOM      7  C   UNL     1       0.727  -0.625   0.769  0.00  0.00    +0.047 A 
ATOM      8  C   UNL     1      -0.294  -0.203   1.611  0.00  0.00    +0.025 A 
ATOM      9  C   UNL     1      -0.412   1.134   1.935  0.00  0.00    +0.017 A 
ATOM     10  C   UNL     1       0.485   2.054   1.422  0.00  0.00    +0.019 A 
ATOM     11  C   UNL     1       1.504   1.637   0.584  0.00  0.00    +0.032 A 
ATOM     12  C   UNL     1       1.627   0.300   0.256  0.00  0.00    +0.040 A 
ATOM     13 BR   UNL     1       3.019  -0.269  -0.891  0.00  0.00    -0.048 Br
ATOM     14 BR   UNL     1       0.320   3.884   1.869  0.00  0.00    -0.050 Br
ENDBRANCH   5   7
ENDBRANCH   2   3
BRANCH   2  16
ATOM     15  C   UNL     1      -1.981  -4.276  -1.050  0.00  0.00    -0.095 C 
ATOM     16  N   UNL     1      -1.356  -4.893   0.139  0.00  0.00    +0.388 N 
ATOM     17  H   UNL     1      -1.952  -4.720   0.957  0.00  0.00    -0.081 HD
BRANCH  16  18
ATOM     18  C   UNL     1      -1.224  -6.351  -0.059  0.00  0.00    -0.030 C 
BRANCH  18  19
ATOM     19  C   UNL     1      -2.605  -6.994   0.084  0.00  0.00    +0.195 C 
ATOM     20  C   UNL     1      -2.470  -8.522   0.061  0.00  0.00    +0.271 C 
ATOM     21  O   UNL     1      -3.778  -9.090   0.184  0.00  0.00    -0.485 OA
ATOM     22  C   UNL     1      -4.754  -8.554  -0.599  0.00  0.00    +0.162 A 
ATOM     23  C   UNL     1      -5.930  -9.261  -0.801  0.00  0.00    +0.049 A 
ATOM     24  C   UNL     1      -6.931  -8.728  -1.591  0.00  0.00    +0.004 A 
ATOM     25  C   UNL     1      -6.763  -7.489  -2.182  0.00  0.00    +0.004 A 
ATOM     26  C   UNL     1      -5.593  -6.781  -1.986  0.00  0.00    +0.049 A 
ATOM     27  C   UNL     1      -4.584  -7.310  -1.195  0.00  0.00    +0.162 A 
ATOM     28  O   UNL     1      -3.436  -6.601  -1.014  0.00  0.00    -0.484 OA
ENDBRANCH  18  19
ENDBRANCH  16  18
ENDBRANCH   2  16
TORSDOF 5
