REMARK  Name = ZINC13238361
REMARK  10 active torsions:
REMARK  status: ('A' for Active; 'I' for Inactive)
REMARK    1  A    between atoms: C_1  and  C_2
REMARK    2  A    between atoms: C_3  and  C_31
REMARK    3  A    between atoms: C_4  and  C_30
REMARK    4  A    between atoms: C_9  and  S_11
REMARK    5  A    between atoms: S_11  and  C_12
REMARK    6  A    between atoms: C_12  and  C_13
REMARK    7  A    between atoms: N_15  and  C_16
REMARK    8  A    between atoms: N_15  and  C_22
REMARK    9  A    between atoms: C_16  and  C_17
REMARK   10  A    between atoms: C_31  and  C_32
REMARK                            x       y       z     vdW  Elec       q    Type
REMARK                         _______ _______ _______ _____ _____    ______ ____
ROOT
ATOM      1  C   UNL     1      -0.708   2.789   3.221  0.00  0.00    +0.173 C 
ENDROOT
BRANCH   1   2
ATOM      2  C   UNL     1      -0.221   2.538   1.818  0.00  0.00    +0.227 C 
ATOM      3  O   UNL     1       0.551   3.315   1.296  0.00  0.00    -0.275 OA
ATOM      4  N   UNL     1      -0.642   1.451   1.142  0.00  0.00    -0.289 N 
BRANCH   4   5
ATOM      5  C   UNL     1      -1.653   0.569   1.731  0.00  0.00    +0.099 C 
ATOM      6  C   UNL     1      -2.829   0.415   0.752  0.00  0.00    +0.047 C 
ATOM      7  C   UNL     1      -3.725  -0.753   1.251  0.00  0.00    +0.168 C 
ATOM      8  S   UNL     1      -2.440  -1.962   1.782  0.00  0.00    -0.029 S 
ATOM      9  O   UNL     1      -2.151  -2.834   0.698  0.00  0.00    -0.174 OA
ATOM     10  O   UNL     1      -2.809  -2.509   3.040  0.00  0.00    -0.174 OA
ATOM     11  C   UNL     1      -1.022  -0.814   2.020  0.00  0.00    +0.188 C 
ENDBRANCH   4   5
BRANCH   4  12
ATOM     12  C   UNL     1      -0.089   1.151  -0.181  0.00  0.00    +0.182 C 
BRANCH  12  13
ATOM     13  C   UNL     1      -0.927   1.822  -1.239  0.00  0.00    +0.122 A 
ATOM     14  C   UNL     1      -0.735   3.062  -1.725  0.00  0.00    +0.046 A 
ATOM     15  C   UNL     1      -1.741   3.282  -2.694  0.00  0.00    +0.041 A 
ATOM     16  C   UNL     1      -2.492   2.167  -2.736  0.00  0.00    +0.195 A 
ATOM     17  O   UNL     1      -1.994   1.286  -1.853  0.00  0.00    -0.466 OA
ENDBRANCH  12  13
ENDBRANCH   4  12
ENDBRANCH   1   2
BRANCH   1  18
ATOM     18  S   UNL     1      -0.003   4.342   3.838  0.00  0.00    -0.075 S 
BRANCH  18  27
ATOM     19  C   UNL     1      -3.573   3.534  10.457  0.00  0.00    +0.066 C 
ATOM     20  C   UNL     1      -2.697   4.135   9.389  0.00  0.00    +0.047 A 
ATOM     21  C   UNL     1      -2.036   5.345   9.629  0.00  0.00    +0.006 A 
ATOM     22  C   UNL     1      -1.249   5.876   8.657  0.00  0.00    +0.049 A 
ATOM     23  N   UNL     1      -1.124   5.217   7.476  0.00  0.00    -0.200 N 
ATOM     24  C   UNL     1      -1.783   4.037   7.273  0.00  0.00    +0.254 A 
ATOM     25  N   UNL     1      -2.556   3.521   8.236  0.00  0.00    -0.216 NA
ATOM     26  N   UNL     1      -1.482   3.621   6.047  0.00  0.00    -0.183 NA
ATOM     27  C   UNL     1      -0.659   4.492   5.467  0.00  0.00    +0.211 A 
ATOM     28  N   UNL     1      -0.407   5.480   6.302  0.00  0.00    -0.137 NA
ATOM     29  C   UNL     1      -0.525   7.178   8.886  0.00  0.00    +0.066 C 
BRANCH  21  30
ATOM     30  C   UNL     1      -2.197   6.052  10.951  0.00  0.00    +0.163 C 
BRANCH  30  31
ATOM     31  C   UNL     1      -3.367   6.998  10.875  0.00  0.00    +0.360 C 
ATOM     32  O   UNL     1      -4.005   7.090   9.854  0.00  0.00    -0.246 OA
ATOM     33  O   UNL     1      -3.700   7.740  11.944  0.00  0.00    -0.246 OA
ENDBRANCH  30  31
ENDBRANCH  21  30
ENDBRANCH  18  27
ENDBRANCH   1  18
TORSDOF 8
