REMARK  Name = ZINC23969168
REMARK  11 active torsions:
REMARK  status: ('A' for Active; 'I' for Inactive)
REMARK    1  A    between atoms: C_1  and  C_2
REMARK    2  A    between atoms: N_4  and  C_5
REMARK    3  A    between atoms: C_13  and  C_16
REMARK    4  A    between atoms: C_16  and  S_17
REMARK    5  A    between atoms: S_17  and  C_18
REMARK    6  A    between atoms: C_21  and  C_24
REMARK    7  A    between atoms: N_22  and  N_23
REMARK    8  A    between atoms: C_27  and  C_30
REMARK    9  A    between atoms: C_30  and  C_31
REMARK   10  A    between atoms: C_30  and  C_32
REMARK   11  A    between atoms: C_30  and  C_33
REMARK                            x       y       z     vdW  Elec       q    Type
REMARK                         _______ _______ _______ _____ _____    ______ ____
ROOT
ATOM      1  C   UNL     1       5.891   9.815  -2.072  0.00  0.00    +0.209 A 
ATOM      2  N   UNL     1       6.452  10.271  -0.975  0.00  0.00    -0.121 NA
ATOM      3  N   UNL     1       7.405  11.082  -1.270  0.00  0.00    -0.127 NA
ATOM      4  C   UNL     1       7.511  11.193  -2.574  0.00  0.00    +0.182 A 
ATOM      5  N   UNL     1       6.548  10.380  -3.128  0.00  0.00    -0.224 N 
ENDROOT
BRANCH   4   6
ATOM      6  C   UNL     1       8.484  12.028  -3.309  0.00  0.00    +0.021 A 
ATOM      7  C   UNL     1       8.297  12.293  -4.666  0.00  0.00    +0.012 A 
ATOM      8  C   UNL     1       9.206  13.078  -5.345  0.00  0.00    +0.005 A 
ATOM      9  C   UNL     1      10.308  13.593  -4.685  0.00  0.00    -0.042 A 
ATOM     10  C   UNL     1      10.503  13.329  -3.341  0.00  0.00    +0.005 A 
ATOM     11  C   UNL     1       9.598  12.550  -2.649  0.00  0.00    +0.012 A 
BRANCH   9  12
ATOM     12  C   UNL     1      11.300  14.444  -5.434  0.00  0.00    -0.013 C 
ATOM     13  C   UNL     1      12.680  13.786  -5.381  0.00  0.00    +0.015 C 
ATOM     14  C   UNL     1      10.857  14.582  -6.892  0.00  0.00    +0.015 C 
ATOM     15  C   UNL     1      11.371  15.830  -4.790  0.00  0.00    +0.015 C 
ENDBRANCH   9  12
ENDBRANCH   4   6
BRANCH   5  16
ATOM     16  N   UNL     1       6.300  10.182  -4.456  0.00  0.00    -0.295 N 
ATOM     17  H   UNL     1       6.906  10.702  -5.213  0.00  0.00    +0.163 HD
ATOM     18  H   UNL     1       5.493   9.503  -4.769  0.00  0.00    +0.163 HD
ENDBRANCH   5  16
BRANCH   1  19
ATOM     19  S   UNL     1       4.547   8.680  -2.164  0.00  0.00    -0.078 S 
BRANCH  19  20
ATOM     20  C   UNL     1       4.250   8.400  -0.401  0.00  0.00    +0.133 C 
BRANCH  20  27
ATOM     21  C   UNL     1       3.624   1.751   0.089  0.00  0.00    +0.110 C 
ATOM     22  C   UNL     1       3.571   3.257   0.098  0.00  0.00    +0.223 C 
ATOM     23  O   UNL     1       4.599   3.900   0.139  0.00  0.00    -0.275 OA
ATOM     24  N   UNL     1       2.382   3.890   0.062  0.00  0.00    -0.219 N 
ATOM     25  C   UNL     1       2.335   5.278  -0.021  0.00  0.00    +0.172 A 
ATOM     26  N   UNL     1       3.328   6.133  -0.169  0.00  0.00    -0.228 NA
ATOM     27  C   UNL     1       3.108   7.432  -0.231  0.00  0.00    +0.061 A 
ATOM     28  C   UNL     1       1.830   7.876  -0.139  0.00  0.00    +0.072 A 
ATOM     29  S   UNL     1       0.953   6.329   0.035  0.00  0.00    -0.060 S 
BRANCH  24  30
ATOM     30  C   UNL     1       1.194   3.151   0.107  0.00  0.00    +0.043 A 
ATOM     31  C   UNL     1       0.836   2.479   1.269  0.00  0.00    +0.024 A 
ATOM     32  C   UNL     1      -0.337   1.751   1.311  0.00  0.00    +0.002 A 
ATOM     33  C   UNL     1      -1.152   1.686   0.196  0.00  0.00    +0.000 A 
ATOM     34  C   UNL     1      -0.802   2.359  -0.960  0.00  0.00    +0.002 A 
ATOM     35  C   UNL     1       0.370   3.088  -1.009  0.00  0.00    +0.024 A 
ENDBRANCH  24  30
ENDBRANCH  20  27
ENDBRANCH  19  20
ENDBRANCH   1  19
TORSDOF 7
