REMARK  Name = ZINC41894416
REMARK  6 active torsions:
REMARK  status: ('A' for Active; 'I' for Inactive)
REMARK    1  A    between atoms: C_1  and  C_2
REMARK    2  A    between atoms: C_2  and  C_3
REMARK    3  A    between atoms: C_3  and  C_4
REMARK    4  A    between atoms: C_4  and  C_5
REMARK    5  A    between atoms: C_4  and  C_6
REMARK    6  A    between atoms: C_4  and  N_9
REMARK                            x       y       z     vdW  Elec       q    Type
REMARK                         _______ _______ _______ _____ _____    ______ ____
ROOT
ATOM      1  C   UNL     1       0.739  -2.027  -1.265  0.00  0.00    +0.165 C 
ATOM      2  C   UNL     1      -0.696  -2.557  -1.254  0.00  0.00    +0.049 C 
ENDROOT
BRANCH   1   3
ATOM      3  N   UNL     1       1.425  -2.500  -2.470  0.00  0.00    -0.209 N 
ATOM      4  C   UNL     1       1.558  -3.823  -2.693  0.00  0.00    +0.268 A 
ATOM      5  O   UNL     1       1.109  -4.629  -1.893  0.00  0.00    -0.266 OA
ATOM      6  C   UNL     1       2.219  -4.269  -3.856  0.00  0.00    +0.077 A 
ATOM      7  C   UNL     1       2.711  -3.354  -4.733  0.00  0.00    +0.079 A 
ATOM      8  C   UNL     1       2.555  -1.980  -4.471  0.00  0.00    +0.287 A 
ATOM      9  O   UNL     1       3.046  -1.066  -5.347  0.00  0.00    -0.264 OA
ATOM     10  N   UNL     1       1.935  -1.576  -3.390  0.00  0.00    -0.125 NA
ENDBRANCH   1   3
BRANCH   1  11
ATOM     11  C   UNL     1       1.468  -2.526  -0.044  0.00  0.00    +0.383 C 
ATOM     12  O   UNL     1       1.058  -2.244   1.069  0.00  0.00    -0.244 OA
ATOM     13  O   UNL     1       2.467  -3.213  -0.169  0.00  0.00    -0.244 OA
ENDBRANCH   1  11
BRANCH   1  14
ATOM     14  C   UNL     1       0.718  -0.497  -1.257  0.00  0.00    +0.041 C 
BRANCH  14  16
ATOM     15  C   UNL     1      -0.019   1.526   0.010  0.00  0.00    +0.004 C 
ATOM     16  C   UNL     1       0.002  -0.004   0.002  0.00  0.00    -0.000 C 
ENDBRANCH  14  16
ENDBRANCH   1  14
TORSDOF 4
