REMARK  Name = ZINC20718980
REMARK  3 active torsions:
REMARK  status: ('A' for Active; 'I' for Inactive)
REMARK    1  A    between atoms: N_19  and  C_22
REMARK    2  A    between atoms: C_22  and  C_24
REMARK    3  A    between atoms: C_22  and  C_35
REMARK                            x       y       z     vdW  Elec       q    Type
REMARK                         _______ _______ _______ _____ _____    ______ ____
ROOT
ATOM      1  C   UNL     1       3.890  -4.802   0.025  0.00  0.00    +0.001 A 
ATOM      2  C   UNL     1       4.379  -4.649   1.310  0.00  0.00    +0.004 A 
ATOM      3  C   UNL     1       3.871  -3.662   2.136  0.00  0.00    +0.047 A 
ATOM      4  C   UNL     1       2.864  -2.826   1.682  0.00  0.00    +0.139 A 
ATOM      5  C   UNL     1       2.352  -2.991   0.391  0.00  0.00    +0.057 A 
ATOM      6  C   UNL     1       2.883  -3.980  -0.439  0.00  0.00    +0.015 A 
ATOM      7  C   UNL     1       1.238  -2.155  -0.085  0.00  0.00    +0.133 C 
ATOM      8  N   UNL     1       1.087  -0.901   0.168  0.00  0.00    -0.228 NA
ATOM      9  C   UNL     1       1.923  -0.105   0.891  0.00  0.00    +0.108 A 
ATOM     10  C   UNL     1       2.165   1.200   0.450  0.00  0.00    +0.031 A 
ATOM     11  C   UNL     1       2.983   2.038   1.179  0.00  0.00    +0.002 A 
ATOM     12  C   UNL     1       3.567   1.594   2.351  0.00  0.00    +0.004 A 
ATOM     13  C   UNL     1       3.343   0.301   2.792  0.00  0.00    +0.048 A 
ATOM     14  C   UNL     1       2.536  -0.556   2.062  0.00  0.00    +0.154 A 
ATOM     15  O   UNL     1       2.391  -1.840   2.482  0.00  0.00    -0.453 OA
ATOM     16  N   UNL     1       0.280  -2.763  -0.864  0.00  0.00    -0.318 N 
ATOM     17  C   UNL     1      -0.779  -1.974  -1.513  0.00  0.00    +0.088 C 
ATOM     18  C   UNL     1      -2.131  -2.620  -1.192  0.00  0.00    -0.058 C 
ATOM     19  N   UNL     1      -2.102  -4.035  -1.584  0.00  0.00    +0.394 N 
ATOM     20  C   UNL     1      -1.115  -4.759  -0.772  0.00  0.00    -0.058 C 
ATOM     21  C   UNL     1       0.290  -4.218  -1.077  0.00  0.00    +0.088 C 
ATOM     22  H   UNL     1      -1.851  -4.107  -2.559  0.00  0.00    -0.080 HD
ENDROOT
BRANCH  19  23
ATOM     23  C   UNL     1      -3.431  -4.626  -1.379  0.00  0.00    +0.080 C 
BRANCH  23  24
ATOM     24  C   UNL     1      -3.403  -6.078  -1.781  0.00  0.00    -0.025 A 
ATOM     25  C   UNL     1      -2.500  -6.668  -2.580  0.00  0.00    +0.086 A 
ATOM     26  N   UNL     1      -2.797  -7.996  -2.718  0.00  0.00    -0.360 N 
ATOM     27  H   UNL     1      -2.287  -8.629  -3.248  0.00  0.00    +0.165 HD
ATOM     28  C   UNL     1      -3.927  -8.301  -1.993  0.00  0.00    +0.047 A 
ATOM     29  C   UNL     1      -4.353  -7.114  -1.369  0.00  0.00    +0.003 A 
ATOM     30  C   UNL     1      -5.486  -7.122  -0.554  0.00  0.00    +0.030 A 
ATOM     31  C   UNL     1      -6.179  -8.297  -0.363  0.00  0.00    +0.042 A 
ATOM     32  C   UNL     1      -5.757  -9.470  -0.976  0.00  0.00    +0.022 A 
ATOM     33  C   UNL     1      -4.645  -9.475  -1.790  0.00  0.00    +0.027 A 
ATOM     34 CL   UNL     1      -7.589  -8.313   0.650  0.00  0.00    -0.084 Cl
ENDBRANCH  23  24
BRANCH  23  35
ATOM     35  C   UNL     1      -4.443  -3.891  -2.220  0.00  0.00    +0.347 C 
ATOM     36  O   UNL     1      -4.071  -3.087  -3.058  0.00  0.00    -0.248 OA
ATOM     37  O   UNL     1      -5.633  -4.100  -2.062  0.00  0.00    -0.248 OA
ENDBRANCH  23  35
ENDBRANCH  19  23
TORSDOF 3
