REMARK  Name = ZINC17196416
REMARK  12 active torsions:
REMARK  status: ('A' for Active; 'I' for Inactive)
REMARK    1  A    between atoms: C_1  and  C_2
REMARK    2  A    between atoms: C_2  and  C_3
REMARK    3  A    between atoms: C_2  and  C_4
REMARK    4  A    between atoms: C_2  and  C_5
REMARK    5  A    between atoms: N_7  and  C_8
REMARK    6  A    between atoms: C_13  and  C_14
REMARK    7  A    between atoms: C_14  and  C_16
REMARK    8  A    between atoms: C_19  and  C_29
REMARK    9  A    between atoms: C_29  and  C_30
REMARK   10  A    between atoms: C_30  and  O_31
REMARK   11  A    between atoms: O_31  and  C_32
REMARK   12  A    between atoms: C_32  and  C_33
REMARK                            x       y       z     vdW  Elec       q    Type
REMARK                         _______ _______ _______ _____ _____    ______ ____
ROOT
ATOM      1  C   UNL     1       1.986   4.659   0.631  0.00  0.00    +0.196 C 
ATOM      2  C   UNL     1       3.139   3.696   0.821  0.00  0.00    +0.059 C 
ATOM      3  C   UNL     1       2.649   2.347   0.139  0.00  0.00    +0.017 C 
ATOM      4  C   UNL     1       1.176   2.356   0.292  0.00  0.00    +0.014 C 
ATOM      5  C   UNL     1       0.846   3.648   0.872  0.00  0.00    +0.141 C 
ATOM      6  N   UNL     1      -0.353   4.382   0.651  0.00  0.00    -0.256 N 
ATOM      7  C   UNL     1      -1.493   3.621   0.146  0.00  0.00    +0.138 C 
ATOM      8  C   UNL     1      -1.195   2.137   0.197  0.00  0.00    -0.012 C 
ATOM      9  C   UNL     1      -0.014   1.530   0.271  0.00  0.00    -0.021 C 
ATOM     10  C   UNL     1       0.031   5.604   1.063  0.00  0.00    +0.405 C 
ATOM     11  O   UNL     1      -0.648   6.607   1.011  0.00  0.00    -0.226 OA
ATOM     12  O   UNL     1       1.345   5.564   1.573  0.00  0.00    -0.434 OA
ENDROOT
BRANCH   1  13
ATOM     13  C   UNL     1       2.053   5.363  -0.692  0.00  0.00    +0.210 C 
ATOM     14  O   UNL     1       1.265   5.080  -1.570  0.00  0.00    -0.288 OA
BRANCH  13  20
ATOM     15  C   UNL     1       3.127   7.069  -2.156  0.00  0.00    +0.044 A 
ATOM     16  C   UNL     1       4.093   8.045  -2.361  0.00  0.00    +0.024 A 
ATOM     17  C   UNL     1       5.000   8.341  -1.364  0.00  0.00    +0.002 A 
ATOM     18  C   UNL     1       4.954   7.672  -0.150  0.00  0.00    +0.001 A 
ATOM     19  C   UNL     1       4.000   6.705   0.076  0.00  0.00    +0.013 A 
ATOM     20  C   UNL     1       3.072   6.393  -0.925  0.00  0.00    +0.043 A 
BRANCH  15  23
ATOM     21  C   UNL     1       1.640   7.756  -3.872  0.00  0.00    +0.223 C 
ATOM     22  O   UNL     1       1.979   8.907  -3.692  0.00  0.00    -0.275 OA
ATOM     23  N   UNL     1       2.215   6.765  -3.162  0.00  0.00    -0.284 N 
ATOM     24  H   UNL     1       1.994   5.840  -3.353  0.00  0.00    +0.155 HD
BRANCH  21  26
ATOM     25  C   UNL     1       0.092   8.728  -5.548  0.00  0.00    +0.020 C 
ATOM     26  C   UNL     1       0.575   7.434  -4.889  0.00  0.00    +0.039 C 
ATOM     27  C   UNL     1       1.154   6.504  -5.956  0.00  0.00    +0.020 C 
ATOM     28  C   UNL     1      -0.602   6.745  -4.195  0.00  0.00    +0.020 C 
ENDBRANCH  21  26
ENDBRANCH  15  23
ENDBRANCH  13  20
ENDBRANCH   1  13
BRANCH   4  29
ATOM     29  C   UNL     1       0.989   2.630  -1.187  0.00  0.00    +0.041 C 
BRANCH  29  30
ATOM     30  C   UNL     1       1.109   1.319  -1.968  0.00  0.00    +0.161 C 
BRANCH  30  31
ATOM     31  O   UNL     1       0.932   1.578  -3.362  0.00  0.00    -0.375 OA
BRANCH  31  32
ATOM     32  C   UNL     1       1.026   0.413  -4.185  0.00  0.00    +0.195 C 
BRANCH  32  33
ATOM     33  C   UNL     1       0.825   0.800  -5.628  0.00  0.00    -0.022 A 
ATOM     34  C   UNL     1      -0.444   0.796  -6.175  0.00  0.00    +0.006 A 
ATOM     35  C   UNL     1      -0.629   1.156  -7.497  0.00  0.00    +0.000 A 
ATOM     36  C   UNL     1       0.458   1.511  -8.274  0.00  0.00    +0.000 A 
ATOM     37  C   UNL     1       1.728   1.510  -7.729  0.00  0.00    +0.000 A 
ATOM     38  C   UNL     1       1.912   1.155  -6.406  0.00  0.00    +0.006 A 
ENDBRANCH  32  33
ENDBRANCH  31  32
ENDBRANCH  30  31
ENDBRANCH  29  30
ENDBRANCH   4  29
TORSDOF 9
