REMARK  Name = ZINC32314530
REMARK  6 active torsions:
REMARK  status: ('A' for Active; 'I' for Inactive)
REMARK    1  A    between atoms: C_1  and  C_2
REMARK    2  A    between atoms: C_8  and  C_12
REMARK    3  A    between atoms: C_18  and  C_20
REMARK    4  A    between atoms: C_20  and  C_21
REMARK    5  A    between atoms: C_21  and  C_22
REMARK    6  A    between atoms: C_22  and  N_23
REMARK                            x       y       z     vdW  Elec       q    Type
REMARK                         _______ _______ _______ _____ _____    ______ ____
ROOT
ATOM      1  C   UNL     1       9.668   1.974  -3.601  0.00  0.00    -0.039 C 
ATOM      2  C   UNL     1       9.516   1.415  -2.423  0.00  0.00    -0.004 C 
ATOM      3  C   UNL     1       8.393   0.472  -2.094  0.00  0.00    +0.135 C 
ATOM      4  N   UNL     1       7.402   0.505  -3.178  0.00  0.00    -0.297 N 
ATOM      5  C   UNL     1       7.910   0.491  -4.561  0.00  0.00    +0.113 C 
ATOM      6  C   UNL     1       8.745   1.765  -4.763  0.00  0.00    +0.054 C 
ATOM      7  C   UNL     1       6.080   0.540  -2.919  0.00  0.00    +0.216 C 
ATOM      8  O   UNL     1       5.282   0.567  -3.832  0.00  0.00    -0.276 OA
ENDROOT
BRANCH   1  16
ATOM      9  C   UNL     1       8.814   4.606  -2.046  0.00  0.00    +0.044 C 
ATOM     10  C   UNL     1      10.165   5.080  -2.516  0.00  0.00    -0.041 A 
ATOM     11  C   UNL     1      10.606   6.344  -2.194  0.00  0.00    +0.004 A 
ATOM     12  C   UNL     1      11.850   6.784  -2.625  0.00  0.00    +0.002 A 
ATOM     13  C   UNL     1      12.661   5.965  -3.380  0.00  0.00    +0.026 A 
ATOM     14  C   UNL     1      12.235   4.685  -3.716  0.00  0.00    +0.047 A 
ATOM     15  C   UNL     1      10.972   4.243  -3.285  0.00  0.00    +0.010 A 
ATOM     16  C   UNL     1      10.827   2.869  -3.794  0.00  0.00    +0.003 A 
ATOM     17  C   UNL     1      11.964   2.586  -4.481  0.00  0.00    +0.091 A 
ATOM     18  N   UNL     1      12.805   3.659  -4.440  0.00  0.00    -0.360 N 
ATOM     19  H   UNL     1      13.804   3.788  -4.882  0.00  0.00    +0.165 HD
ENDBRANCH   1  16
BRANCH   7  20
ATOM     20  C   UNL     1       5.592   0.547  -1.493  0.00  0.00    +0.098 C 
BRANCH  20  21
ATOM     21  C   UNL     1       4.062   0.589  -1.477  0.00  0.00    +0.031 C 
BRANCH  21  22
ATOM     22  C   UNL     1       3.567   0.596  -0.029  0.00  0.00    +0.129 C 
BRANCH  22  23
ATOM     23  N   UNL     1       2.103   0.636  -0.015  0.00  0.00    -0.274 N 
ATOM     24  C   UNL     1       1.310   1.784  -0.001  0.00  0.00    +0.090 A 
ATOM     25  C   UNL     1       1.597   3.139   0.004  0.00  0.00    +0.030 A 
ATOM     26  C   UNL     1       0.568   4.060   0.018  0.00  0.00    +0.002 A 
ATOM     27  C   UNL     1      -0.749   3.632   0.029  0.00  0.00    +0.004 A 
ATOM     28  C   UNL     1      -1.043   2.283   0.029  0.00  0.00    +0.048 A 
ATOM     29  C   UNL     1      -0.016   1.351   0.009  0.00  0.00    +0.157 A 
ATOM     30  O   UNL     1       0.002  -0.004   0.002  0.00  0.00    -0.407 OA
ATOM     31  C   UNL     1       1.276  -0.428  -0.012  0.00  0.00    +0.421 A 
ATOM     32  O   UNL     1       1.629  -1.591  -0.021  0.00  0.00    -0.223 OA
ENDBRANCH  22  23
ENDBRANCH  21  22
ENDBRANCH  20  21
ENDBRANCH   7  20
TORSDOF 5
