REMARK  Name = ZINC42028642
REMARK  5 active torsions:
REMARK  status: ('A' for Active; 'I' for Inactive)
REMARK    1  A    between atoms: C_1  and  C_2
REMARK    2  A    between atoms: C_2  and  C_4
REMARK    3  A    between atoms: C_2  and  N_10
REMARK    4  A    between atoms: C_11  and  C_15
REMARK    5  A    between atoms: C_17  and  N_22
REMARK                            x       y       z     vdW  Elec       q    Type
REMARK                         _______ _______ _______ _____ _____    ______ ____
ROOT
ATOM      1  N   UNL     1       0.670  -0.440  -1.229  0.00  0.00    -0.220 N 
ATOM      2  C   UNL     1       0.209  -1.331  -2.142  0.00  0.00    +0.185 A 
ATOM      3  N   UNL     1       1.171  -1.514  -3.022  0.00  0.00    -0.108 NA
ATOM      4  N   UNL     1       2.197  -0.801  -2.722  0.00  0.00    -0.023 NA
ATOM      5  N   UNL     1       1.971  -0.118  -1.653  0.00  0.00    -0.043 NA
ENDROOT
BRANCH   2   6
ATOM      6  C   UNL     1      -1.123  -1.975  -2.147  0.00  0.00    +0.058 A 
ATOM      7  C   UNL     1      -2.272  -1.207  -1.966  0.00  0.00    +0.037 A 
ATOM      8  C   UNL     1      -3.517  -1.817  -1.974  0.00  0.00    +0.025 A 
ATOM      9  C   UNL     1      -3.617  -3.191  -2.160  0.00  0.00    +0.025 A 
ATOM     10  C   UNL     1      -2.479  -3.954  -2.340  0.00  0.00    +0.041 A 
ATOM     11  C   UNL     1      -1.233  -3.354  -2.340  0.00  0.00    +0.134 A 
ATOM     12  F   UNL     1      -0.123  -4.103  -2.521  0.00  0.00    -0.205 F 
BRANCH   8  13
ATOM     13  N   UNL     1      -4.672  -1.050  -1.792  0.00  0.00    -0.358 N 
ATOM     14  H   UNL     1      -4.602  -0.091  -1.662  0.00  0.00    +0.142 HD
ATOM     15  H   UNL     1      -5.543  -1.476  -1.797  0.00  0.00    +0.142 HD
ENDBRANCH   8  13
ENDBRANCH   2   6
BRANCH   1  17
ATOM     16  C   UNL     1      -0.288   1.578  -0.234  0.00  0.00    +0.035 C 
ATOM     17  C   UNL     1      -0.038   0.079  -0.056  0.00  0.00    +0.137 C 
BRANCH  17  18
ATOM     18  C   UNL     1       0.811  -0.151   1.196  0.00  0.00    +0.143 C 
ATOM     19  C   UNL     1       0.064   0.360   2.453  0.00  0.00    +0.036 C 
ATOM     20  C   UNL     1       0.724  -0.506   3.561  0.00  0.00    +0.031 C 
ATOM     21  C   UNL     1       0.985  -1.837   2.823  0.00  0.00    +0.160 C 
ATOM     22  O   UNL     1       1.003  -1.557   1.417  0.00  0.00    -0.374 OA
ENDBRANCH  17  18
ENDBRANCH   1  17
TORSDOF 4
