REMARK  Name = ZINC21584305
REMARK  9 active torsions:
REMARK  status: ('A' for Active; 'I' for Inactive)
REMARK    1  A    between atoms: C_1  and  C_2
REMARK    2  A    between atoms: C_2  and  C_3
REMARK    3  A    between atoms: C_2  and  C_4
REMARK    4  A    between atoms: C_4  and  C_6
REMARK    5  A    between atoms: C_4  and  N_18
REMARK    6  A    between atoms: C_9  and  C_12
REMARK    7  A    between atoms: N_18  and  C_19
REMARK    8  A    between atoms: C_19  and  C_20
REMARK    9  A    between atoms: N_22  and  C_23
REMARK                            x       y       z     vdW  Elec       q    Type
REMARK                         _______ _______ _______ _____ _____    ______ ____
ROOT
ATOM      1  C   UNL     1       2.616   3.897  -0.036  0.00  0.00    -0.038 C 
ENDROOT
BRANCH   1   2
ATOM      2  C   UNL     1       1.263   3.245  -0.154  0.00  0.00    -0.061 A 
ATOM      3  C   UNL     1       1.167   1.876  -0.315  0.00  0.00    +0.002 A 
ATOM      4  C   UNL     1      -0.074   1.277  -0.423  0.00  0.00    +0.004 A 
ATOM      5  C   UNL     1      -1.220   2.049  -0.374  0.00  0.00    -0.044 A 
ATOM      6  C   UNL     1      -1.125   3.418  -0.209  0.00  0.00    +0.004 A 
ATOM      7  C   UNL     1       0.117   4.016  -0.101  0.00  0.00    +0.002 A 
BRANCH   5   8
ATOM      8  C   UNL     1      -2.573   1.397  -0.498  0.00  0.00    +0.019 C 
ATOM      9  C   UNL     1      -3.304   1.965  -1.716  0.00  0.00    +0.008 C 
ATOM     10  C   UNL     1      -4.677   1.303  -1.842  0.00  0.00    +0.001 C 
ATOM     11  C   UNL     1      -5.496   1.585  -0.580  0.00  0.00    +0.000 C 
ATOM     12  C   UNL     1      -4.766   1.017   0.639  0.00  0.00    +0.001 C 
ATOM     13  C   UNL     1      -3.392   1.679   0.764  0.00  0.00    +0.008 C 
ENDBRANCH   5   8
ENDBRANCH   1   2
BRANCH   1  15
ATOM     14  C   UNL     1       4.316   5.284  -1.232  0.00  0.00    +0.006 C 
ATOM     15  C   UNL     1       3.008   4.505  -1.384  0.00  0.00    -0.027 C 
ATOM     16  C   UNL     1       3.196   3.388  -2.412  0.00  0.00    +0.006 C 
ENDBRANCH   1  15
BRANCH   1  17
ATOM     17  N   UNL     1       2.563   4.956   0.981  0.00  0.00    +0.389 N 
ATOM     18  H   UNL     1       3.370   5.681   0.799  0.00  0.00    -0.084 HD
ATOM     19  H   UNL     1       1.591   5.468   0.927  0.00  0.00    -0.084 HD
BRANCH  17  20
ATOM     20  C   UNL     1       2.727   4.398   2.330  0.00  0.00    +0.016 C 
BRANCH  20  21
ATOM     21  C   UNL     1       2.703   5.515   3.342  0.00  0.00    +0.196 C 
ATOM     22  O   UNL     1       2.563   6.662   2.975  0.00  0.00    -0.278 OA
ATOM     23  N   UNL     1       2.837   5.238   4.654  0.00  0.00    -0.312 N 
ATOM     24  H   UNL     1       2.964   4.197   4.987  0.00  0.00    +0.149 HD
BRANCH  23  25
ATOM     25  C   UNL     1       2.814   6.324   5.638  0.00  0.00    +0.095 C 
ATOM     26  C   UNL     1       4.228   6.906   5.801  0.00  0.00    +0.046 C 
ATOM     27  C   UNL     1       4.281   7.820   7.049  0.00  0.00    +0.168 C 
ATOM     28  S   UNL     1       2.986   7.095   8.135  0.00  0.00    -0.029 S 
ATOM     29  O   UNL     1       1.960   8.057   8.337  0.00  0.00    -0.174 OA
ATOM     30  O   UNL     1       3.610   6.491   9.260  0.00  0.00    -0.174 OA
ATOM     31  C   UNL     1       2.355   5.772   7.018  0.00  0.00    +0.188 C 
ENDBRANCH  23  25
ENDBRANCH  20  21
ENDBRANCH  17  20
ENDBRANCH   1  17
TORSDOF 7
