REMARK  Name = ZINC03011493
REMARK  6 active torsions:
REMARK  status: ('A' for Active; 'I' for Inactive)
REMARK    1  A    between atoms: C_1  and  O_2
REMARK    2  A    between atoms: O_2  and  C_3
REMARK    3  A    between atoms: C_8  and  N_9
REMARK    4  A    between atoms: C_15  and  C_17
REMARK    5  A    between atoms: C_22  and  C_35
REMARK    6  A    between atoms: C_25  and  C_28
REMARK                            x       y       z     vdW  Elec       q    Type
REMARK                         _______ _______ _______ _____ _____    ______ ____
ROOT
ATOM      1  C   UNL     1      -2.529  -6.378  -1.945  0.00  0.00    +0.149 A 
ATOM      2  C   UNL     1      -3.201  -7.247  -2.834  0.00  0.00    +0.078 A 
ATOM      3  C   UNL     1      -4.429  -7.476  -2.329  0.00  0.00    +0.119 A 
ATOM      4  N   UNL     1      -4.545  -6.779  -1.160  0.00  0.00    -0.238 N 
ATOM      5  N   UNL     1      -3.343  -6.107  -0.940  0.00  0.00    -0.164 NA
ATOM      6  C   UNL     1      -5.752  -6.782  -0.327  0.00  0.00    +0.215 C 
ATOM      7  C   UNL     1      -6.939  -7.247  -1.177  0.00  0.00    +0.063 C 
ATOM      8  C   UNL     1      -6.581  -8.544  -1.910  0.00  0.00    +0.104 C 
ATOM      9  N   UNL     1      -5.464  -8.268  -2.835  0.00  0.00    -0.322 N 
ATOM     10  H   UNL     1      -5.449  -8.615  -3.741  0.00  0.00    +0.148 HD
ENDROOT
BRANCH   1  17
ATOM     11  N   UNL     1       0.789  -4.816   1.214  0.00  0.00    -0.324 N 
ATOM     12  C   UNL     1      -0.617  -5.232   1.311  0.00  0.00    +0.124 C 
ATOM     13  C   UNL     1      -1.359  -4.747   0.059  0.00  0.00    +0.127 C 
ATOM     14  N   UNL     1      -0.584  -5.138  -1.127  0.00  0.00    -0.293 N 
ATOM     15  C   UNL     1       0.822  -4.722  -1.224  0.00  0.00    +0.127 C 
ATOM     16  C   UNL     1       1.562  -5.202   0.025  0.00  0.00    +0.124 C 
ATOM     17  C   UNL     1      -1.153  -5.866  -2.108  0.00  0.00    +0.267 C 
ATOM     18  O   UNL     1      -0.534  -6.100  -3.128  0.00  0.00    -0.268 OA
BRANCH  11  24
ATOM     19  C   UNL     1       2.018  -4.698   3.295  0.00  0.00    +0.141 A 
ATOM     20  C   UNL     1       2.607  -3.945   4.298  0.00  0.00    +0.047 A 
ATOM     21  C   UNL     1       2.554  -2.564   4.247  0.00  0.00    +0.004 A 
ATOM     22  C   UNL     1       1.916  -1.930   3.197  0.00  0.00    +0.002 A 
ATOM     23  C   UNL     1       1.327  -2.675   2.192  0.00  0.00    +0.027 A 
ATOM     24  C   UNL     1       1.380  -4.060   2.233  0.00  0.00    +0.072 A 
BRANCH  19  26
ATOM     25  C   UNL     1       2.740  -6.640   4.462  0.00  0.00    +0.277 C 
ATOM     26  O   UNL     1       2.068  -6.056   3.344  0.00  0.00    -0.493 OA
ENDBRANCH  19  26
ENDBRANCH  11  24
ENDBRANCH   1  17
BRANCH   8  27
ATOM     27  C   UNL     1      -7.777  -9.034  -2.686  0.00  0.00    -0.027 A 
ATOM     28  C   UNL     1      -8.081  -8.474  -3.913  0.00  0.00    +0.007 A 
ATOM     29  C   UNL     1      -9.177  -8.922  -4.625  0.00  0.00    +0.020 A 
ATOM     30  C   UNL     1      -9.970  -9.932  -4.110  0.00  0.00    +0.041 A 
ATOM     31  C   UNL     1      -9.665 -10.493  -2.882  0.00  0.00    +0.020 A 
ATOM     32  C   UNL     1      -8.565 -10.047  -2.173  0.00  0.00    +0.007 A 
ATOM     33 CL   UNL     1     -11.348 -10.496  -5.003  0.00  0.00    -0.084 Cl
ENDBRANCH   8  27
BRANCH   6  34
ATOM     34  C   UNL     1      -6.015  -5.369   0.198  0.00  0.00    +0.412 C 
ATOM     35  F   UNL     1      -6.197  -4.497  -0.880  0.00  0.00    -0.168 F 
ATOM     36  F   UNL     1      -7.167  -5.375   0.992  0.00  0.00    -0.168 F 
ATOM     37  F   UNL     1      -4.923  -4.945   0.963  0.00  0.00    -0.168 F 
ENDBRANCH   6  34
TORSDOF 5
