REMARK  Name = ZINC38777196
REMARK  5 active torsions:
REMARK  status: ('A' for Active; 'I' for Inactive)
REMARK    1  A    between atoms: C_1  and  C_2
REMARK    2  A    between atoms: C_2  and  C_3
REMARK    3  A    between atoms: C_2  and  C_4
REMARK    4  A    between atoms: C_6  and  C_10
REMARK    5  A    between atoms: C_14  and  C_17
REMARK                            x       y       z     vdW  Elec       q    Type
REMARK                         _______ _______ _______ _____ _____    ______ ____
ROOT
ATOM      1  C   UNL     1      -4.248  -0.907  -1.435  0.00  0.00    +0.232 C 
ATOM      2  N   UNL     1      -5.637  -1.209  -0.998  0.00  0.00    -0.225 NA
ATOM      3  N   UNL     1      -6.423  -0.204  -1.733  0.00  0.00    -0.223 NA
ATOM      4  C   UNL     1      -5.548   0.991  -1.736  0.00  0.00    +0.234 C 
ATOM      5  O   UNL     1      -4.202   0.527  -1.542  0.00  0.00    -0.335 OA
ATOM      6  H   UNL     1      -5.905  -2.145  -1.265  0.00  0.00    +0.143 HD
ATOM      7  H   UNL     1      -6.615  -0.513  -2.674  0.00  0.00    +0.144 HD
ENDROOT
BRANCH   4   8
ATOM      8  C   UNL     1      -5.662   1.708  -3.056  0.00  0.00    +0.011 A 
ATOM      9  C   UNL     1      -5.830   0.985  -4.223  0.00  0.00    +0.008 A 
ATOM     10  C   UNL     1      -5.934   1.642  -5.434  0.00  0.00    +0.000 A 
ATOM     11  C   UNL     1      -5.870   3.022  -5.480  0.00  0.00    +0.001 A 
ATOM     12  C   UNL     1      -5.703   3.746  -4.314  0.00  0.00    +0.015 A 
ATOM     13  C   UNL     1      -5.603   3.089  -3.101  0.00  0.00    +0.025 A 
ATOM     14 BR   UNL     1      -5.381   4.078  -1.505  0.00  0.00    -0.050 Br
ENDBRANCH   4   8
BRANCH   1  17
ATOM     15  C   UNL     1      -1.385  -0.252   0.159  0.00  0.00    +0.064 C 
ATOM     16  C   UNL     1      -1.823  -1.057  -0.812  0.00  0.00    +0.030 C 
ATOM     17  C   UNL     1      -3.242  -1.397  -0.391  0.00  0.00    +0.197 C 
ATOM     18  N   UNL     1      -3.398  -0.660   0.874  0.00  0.00    -0.176 NA
ATOM     19  N   UNL     1      -2.338  -0.071   1.099  0.00  0.00    -0.158 NA
BRANCH  15  21
ATOM     20  C   UNL     1      -0.136   1.889   0.218  0.00  0.00    +0.014 C 
ATOM     21  C   UNL     1      -0.011   0.365   0.203  0.00  0.00    +0.033 C 
ATOM     22  C   UNL     1       0.716  -0.099   1.467  0.00  0.00    +0.014 C 
ENDBRANCH  15  21
ENDBRANCH   1  17
TORSDOF 3
