REMARK  Name = ZINC21319519
REMARK  9 active torsions:
REMARK  status: ('A' for Active; 'I' for Inactive)
REMARK    1  A    between atoms: C_1  and  O_2
REMARK    2  A    between atoms: O_2  and  C_3
REMARK    3  A    between atoms: C_8  and  C_9
REMARK    4  A    between atoms: N_10  and  N_11
REMARK    5  A    between atoms: C_15  and  S_18
REMARK    6  A    between atoms: N_16  and  N_17
REMARK    7  A    between atoms: S_18  and  C_19
REMARK    8  A    between atoms: C_19  and  C_20
REMARK    9  A    between atoms: N_22  and  C_23
REMARK                            x       y       z     vdW  Elec       q    Type
REMARK                         _______ _______ _______ _____ _____    ______ ____
ROOT
ATOM      1  N   UNL     1      -1.206  -0.721  -0.054  0.00  0.00    -0.204 N 
ATOM      2  C   UNL     1      -1.186  -2.108  -0.052  0.00  0.00    +0.254 A 
ATOM      3  N   UNL     1      -0.115  -2.864  -0.070  0.00  0.00    -0.109 NA
ATOM      4  N   UNL     1      -0.529  -4.202  -0.057  0.00  0.00    -0.119 NA
ATOM      5  C   UNL     1      -1.841  -4.220  -0.040  0.00  0.00    +0.210 A 
ATOM      6  N   UNL     1      -2.281  -2.927  -0.037  0.00  0.00    -0.211 N 
ATOM      7  H   UNL     1      -2.166  -0.184  -0.043  0.00  0.00    +0.177 HD
ENDROOT
BRANCH   6   8
ATOM      8  N   UNL     1      -3.586  -2.523  -0.020  0.00  0.00    -0.294 N 
ATOM      9  H   UNL     1      -4.393  -3.270  -0.009  0.00  0.00    +0.163 HD
ATOM     10  H   UNL     1      -3.829  -1.450  -0.019  0.00  0.00    +0.163 HD
ENDBRANCH   6   8
BRANCH   1  12
ATOM     11  C   UNL     1      -0.021   1.295  -0.072  0.00  0.00    +0.142 C 
ATOM     12  N   UNL     1      -0.002  -0.003  -0.070  0.00  0.00    -0.187 NA
BRANCH  11  18
ATOM     13  C   UNL     1       2.471   1.370  -0.104  0.00  0.00    +0.129 A 
ATOM     14  C   UNL     1       3.655   2.089  -0.121  0.00  0.00    +0.046 A 
ATOM     15  C   UNL     1       3.626   3.471  -0.124  0.00  0.00    +0.004 A 
ATOM     16  C   UNL     1       2.418   4.147  -0.110  0.00  0.00    +0.001 A 
ATOM     17  C   UNL     1       1.230   3.447  -0.098  0.00  0.00    +0.013 A 
ATOM     18  C   UNL     1       1.245   2.050  -0.090  0.00  0.00    +0.036 A 
BRANCH  13  20
ATOM     19  C   UNL     1       3.783  -0.612  -0.117  0.00  0.00    +0.277 C 
ATOM     20  O   UNL     1       2.498   0.012  -0.101  0.00  0.00    -0.494 OA
ENDBRANCH  13  20
ENDBRANCH  11  18
ENDBRANCH   1  12
BRANCH   5  21
ATOM     21  S   UNL     1      -2.856  -5.660  -0.025  0.00  0.00    -0.075 S 
BRANCH  21  22
ATOM     22  C   UNL     1      -1.671  -7.033  -0.038  0.00  0.00    +0.173 C 
BRANCH  22  23
ATOM     23  C   UNL     1      -2.418  -8.342  -0.026  0.00  0.00    +0.228 C 
ATOM     24  O   UNL     1      -3.631  -8.347  -0.011  0.00  0.00    -0.275 OA
ATOM     25  N   UNL     1      -1.739  -9.506  -0.033  0.00  0.00    -0.284 N 
ATOM     26  H   UNL     1      -0.643  -9.502  -0.121  0.00  0.00    +0.155 HD
BRANCH  25  27
ATOM     27  C   UNL     1      -2.429 -10.719   0.072  0.00  0.00    +0.047 A 
ATOM     28  C   UNL     1      -3.682 -10.860  -0.508  0.00  0.00    +0.024 A 
ATOM     29  C   UNL     1      -4.359 -12.059  -0.406  0.00  0.00    +0.002 A 
ATOM     30  C   UNL     1      -3.793 -13.118   0.282  0.00  0.00    +0.001 A 
ATOM     31  C   UNL     1      -2.547 -12.980   0.865  0.00  0.00    +0.017 A 
ATOM     32  C   UNL     1      -1.863 -11.784   0.763  0.00  0.00    +0.039 A 
ATOM     33 BR   UNL     1      -0.160 -11.596   1.562  0.00  0.00    -0.048 Br
ENDBRANCH  25  27
ENDBRANCH  22  23
ENDBRANCH  21  22
ENDBRANCH   5  21
TORSDOF 8
