REMARK  Name = ZINC42029070
REMARK  5 active torsions:
REMARK  status: ('A' for Active; 'I' for Inactive)
REMARK    1  A    between atoms: C_1  and  C_2
REMARK    2  A    between atoms: C_7  and  N_8
REMARK    3  A    between atoms: C_9  and  C_13
REMARK    4  A    between atoms: C_15  and  N_20
REMARK    5  A    between atoms: C_17  and  N_19
REMARK                            x       y       z     vdW  Elec       q    Type
REMARK                         _______ _______ _______ _____ _____    ______ ____
ROOT
ATOM      1  N   UNL     1       0.559   0.176   2.352  0.00  0.00    -0.192 N 
ATOM      2  C   UNL     1       0.381  -0.338   3.603  0.00  0.00    +0.187 A 
ATOM      3  N   UNL     1       0.004   0.659   4.376  0.00  0.00    -0.108 NA
ATOM      4  N   UNL     1      -0.066   1.750   3.702  0.00  0.00    -0.022 NA
ATOM      5  N   UNL     1       0.259   1.544   2.472  0.00  0.00    -0.039 NA
ENDROOT
BRANCH   1  12
ATOM      6  C   UNL     1      -1.029   0.446   0.006  0.00  0.00    +0.046 C 
ATOM      7  C   UNL     1       0.214  -0.406   0.032  0.00  0.00    -0.025 A 
ATOM      8  C   UNL     1       0.614  -1.079  -1.106  0.00  0.00    +0.006 A 
ATOM      9  C   UNL     1       1.754  -1.861  -1.084  0.00  0.00    +0.015 A 
ATOM     10  C   UNL     1       2.497  -1.972   0.078  0.00  0.00    +0.020 A 
ATOM     11  C   UNL     1       2.101  -1.301   1.220  0.00  0.00    +0.043 A 
ATOM     12  C   UNL     1       0.960  -0.511   1.198  0.00  0.00    +0.073 A 
ATOM     13 BR   UNL     1       4.055  -3.044   0.104  0.00  0.00    -0.050 Br
ENDBRANCH   1  12
BRANCH   2  14
ATOM     14  C   UNL     1       0.575  -1.747   4.013  0.00  0.00    +0.025 A 
ATOM     15  C   UNL     1       0.354  -2.777   3.099  0.00  0.00    +0.034 A 
ATOM     16  C   UNL     1       0.536  -4.096   3.486  0.00  0.00    +0.027 A 
ATOM     17  C   UNL     1       0.938  -4.392   4.782  0.00  0.00    +0.045 A 
ATOM     18  C   UNL     1       1.158  -3.369   5.695  0.00  0.00    +0.027 A 
ATOM     19  C   UNL     1       0.983  -2.047   5.312  0.00  0.00    +0.034 A 
BRANCH  18  20
ATOM     20  N   UNL     1       1.561  -3.670   6.998  0.00  0.00    -0.358 N 
ATOM     21  H   UNL     1       1.687  -4.594   7.265  0.00  0.00    +0.142 HD
ATOM     22  H   UNL     1       1.714  -2.955   7.636  0.00  0.00    +0.142 HD
ENDBRANCH  18  20
BRANCH  16  23
ATOM     23  N   UNL     1       0.315  -5.129   2.572  0.00  0.00    -0.358 N 
ATOM     24  H   UNL     1      -0.036  -4.929   1.690  0.00  0.00    +0.142 HD
ATOM     25  H   UNL     1       0.513  -6.046   2.818  0.00  0.00    +0.142 HD
ENDBRANCH  16  23
ENDBRANCH   2  14
TORSDOF 4
