REMARK  Name = ZINC08793053
REMARK  11 active torsions:
REMARK  status: ('A' for Active; 'I' for Inactive)
REMARK    1  A    between atoms: C_1  and  C_2
REMARK    2  A    between atoms: C_2  and  O_3
REMARK    3  A    between atoms: O_3  and  C_4
REMARK    4  A    between atoms: C_4  and  C_6
REMARK    5  A    between atoms: C_10  and  N_11
REMARK    6  A    between atoms: C_12  and  C_14
REMARK    7  A    between atoms: C_15  and  C_16
REMARK    8  A    between atoms: C_19  and  N_22
REMARK    9  A    between atoms: C_28  and  C_29
REMARK   10  A    between atoms: C_28  and  C_30
REMARK   11  A    between atoms: C_28  and  N_56
REMARK                            x       y       z     vdW  Elec       q    Type
REMARK                         _______ _______ _______ _____ _____    ______ ____
ROOT
ATOM      1  C   UNL     1       0.050   4.231   0.610  0.00  0.00    +0.091 A 
ATOM      2  C   UNL     1       0.340   5.230  -0.402  0.00  0.00    -0.025 A 
ATOM      3  C   UNL     1       1.397   6.030  -0.138  0.00  0.00    -0.021 A 
ATOM      4  S   UNL     1       2.006   5.474   1.427  0.00  0.00    -0.079 S 
ATOM      5  C   UNL     1       0.871   4.200   1.732  0.00  0.00    +0.086 A 
ATOM      6  C   UNL     1       1.913   7.136  -1.005  0.00  0.00    -0.035 C 
ATOM      7  C   UNL     1      -0.137   6.802  -2.252  0.00  0.00    -0.073 C 
ATOM      8  C   UNL     1      -0.457   5.415  -1.688  0.00  0.00    +0.018 C 
ATOM      9  N   UNL     1       1.328   6.962  -2.357  0.00  0.00    +0.384 N 
ATOM     10  H   UNL     1       1.726   6.120  -2.789  0.00  0.00    -0.081 HD
ENDROOT
BRANCH   5  11
ATOM     11  N   UNL     1       0.800   3.355   2.826  0.00  0.00    -0.276 N 
ATOM     12  C   UNL     1       1.691   3.476   3.830  0.00  0.00    +0.241 C 
ATOM     13  O   UNL     1       2.559   4.328   3.774  0.00  0.00    -0.270 OA
ATOM     14  H   UNL     1       0.108   2.677   2.871  0.00  0.00    +0.156 HD
BRANCH  12  15
ATOM     15  C   UNL     1       1.616   2.583   4.987  0.00  0.00    +0.068 C 
ATOM     16  C   UNL     1       2.585   2.611   5.924  0.00  0.00    +0.013 C 
BRANCH  16  17
ATOM     17  C   UNL     1       3.831   3.354   5.673  0.00  0.00    -0.025 A 
ATOM     18  C   UNL     1       4.471   3.253   4.433  0.00  0.00    +0.010 A 
ATOM     19  C   UNL     1       5.635   3.957   4.204  0.00  0.00    +0.033 A 
ATOM     20  C   UNL     1       6.175   4.752   5.199  0.00  0.00    +0.126 A 
ATOM     21  C   UNL     1       5.551   4.851   6.431  0.00  0.00    +0.033 A 
ATOM     22  C   UNL     1       4.384   4.159   6.674  0.00  0.00    +0.010 A 
BRANCH  20  23
ATOM     23  N   UNL     1       7.428   5.499   4.947  0.00  0.00    +0.056 N 
ATOM     24  O   UNL     1       7.907   6.199   5.821  0.00  0.00    -0.126 OA
ATOM     25  O   UNL     1       7.980   5.414   3.864  0.00  0.00    -0.126 OA
ENDBRANCH  20  23
ENDBRANCH  16  17
ENDBRANCH  12  15
ENDBRANCH   5  11
BRANCH   9  26
ATOM     26  C   UNL     1       1.650   8.133  -3.201  0.00  0.00    -0.074 C 
ATOM     27  C   UNL     1       3.161   8.368  -3.175  0.00  0.00    -0.014 C 
ATOM     28  C   UNL     1       1.203   7.846  -4.636  0.00  0.00    -0.014 C 
ENDBRANCH   9  26
BRANCH   1  29
ATOM     29  C   UNL     1      -1.065   3.295   0.457  0.00  0.00    +0.342 C 
ATOM     30  O   UNL     1      -0.891   2.226  -0.096  0.00  0.00    -0.245 OA
BRANCH  29  31
ATOM     31  O   UNL     1      -2.287   3.620   0.925  0.00  0.00    -0.461 OA
BRANCH  31  33
ATOM     32  C   UNL     1      -4.650   3.188   1.326  0.00  0.00    +0.048 C 
ATOM     33  C   UNL     1      -3.348   2.647   0.734  0.00  0.00    +0.229 C 
ENDBRANCH  31  33
ENDBRANCH  29  31
ENDBRANCH   1  29
TORSDOF 8
