REMARK  Name = ZINC65305083
REMARK  7 active torsions:
REMARK  status: ('A' for Active; 'I' for Inactive)
REMARK    1  A    between atoms: C_1  and  O_2
REMARK    2  A    between atoms: O_2  and  C_3
REMARK    3  A    between atoms: C_3  and  C_5
REMARK    4  A    between atoms: C_10  and  N_11
REMARK    5  A    between atoms: C_12  and  C_14
REMARK    6  A    between atoms: C_14  and  N_15
REMARK    7  A    between atoms: C_25  and  C_29
REMARK                            x       y       z     vdW  Elec       q    Type
REMARK                         _______ _______ _______ _____ _____    ______ ____
ROOT
ATOM      1  N   UNL     1       4.277  -2.887   5.980  0.00  0.00    -0.302 N 
ATOM      2  C   UNL     1       3.796  -3.595   7.074  0.00  0.00    +0.069 A 
ATOM      3  C   UNL     1       2.554  -3.656   7.692  0.00  0.00    +0.028 A 
ATOM      4  C   UNL     1       2.372  -4.471   8.791  0.00  0.00    +0.002 A 
ATOM      5  C   UNL     1       3.422  -5.228   9.281  0.00  0.00    +0.002 A 
ATOM      6  C   UNL     1       4.661  -5.175   8.675  0.00  0.00    +0.028 A 
ATOM      7  C   UNL     1       4.855  -4.359   7.569  0.00  0.00    +0.076 A 
ATOM      8  N   UNL     1       5.963  -4.101   6.764  0.00  0.00    -0.246 N 
ATOM      9  C   UNL     1       5.596  -3.210   5.802  0.00  0.00    +0.197 A 
ATOM     10  N   UNL     1       6.465  -2.795   4.895  0.00  0.00    -0.326 N 
ATOM     11  C   UNL     1       7.728  -3.233   4.887  0.00  0.00    +0.054 A 
ATOM     12  C   UNL     1       8.147  -4.145   5.847  0.00  0.00    +0.097 A 
ATOM     13  C   UNL     1       7.226  -4.575   6.809  0.00  0.00    +0.260 A 
ATOM     14  O   UNL     1       7.556  -5.377   7.668  0.00  0.00    -0.267 OA
ATOM     15  H   UNL     1       6.179  -2.159   4.221  0.00  0.00    +0.169 HD
ENDROOT
BRANCH  11  16
ATOM     16  C   UNL     1       8.676  -2.749   3.857  0.00  0.00    -0.000 A 
ATOM     17  C   UNL     1       8.256  -1.829   2.896  0.00  0.00    +0.010 A 
ATOM     18  C   UNL     1       9.143  -1.381   1.939  0.00  0.00    +0.002 A 
ATOM     19  C   UNL     1      10.448  -1.841   1.931  0.00  0.00    +0.020 A 
ATOM     20  C   UNL     1      10.871  -2.754   2.882  0.00  0.00    +0.042 A 
ATOM     21  C   UNL     1       9.993  -3.206   3.848  0.00  0.00    +0.030 A 
ATOM     22 CL   UNL     1      12.510  -3.327   2.864  0.00  0.00    -0.084 Cl
ENDBRANCH  11  16
BRANCH   1  23
ATOM     23  C   UNL     1       3.503  -1.958   5.154  0.00  0.00    +0.221 C 
BRANCH  23  25
ATOM     24  N   UNL     1       2.094  -2.057   3.123  0.00  0.00    -0.283 N 
ATOM     25  C   UNL     1       2.859  -2.711   4.018  0.00  0.00    +0.237 C 
ATOM     26  O   UNL     1       3.031  -3.907   3.910  0.00  0.00    -0.274 OA
ATOM     27  H   UNL     1       2.018  -1.090   3.164  0.00  0.00    +0.155 HD
BRANCH  24  33
ATOM     28  C   UNL     1       1.237  -2.213   0.862  0.00  0.00    +0.080 A 
ATOM     29  C   UNL     1       0.554  -2.939  -0.118  0.00  0.00    +0.017 A 
ATOM     30  C   UNL     1       0.054  -4.189   0.176  0.00  0.00    +0.001 A 
ATOM     31  C   UNL     1       0.223  -4.730   1.440  0.00  0.00    +0.002 A 
ATOM     32  C   UNL     1       0.894  -4.025   2.419  0.00  0.00    +0.024 A 
ATOM     33  C   UNL     1       1.411  -2.767   2.139  0.00  0.00    +0.047 A 
BRANCH  28  34
ATOM     34  C   UNL     1       1.776  -0.877   0.553  0.00  0.00    +0.341 C 
ATOM     35  O   UNL     1       2.293  -0.213   1.430  0.00  0.00    -0.245 OA
BRANCH  34  37
ATOM     36  C   UNL     1       2.237   0.912  -0.928  0.00  0.00    +0.280 C 
ATOM     37  O   UNL     1       1.694  -0.390  -0.701  0.00  0.00    -0.464 OA
ENDBRANCH  34  37
ENDBRANCH  28  34
ENDBRANCH  24  33
ENDBRANCH  23  25
ENDBRANCH   1  23
TORSDOF 6
