REMARK  Name = ZINC24879720
REMARK  5 active torsions:
REMARK  status: ('A' for Active; 'I' for Inactive)
REMARK    1  A    between atoms: N_9  and  N_13
REMARK    2  A    between atoms: C_14  and  C_16
REMARK    3  A    between atoms: C_16  and  C_17
REMARK    4  A    between atoms: C_17  and  N_18
REMARK    5  A    between atoms: C_21  and  C_24
REMARK                            x       y       z     vdW  Elec       q    Type
REMARK                         _______ _______ _______ _____ _____    ______ ____
ROOT
ATOM      1  N   UNL     1      -1.186   2.116   0.019  0.00  0.00    -0.224 N 
ATOM      2  C   UNL     1      -1.576   2.734   1.152  0.00  0.00    +0.228 C 
ATOM      3  O   UNL     1      -0.915   2.621   2.163  0.00  0.00    -0.274 OA
ATOM      4  H   UNL     1      -1.785   2.219  -0.897  0.00  0.00    +0.174 HD
ENDROOT
BRANCH   1  13
ATOM      5  C   UNL     1       3.616  -2.361  -0.045  0.00  0.00    +0.000 C 
ATOM      6  C   UNL     1       3.305  -1.546   1.212  0.00  0.00    +0.003 C 
ATOM      7  C   UNL     1       1.816  -1.192   1.233  0.00  0.00    +0.035 C 
ATOM      8  C   UNL     1       1.464  -0.388  -0.014  0.00  0.00    +0.114 C 
ATOM      9  C   UNL     1       1.792  -1.178  -1.276  0.00  0.00    +0.035 C 
ATOM     10  C   UNL     1       3.281  -1.532  -1.287  0.00  0.00    +0.003 C 
ATOM     11  C   UNL     1       0.002  -0.004   0.002  0.00  0.00    +0.263 C 
ATOM     12  O   UNL     1      -0.953  -0.751   0.007  0.00  0.00    -0.271 OA
ATOM     13  N   UNL     1      -0.016   1.345   0.009  0.00  0.00    -0.137 N 
ATOM     14  C   UNL     1       1.222   1.855   0.000  0.00  0.00    +0.326 C 
ATOM     15  O   UNL     1       1.462   3.046   0.004  0.00  0.00    -0.251 OA
ATOM     16  N   UNL     1       2.171   0.899  -0.014  0.00  0.00    -0.284 N 
ATOM     17  H   UNL     1       3.270   0.923  -0.024  0.00  0.00    +0.151 HD
ENDBRANCH   1  13
BRANCH   2  18
ATOM     18  C   UNL     1      -2.834   3.564   1.163  0.00  0.00    +0.079 C 
BRANCH  18  19
ATOM     19  C   UNL     1      -3.047   4.149   2.560  0.00  0.00    -0.070 C 
BRANCH  19  20
ATOM     20  N   UNL     1      -4.273   4.957   2.571  0.00  0.00    +0.380 N 
ATOM     21  C   UNL     1      -5.375   4.252   1.903  0.00  0.00    -0.078 C 
ATOM     22  C   UNL     1      -6.589   5.178   1.804  0.00  0.00    -0.006 C 
ATOM     23  C   UNL     1      -7.013   5.609   3.211  0.00  0.00    +0.071 C 
ATOM     24  C   UNL     1      -5.832   6.298   3.902  0.00  0.00    -0.006 C 
ATOM     25  C   UNL     1      -4.640   5.340   3.940  0.00  0.00    -0.078 C 
ATOM     26  H   UNL     1      -4.076   5.881   2.007  0.00  0.00    -0.082 HD
BRANCH  23  27
ATOM     27  C   UNL     1      -8.171   6.569   3.117  0.00  0.00    +0.213 C 
ATOM     28  O   UNL     1      -8.064   7.693   3.558  0.00  0.00    -0.276 OA
ATOM     29  N   UNL     1      -9.325   6.177   2.542  0.00  0.00    -0.329 N 
ATOM     30  H   UNL     1     -10.171   6.877   2.473  0.00  0.00    +0.145 HD
ATOM     31  H   UNL     1      -9.422   5.157   2.141  0.00  0.00    +0.145 HD
ENDBRANCH  23  27
ENDBRANCH  19  20
ENDBRANCH  18  19
ENDBRANCH   2  18
TORSDOF 5
