REMARK  Name = ZINC35566122
REMARK  13 active torsions:
REMARK  status: ('A' for Active; 'I' for Inactive)
REMARK    1  A    between atoms: C_1  and  C_2
REMARK    2  A    between atoms: C_2  and  C_3
REMARK    3  A    between atoms: C_3  and  C_4
REMARK    4  A    between atoms: C_4  and  O_5
REMARK    5  A    between atoms: O_5  and  C_6
REMARK    6  A    between atoms: C_11  and  C_12
REMARK    7  A    between atoms: C_14  and  C_29
REMARK    8  A    between atoms: C_21  and  C_27
REMARK    9  A    between atoms: C_22  and  C_24
REMARK   10  A    between atoms: C_24  and  C_26
REMARK   11  A    between atoms: C_29  and  C_31
REMARK   12  A    between atoms: C_32  and  C_37
REMARK   13  A    between atoms: C_34  and  C_36
REMARK                            x       y       z     vdW  Elec       q    Type
REMARK                         _______ _______ _______ _____ _____    ______ ____
ROOT
ATOM      1  C   UNL     1      -5.108  -4.027  -0.484  0.00  0.00    +0.155 C 
ATOM      2  C   UNL     1      -5.715  -3.320  -1.673  0.00  0.00    +0.077 C 
ATOM      3  C   UNL     1      -7.028  -3.645  -1.692  0.00  0.00    +0.250 C 
ATOM      4  C   UNL     1      -7.322  -4.543  -0.559  0.00  0.00    +0.293 C 
ATOM      5  O   UNL     1      -8.415  -5.010  -0.304  0.00  0.00    -0.266 OA
ATOM      6  N   UNL     1      -6.202  -4.771   0.152  0.00  0.00    -0.232 N 
ATOM      7  C   UNL     1      -6.098  -5.562   1.279  0.00  0.00    +0.169 A 
ATOM      8  N   UNL     1      -5.024  -5.809   2.009  0.00  0.00    -0.229 NA
ATOM      9  C   UNL     1      -5.074  -6.585   3.059  0.00  0.00    +0.058 A 
ATOM     10  C   UNL     1      -6.319  -7.133   3.362  0.00  0.00    +0.078 A 
ATOM     11  S   UNL     1      -7.312  -6.435   2.052  0.00  0.00    -0.049 S 
ATOM     12  C   UNL     1      -3.854  -6.871   3.896  0.00  0.00    +0.067 C 
ATOM     13  O   UNL     1      -7.930  -3.213  -2.605  0.00  0.00    -0.282 OA
ENDROOT
BRANCH   1  19
ATOM     14  C   UNL     1      -2.940  -5.235  -0.125  0.00  0.00    +0.126 A 
ATOM     15  C   UNL     1      -1.954  -6.116  -0.546  0.00  0.00    +0.046 A 
ATOM     16  C   UNL     1      -2.059  -6.731  -1.778  0.00  0.00    +0.004 A 
ATOM     17  C   UNL     1      -3.146  -6.469  -2.592  0.00  0.00    +0.001 A 
ATOM     18  C   UNL     1      -4.129  -5.592  -2.175  0.00  0.00    +0.009 A 
ATOM     19  C   UNL     1      -4.032  -4.979  -0.941  0.00  0.00    +0.020 A 
BRANCH  14  20
ATOM     20  O   UNL     1      -2.839  -4.630   1.087  0.00  0.00    -0.492 OA
BRANCH  20  21
ATOM     21  C   UNL     1      -1.630  -4.841   1.819  0.00  0.00    +0.229 C 
BRANCH  21  22
ATOM     22  C   UNL     1      -1.648  -3.989   3.091  0.00  0.00    +0.041 C 
BRANCH  22  24
ATOM     23  C   UNL     1      -0.296  -3.217   5.044  0.00  0.00    +0.004 C 
ATOM     24  C   UNL     1      -0.316  -4.143   3.826  0.00  0.00    -0.000 C 
ENDBRANCH  22  24
ENDBRANCH  21  22
ENDBRANCH  20  21
ENDBRANCH  14  20
ENDBRANCH   1  19
BRANCH  10  25
ATOM     25  C   UNL     1      -6.692  -7.994   4.413  0.00  0.00    +0.168 C 
ATOM     26  O   UNL     1      -5.862  -8.362   5.221  0.00  0.00    -0.292 OA
ATOM     27  C   UNL     1      -8.120  -8.460   4.535  0.00  0.00    +0.092 C 
ENDBRANCH  10  25
BRANCH   2  28
ATOM     28  C   UNL     1      -5.015  -2.449  -2.625  0.00  0.00    +0.203 C 
ATOM     29  O   UNL     1      -5.600  -2.025  -3.606  0.00  0.00    -0.286 OA
BRANCH  28  30
ATOM     30  C   UNL     1      -3.612  -2.089  -2.395  0.00  0.00    +0.082 A 
ATOM     31  C   UNL     1      -2.733  -1.375  -3.201  0.00  0.00    +0.057 A 
ATOM     32  N   UNL     1      -1.524  -1.205  -2.730  0.00  0.00    -0.249 NA
ATOM     33  C   UNL     1      -1.164  -1.684  -1.561  0.00  0.00    +0.076 A 
ATOM     34  S   UNL     1      -2.557  -2.440  -0.997  0.00  0.00    -0.069 S 
ATOM     35  C   UNL     1       0.177  -1.575  -0.882  0.00  0.00    +0.073 C 
ATOM     36  C   UNL     1      -3.150  -0.828  -4.542  0.00  0.00    +0.067 C 
ENDBRANCH  28  30
ENDBRANCH   2  28
TORSDOF 8
