REMARK  Name = ZINC40691162
REMARK  4 active torsions:
REMARK  status: ('A' for Active; 'I' for Inactive)
REMARK    1  A    between atoms: C_1  and  C_2
REMARK    2  A    between atoms: C_2  and  C_3
REMARK    3  A    between atoms: C_2  and  C_4
REMARK    4  A    between atoms: C_7  and  C_10
REMARK                            x       y       z     vdW  Elec       q    Type
REMARK                         _______ _______ _______ _____ _____    ______ ____
ROOT
ATOM      1  C   UNL     1       2.767  -1.946   4.661  0.00  0.00    +0.004 A 
ATOM      2  C   UNL     1       3.867  -2.722   4.518  0.00  0.00    +0.056 A 
ATOM      3  S   UNL     1       4.197  -3.282   6.177  0.00  0.00    -0.076 S 
ATOM      4  C   UNL     1       2.863  -2.469   7.019  0.00  0.00    +0.118 A 
ATOM      5  C   UNL     1       2.196  -1.776   5.994  0.00  0.00    +0.080 A 
ATOM      6  C   UNL     1       1.056  -1.014   6.396  0.00  0.00    +0.262 A 
ATOM      7  O   UNL     1       0.413  -0.384   5.574  0.00  0.00    -0.267 OA
ATOM      8  N   UNL     1       0.703  -0.999   7.695  0.00  0.00    -0.294 N 
ATOM      9  H   UNL     1      -0.070  -0.482   7.972  0.00  0.00    +0.172 HD
ATOM     10  C   UNL     1       1.411  -1.697   8.628  0.00  0.00    +0.199 A 
ATOM     11  N   UNL     1       2.458  -2.416   8.283  0.00  0.00    -0.208 NA
ATOM     12  N   UNL     1       1.020  -1.658   9.943  0.00  0.00    -0.303 N 
ATOM     13  C   UNL     1       1.864  -2.322  10.957  0.00  0.00    +0.106 C 
ATOM     14  C   UNL     1       1.980  -1.462  12.229  0.00  0.00    -0.000 C 
ATOM     15  C   UNL     1       2.118  -0.007  11.842  0.00  0.00    -0.081 C 
ATOM     16  N   UNL     1       0.796   0.617  11.832  0.00  0.00    +0.380 N 
ATOM     17  C   UNL     1       0.100   0.515  10.607  0.00  0.00    -0.063 C 
ATOM     18  C   UNL     1      -0.203  -0.962  10.287  0.00  0.00    +0.089 C 
ATOM     19  H   UNL     1       0.236   0.188  12.553  0.00  0.00    -0.086 HD
ATOM     20  H   UNL     1       0.904   1.594  12.057  0.00  0.00    -0.086 HD
ENDROOT
BRANCH   1  24
ATOM     21  C   UNL     1       1.022  -0.023   1.295  0.00  0.00    -0.045 A 
ATOM     22  C   UNL     1       2.382   0.087   1.523  0.00  0.00    +0.004 A 
ATOM     23  C   UNL     1       2.954  -0.535   2.614  0.00  0.00    +0.009 A 
ATOM     24  C   UNL     1       2.159  -1.275   3.488  0.00  0.00    -0.017 A 
ATOM     25  C   UNL     1       0.788  -1.381   3.253  0.00  0.00    +0.009 A 
ATOM     26  C   UNL     1       0.227  -0.751   2.162  0.00  0.00    +0.004 A 
BRANCH  21  28
ATOM     27  C   UNL     1       0.651   2.166   0.190  0.00  0.00    +0.012 C 
ATOM     28  C   UNL     1       0.404   0.658   0.102  0.00  0.00    +0.013 C 
ATOM     29  C   UNL     1       1.035   0.113  -1.181  0.00  0.00    +0.012 C 
ENDBRANCH  21  28
ENDBRANCH   1  24
TORSDOF 2
