REMARK  Name = ZINC15022091
REMARK  9 active torsions:
REMARK  status: ('A' for Active; 'I' for Inactive)
REMARK    1  A    between atoms: C_1  and  C_2
REMARK    2  A    between atoms: C_5  and  C_8
REMARK    3  A    between atoms: C_12  and  C_22
REMARK    4  A    between atoms: C_15  and  C_16
REMARK    5  A    between atoms: C_16  and  N_18
REMARK    6  A    between atoms: N_18  and  C_19
REMARK    7  A    between atoms: C_19  and  C_20
REMARK    8  A    between atoms: C_22  and  N_23
REMARK    9  A    between atoms: N_23  and  C_24
REMARK                            x       y       z     vdW  Elec       q    Type
REMARK                         _______ _______ _______ _____ _____    ______ ____
ROOT
ATOM      1  C   UNL     1       3.490   2.342  -0.224  0.00  0.00    +0.017 A 
ATOM      2  C   UNL     1       3.381   0.970  -0.297  0.00  0.00    +0.005 A 
ATOM      3  C   UNL     1       2.051   0.691  -0.056  0.00  0.00    +0.141 A 
ATOM      4  N   UNL     1       1.286  -0.435   0.028  0.00  0.00    -0.311 N 
ATOM      5  C   UNL     1       0.002  -0.004   0.002  0.00  0.00    +0.149 A 
ATOM      6  N   UNL     1      -0.016   1.308   0.009  0.00  0.00    -0.150 NA
ATOM      7  N   UNL     1       1.298   1.797  -0.001  0.00  0.00    -0.211 N 
ATOM      8  C   UNL     1       2.188   2.853  -0.007  0.00  0.00    +0.104 A 
ATOM      9  C   UNL     1       1.901  -1.760   0.257  0.00  0.00    +0.125 C 
ATOM     10  C   UNL     1       3.050  -1.528   1.247  0.00  0.00    +0.022 C 
ATOM     11  C   UNL     1       4.391  -1.079   0.649  0.00  0.00    +0.006 C 
ATOM     12  C   UNL     1       4.298  -0.190  -0.581  0.00  0.00    +0.039 C 
ENDROOT
BRANCH   1  17
ATOM     13  C   UNL     1       8.332   5.418  -0.716  0.00  0.00    +0.044 C 
ATOM     14  C   UNL     1       7.065   4.613  -0.587  0.00  0.00    -0.050 A 
ATOM     15  C   UNL     1       6.068   4.740  -1.538  0.00  0.00    +0.004 A 
ATOM     16  C   UNL     1       4.905   4.006  -1.426  0.00  0.00    +0.009 A 
ATOM     17  C   UNL     1       4.736   3.133  -0.351  0.00  0.00    -0.015 A 
ATOM     18  C   UNL     1       5.743   3.012   0.606  0.00  0.00    +0.009 A 
ATOM     19  C   UNL     1       6.903   3.748   0.481  0.00  0.00    +0.004 A 
ENDBRANCH   1  17
BRANCH   8  20
ATOM     20  C   UNL     1       1.856   4.212   0.172  0.00  0.00    +0.099 C 
ATOM     21  S   UNL     1       3.083   5.405   0.137  0.00  0.00    -0.033 S 
BRANCH  20  22
ATOM     22  N   UNL     1       0.573   4.571   0.372  0.00  0.00    -0.333 N 
ATOM     23  H   UNL     1      -0.123   3.895   0.393  0.00  0.00    +0.147 HD
BRANCH  22  24
ATOM     24  C   UNL     1       0.228   5.983   0.559  0.00  0.00    +0.129 C 
BRANCH  24  25
ATOM     25  C   UNL     1      -1.260   6.114   0.761  0.00  0.00    -0.016 C 
ATOM     26  C   UNL     1      -1.725   6.723   1.824  0.00  0.00    +0.005 C 
ENDBRANCH  24  25
ENDBRANCH  22  24
ENDBRANCH  20  22
ENDBRANCH   8  20
BRANCH   5  27
ATOM     27  C   UNL     1      -1.215  -0.892  -0.029  0.00  0.00    +0.178 C 
BRANCH  27  28
ATOM     28  N   UNL     1      -1.580  -1.172  -1.420  0.00  0.00    -0.337 N 
ATOM     29  H   UNL     1      -1.054  -0.797  -2.144  0.00  0.00    +0.147 HD
BRANCH  28  30
ATOM     30  C   UNL     1      -2.684  -1.980  -1.704  0.00  0.00    +0.028 A 
ATOM     31  C   UNL     1      -3.433  -2.523  -0.669  0.00  0.00    +0.024 A 
ATOM     32  C   UNL     1      -4.528  -3.316  -0.952  0.00  0.00    +0.022 A 
ATOM     33  C   UNL     1      -4.871  -3.580  -2.267  0.00  0.00    +0.041 A 
ATOM     34  C   UNL     1      -4.122  -3.046  -3.300  0.00  0.00    +0.022 A 
ATOM     35  C   UNL     1      -3.030  -2.247  -3.023  0.00  0.00    +0.024 A 
ATOM     36 CL   UNL     1      -6.242  -4.584  -2.619  0.00  0.00    -0.084 Cl
ENDBRANCH  28  30
ENDBRANCH  27  28
ENDBRANCH   5  27
TORSDOF 8
