REMARK  Name = ZINC10213373
REMARK  6 active torsions:
REMARK  status: ('A' for Active; 'I' for Inactive)
REMARK    1  A    between atoms: C_1  and  C_2
REMARK    2  A    between atoms: C_2  and  C_4
REMARK    3  A    between atoms: C_2  and  S_18
REMARK    4  A    between atoms: N_6  and  C_7
REMARK    5  A    between atoms: C_8  and  C_15
REMARK    6  A    between atoms: S_18  and  C_19
REMARK                            x       y       z     vdW  Elec       q    Type
REMARK                         _______ _______ _______ _____ _____    ______ ____
ROOT
ATOM      1  C   UNL     1       2.798   0.445   1.398  0.00  0.00    +0.029 C 
ATOM      2  C   UNL     1       2.462   0.920  -0.017  0.00  0.00    +0.139 C 
ENDROOT
BRANCH   2   3
ATOM      3  C   UNL     1       1.147   1.655   0.000  0.00  0.00    +0.231 C 
ATOM      4  O   UNL     1       1.130   2.868   0.007  0.00  0.00    -0.274 OA
ATOM      5  N   UNL     1      -0.011   0.966   0.007  0.00  0.00    -0.278 N 
ATOM      6  H   UNL     1       0.002  -0.004   0.002  0.00  0.00    +0.155 HD
BRANCH   5   7
ATOM      7  C   UNL     1      -1.221   1.643   0.017  0.00  0.00    +0.084 A 
ATOM      8  C   UNL     1      -2.502   1.116   0.014  0.00  0.00    +0.068 A 
ATOM      9  C   UNL     1      -3.621   2.057   0.030  0.00  0.00    -0.023 A 
ATOM     10  C   UNL     1      -3.274   3.357   0.036  0.00  0.00    -0.004 A 
ATOM     11  S   UNL     1      -1.498   3.351   0.027  0.00  0.00    -0.077 S 
ATOM     12  C   UNL     1      -4.476   4.262   0.049  0.00  0.00    +0.043 C 
ATOM     13  C   UNL     1      -5.644   3.350   0.488  0.00  0.00    +0.010 C 
ATOM     14  C   UNL     1      -5.147   1.963   0.035  0.00  0.00    +0.037 C 
BRANCH   8  15
ATOM     15  C   UNL     1      -2.727  -0.332   0.001  0.00  0.00    +0.244 C 
ATOM     16  O   UNL     1      -2.819  -0.944   1.049  0.00  0.00    -0.270 OA
ATOM     17  N   UNL     1      -2.833  -0.987  -1.173  0.00  0.00    -0.325 N 
ATOM     18  H   UNL     1      -2.760  -0.499  -2.009  0.00  0.00    +0.145 HD
ATOM     19  H   UNL     1      -2.982  -1.945  -1.182  0.00  0.00    +0.145 HD
ENDBRANCH   8  15
ENDBRANCH   5   7
ENDBRANCH   2   3
BRANCH   2  20
ATOM     20  S   UNL     1       3.766   2.028  -0.607  0.00  0.00    -0.053 S 
BRANCH  20  21
ATOM     21  C   UNL     1       5.119   0.902  -0.669  0.00  0.00    +0.274 C 
ATOM     22  N   UNL     1       5.068  -0.360  -0.352  0.00  0.00    -0.135 NA
ATOM     23  N   UNL     1       6.349  -0.900  -0.539  0.00  0.00    -0.202 N 
ATOM     24  C   UNL     1       7.134   0.103  -0.976  0.00  0.00    +0.218 C 
ATOM     25  C   UNL     1       8.503   0.011  -1.293  0.00  0.00    +0.061 C 
ATOM     26  C   UNL     1       9.323  -1.128  -1.222  0.00  0.00    +0.125 C 
ATOM     27  N   UNL     1      10.541  -0.817  -1.598  0.00  0.00    -0.254 NA
ATOM     28  C   UNL     1      10.652   0.479  -1.937  0.00  0.00    +0.072 A 
ATOM     29  C   UNL     1       9.383   1.085  -1.776  0.00  0.00    +0.014 A 
ATOM     30  C   UNL     1       9.215   2.439  -2.053  0.00  0.00    +0.011 A 
ATOM     31  C   UNL     1      10.279   3.176  -2.494  0.00  0.00    +0.001 A 
ATOM     32  C   UNL     1      11.527   2.586  -2.661  0.00  0.00    +0.002 A 
ATOM     33  C   UNL     1      11.721   1.263  -2.391  0.00  0.00    +0.028 A 
ATOM     34  O   UNL     1       6.373   1.206  -1.059  0.00  0.00    -0.415 OA
ATOM     35  H   UNL     1       6.618  -1.819  -0.384  0.00  0.00    +0.178 HD
ENDBRANCH  20  21
ENDBRANCH   2  20
TORSDOF 5
