REMARK  Name = ZINC11878474
REMARK  9 active torsions:
REMARK  status: ('A' for Active; 'I' for Inactive)
REMARK    1  A    between atoms: C_4  and  C_7
REMARK    2  A    between atoms: C_7  and  C_8
REMARK    3  A    between atoms: C_7  and  C_28
REMARK    4  A    between atoms: C_8  and  N_68
REMARK    5  A    between atoms: C_14  and  C_16
REMARK    6  A    between atoms: C_16  and  C_17
REMARK    7  A    between atoms: N_19  and  C_20
REMARK    8  A    between atoms: C_20  and  C_21
REMARK    9  A    between atoms: C_21  and  O_27
REMARK                            x       y       z     vdW  Elec       q    Type
REMARK                         _______ _______ _______ _____ _____    ______ ____
ROOT
ATOM      1  C   UNL     1      -2.663   1.276   2.910  0.00  0.00    -0.059 C 
ATOM      2  C   UNL     1      -1.697   0.511   3.817  0.00  0.00    +0.085 C 
ATOM      3  N   UNL     1      -0.334   0.993   3.615  0.00  0.00    -0.318 N 
ATOM      4  C   UNL     1       0.037   1.689   2.536  0.00  0.00    +0.200 C 
ATOM      5  O   UNL     1       1.199   2.022   2.434  0.00  0.00    -0.278 OA
ATOM      6  C   UNL     1      -0.922   2.076   1.447  0.00  0.00    +0.028 C 
ATOM      7  H   UNL     1       0.332   0.799   4.293  0.00  0.00    +0.149 HD
ATOM      8  N   UNL     1      -2.130   1.234   1.534  0.00  0.00    +0.389 N 
ATOM      9  H   UNL     1      -1.881   0.266   1.300  0.00  0.00    -0.081 HD
ENDROOT
BRANCH   8  10
ATOM     10  C   UNL     1      -3.152   1.714   0.577  0.00  0.00    -0.065 C 
BRANCH  10  11
ATOM     11  C   UNL     1      -4.436   0.904   0.768  0.00  0.00    +0.032 C 
BRANCH  11  15
ATOM     12  C   UNL     1      -7.402   2.265  -1.989  0.00  0.00    +0.000 A 
ATOM     13  C   UNL     1      -6.145   1.913  -2.444  0.00  0.00    +0.000 A 
ATOM     14  C   UNL     1      -5.185   1.473  -1.552  0.00  0.00    +0.004 A 
ATOM     15  C   UNL     1      -5.482   1.384  -0.205  0.00  0.00    -0.042 A 
ATOM     16  C   UNL     1      -6.741   1.731   0.250  0.00  0.00    +0.004 A 
ATOM     17  C   UNL     1      -7.699   2.176  -0.642  0.00  0.00    +0.000 A 
ENDBRANCH  11  15
BRANCH  11  18
ATOM     18  C   UNL     1      -4.151  -0.555   0.519  0.00  0.00    -0.042 A 
ATOM     19  C   UNL     1      -3.538  -0.949  -0.655  0.00  0.00    +0.004 A 
ATOM     20  C   UNL     1      -3.272  -2.286  -0.881  0.00  0.00    +0.000 A 
ATOM     21  C   UNL     1      -3.629  -3.231   0.063  0.00  0.00    +0.000 A 
ATOM     22  C   UNL     1      -4.247  -2.837   1.235  0.00  0.00    +0.000 A 
ATOM     23  C   UNL     1      -4.508  -1.499   1.463  0.00  0.00    +0.004 A 
ENDBRANCH  11  18
ENDBRANCH  10  11
ENDBRANCH   8  10
BRANCH   6  24
ATOM     24  C   UNL     1      -0.260   1.857   0.085  0.00  0.00    +0.089 C 
BRANCH  24  25
ATOM     25  C   UNL     1       0.032   0.390  -0.101  0.00  0.00    +0.212 C 
ATOM     26  O   UNL     1      -0.196  -0.392   0.797  0.00  0.00    -0.276 OA
ATOM     27  N   UNL     1       0.545  -0.053  -1.266  0.00  0.00    -0.313 N 
ATOM     28  H   UNL     1       0.727   0.573  -1.984  0.00  0.00    +0.149 HD
BRANCH  27  29
ATOM     29  C   UNL     1       0.828  -1.479  -1.447  0.00  0.00    +0.138 C 
BRANCH  29  30
ATOM     30  C   UNL     1       1.400  -1.711  -2.847  0.00  0.00    +0.081 C 
ATOM     31  C   UNL     1       0.439  -1.143  -3.892  0.00  0.00    +0.036 C 
ATOM     32  C   UNL     1       1.011  -1.376  -5.292  0.00  0.00    +0.003 C 
ATOM     33  C   UNL     1       1.190  -2.877  -5.526  0.00  0.00    +0.000 C 
ATOM     34  C   UNL     1       2.152  -3.445  -4.481  0.00  0.00    +0.003 C 
ATOM     35  C   UNL     1       1.579  -3.213  -3.081  0.00  0.00    +0.036 C 
BRANCH  30  36
ATOM     36  O   UNL     1       2.666  -1.058  -2.958  0.00  0.00    -0.387 OA
ATOM     37  H   UNL     1       2.628  -0.101  -2.821  0.00  0.00    +0.210 HD
ENDBRANCH  30  36
ENDBRANCH  29  30
ENDBRANCH  27  29
ENDBRANCH  24  25
ENDBRANCH   6  24
TORSDOF 9
