REMARK  Name = ZINC63681099
REMARK  10 active torsions:
REMARK  status: ('A' for Active; 'I' for Inactive)
REMARK    1  A    between atoms: C_1  and  C_2
REMARK    2  A    between atoms: C_5  and  C_36
REMARK    3  A    between atoms: C_6  and  S_8
REMARK    4  A    between atoms: S_8  and  N_11
REMARK    5  A    between atoms: C_16  and  C_18
REMARK    6  A    between atoms: C_18  and  N_19
REMARK    7  A    between atoms: C_20  and  C_22
REMARK    8  A    between atoms: N_24  and  C_25
REMARK    9  A    between atoms: C_25  and  C_26
REMARK   10  A    between atoms: C_26  and  C_27
REMARK                            x       y       z     vdW  Elec       q    Type
REMARK                         _______ _______ _______ _____ _____    ______ ____
ROOT
ATOM      1  N   UNL     1       0.879  -5.557   3.195  0.00  0.00    -0.304 N 
ATOM      2  C   UNL     1       2.183  -5.890   3.256  0.00  0.00    +0.299 C 
ATOM      3  O   UNL     1       2.738  -6.350   2.279  0.00  0.00    -0.265 OA
ATOM      4  H   UNL     1       0.435  -5.190   3.976  0.00  0.00    +0.149 HD
ENDROOT
BRANCH   2   5
ATOM      5  C   UNL     1       2.946  -5.694   4.526  0.00  0.00    +0.299 C 
ATOM      6  O   UNL     1       2.392  -5.234   5.502  0.00  0.00    -0.265 OA
ATOM      7  N   UNL     1       4.251  -6.027   4.586  0.00  0.00    -0.307 N 
ATOM      8  H   UNL     1       4.695  -6.394   3.805  0.00  0.00    +0.149 HD
BRANCH   7   9
ATOM      9  C   UNL     1       4.999  -5.834   5.831  0.00  0.00    +0.109 C 
BRANCH   9  10
ATOM     10  C   UNL     1       6.447  -6.288   5.631  0.00  0.00    +0.052 C 
BRANCH  10  11
ATOM     11  C   UNL     1       7.216  -6.090   6.911  0.00  0.00    -0.040 C 
ATOM     12  C   UNL     1       7.446  -7.013   7.873  0.00  0.00    -0.001 A 
ATOM     13  C   UNL     1       7.061  -8.422   8.011  0.00  0.00    +0.010 A 
ATOM     14  C   UNL     1       7.446  -9.103   9.115  0.00  0.00    +0.001 A 
ATOM     15  C   UNL     1       8.201  -8.497  10.128  0.00  0.00    +0.002 A 
ATOM     16  C   UNL     1       8.593  -7.206  10.073  0.00  0.00    +0.026 A 
ATOM     17  C   UNL     1       8.244  -6.396   8.957  0.00  0.00    +0.043 A 
ATOM     18  N   UNL     1       8.498  -5.141   8.676  0.00  0.00    -0.380 N 
ATOM     19  C   UNL     1       7.895  -4.821   7.378  0.00  0.00    +0.144 C 
ATOM     20  H   UNL     1       9.005  -4.528   9.231  0.00  0.00    +0.160 HD
ENDBRANCH  10  11
ENDBRANCH   9  10
ENDBRANCH   7   9
ENDBRANCH   2   5
BRANCH   1  21
ATOM     21  C   UNL     1       0.130  -5.750   1.951  0.00  0.00    +0.154 C 
BRANCH  21  27
ATOM     22  N   UNL     1      -1.336  -3.915   2.655  0.00  0.00    -0.147 NA
ATOM     23  C   UNL     1      -2.620  -3.356   3.106  0.00  0.00    +0.114 C 
ATOM     24  C   UNL     1      -3.254  -4.346   4.091  0.00  0.00    +0.045 C 
ATOM     25  C   UNL     1      -3.289  -5.735   3.447  0.00  0.00    +0.163 C 
ATOM     26  O   UNL     1      -1.960  -6.141   3.116  0.00  0.00    -0.358 OA
ATOM     27  C   UNL     1      -1.317  -5.296   2.150  0.00  0.00    +0.226 C 
BRANCH  22  28
ATOM     28  S   UNL     1       0.051  -3.011   2.708  0.00  0.00    +0.063 S 
ATOM     29  O   UNL     1       1.031  -3.727   1.970  0.00  0.00    -0.153 OA
ATOM     30  O   UNL     1       0.241  -2.639   4.066  0.00  0.00    -0.153 OA
BRANCH  28  36
ATOM     31  C   UNL     1      -0.485   2.184   2.495  0.00  0.00    +0.044 C 
ATOM     32  C   UNL     1      -0.498   0.859   1.777  0.00  0.00    -0.049 A 
ATOM     33  C   UNL     1      -0.757   0.810   0.420  0.00  0.00    +0.004 A 
ATOM     34  C   UNL     1      -0.769  -0.405  -0.238  0.00  0.00    +0.005 A 
ATOM     35  C   UNL     1      -0.522  -1.572   0.461  0.00  0.00    -0.024 A 
ATOM     36  C   UNL     1      -0.263  -1.524   1.817  0.00  0.00    +0.109 A 
ATOM     37  C   UNL     1      -0.247  -0.307   2.475  0.00  0.00    +0.032 A 
ATOM     38  C   UNL     1      -0.537  -2.897  -0.257  0.00  0.00    +0.046 C 
ENDBRANCH  28  36
ENDBRANCH  22  28
ENDBRANCH  21  27
ENDBRANCH   1  21
TORSDOF 8
