REMARK  Name = ZINC18199828
REMARK  4 active torsions:
REMARK  status: ('A' for Active; 'I' for Inactive)
REMARK    1  A    between atoms: C_4  and  O_7
REMARK    2  A    between atoms: O_7  and  C_8
REMARK    3  A    between atoms: C_12  and  C_14
REMARK    4  A    between atoms: C_19  and  C_24
REMARK                            x       y       z     vdW  Elec       q    Type
REMARK                         _______ _______ _______ _____ _____    ______ ____
ROOT
ATOM      1  C   UNL     1       3.743   1.741  -0.722  0.00  0.00    +0.176 C 
ATOM      2  C   UNL     1       2.327   1.212  -0.658  0.00  0.00    +0.041 C 
ATOM      3  C   UNL     1       1.327   1.907  -0.075  0.00  0.00    +0.020 C 
ATOM      4  C   UNL     1      -0.076   1.351  -0.021  0.00  0.00    +0.060 C 
ATOM      5  C   UNL     1      -0.023  -0.177   0.043  0.00  0.00    +0.039 C 
ATOM      6  C   UNL     1       0.728  -0.686  -1.192  0.00  0.00    +0.088 C 
ATOM      7  C   UNL     1       2.090  -0.051  -1.231  0.00  0.00    +0.164 C 
ATOM      8  O   UNL     1       3.006  -0.641  -1.769  0.00  0.00    -0.292 OA
ATOM      9  N   UNL     1       1.536   3.144   0.485  0.00  0.00    -0.287 N 
ATOM     10  C   UNL     1       2.715   3.806   0.182  0.00  0.00    +0.220 A 
ATOM     11  N   UNL     1       3.760   3.161  -0.391  0.00  0.00    -0.219 N 
ATOM     12  N   UNL     1       4.767   4.109  -0.565  0.00  0.00    -0.132 NA
ATOM     13  C   UNL     1       4.300   5.247  -0.098  0.00  0.00    +0.233 A 
ATOM     14  N   UNL     1       3.054   5.054   0.356  0.00  0.00    -0.180 NA
ATOM     15  N   UNL     1       4.992   6.459  -0.078  0.00  0.00    -0.326 N 
ATOM     16  H   UNL     1       0.877   3.543   1.075  0.00  0.00    +0.155 HD
ATOM     17  H   UNL     1       5.894   6.508  -0.429  0.00  0.00    +0.145 HD
ATOM     18  H   UNL     1       4.569   7.252   0.286  0.00  0.00    +0.145 HD
ENDROOT
BRANCH   1  23
ATOM     19  C   UNL     1       6.490  -0.419   0.715  0.00  0.00    +0.129 A 
ATOM     20  C   UNL     1       6.180  -0.393   2.067  0.00  0.00    +0.046 A 
ATOM     21  C   UNL     1       5.085   0.323   2.510  0.00  0.00    +0.004 A 
ATOM     22  C   UNL     1       4.297   1.013   1.607  0.00  0.00    +0.006 A 
ATOM     23  C   UNL     1       4.604   0.988   0.259  0.00  0.00    -0.015 A 
ATOM     24  C   UNL     1       5.695   0.270  -0.190  0.00  0.00    +0.052 A 
BRANCH  19  25
ATOM     25  O   UNL     1       7.566  -1.123   0.277  0.00  0.00    -0.456 OA
BRANCH  25  29
ATOM     26  C   UNL     1      10.759   0.983  -1.269  0.00  0.00    +0.000 A 
ATOM     27  C   UNL     1       9.697   1.660  -0.697  0.00  0.00    +0.004 A 
ATOM     28  C   UNL     1       8.627   0.957  -0.179  0.00  0.00    +0.046 A 
ATOM     29  C   UNL     1       8.618  -0.429  -0.233  0.00  0.00    +0.128 A 
ATOM     30  C   UNL     1       9.686  -1.106  -0.803  0.00  0.00    +0.046 A 
ATOM     31  C   UNL     1      10.752  -0.398  -1.324  0.00  0.00    +0.004 A 
ENDBRANCH  25  29
ENDBRANCH  19  25
ENDBRANCH   1  23
BRANCH   5  32
ATOM     32  C   UNL     1      -1.423  -0.734   0.052  0.00  0.00    -0.006 A 
ATOM     33  C   UNL     1      -2.029  -1.505   0.989  0.00  0.00    +0.011 A 
ATOM     34  C   UNL     1      -3.338  -1.901   0.786  0.00  0.00    +0.008 A 
ATOM     35  C   UNL     1      -3.973  -1.516  -0.348  0.00  0.00    +0.045 A 
ATOM     36  S   UNL     1      -2.711  -0.558  -1.171  0.00  0.00    -0.101 S 
ENDBRANCH   5  32
TORSDOF 4
