REMARK  Name = ZINC02437447
REMARK  8 active torsions:
REMARK  status: ('A' for Active; 'I' for Inactive)
REMARK    1  A    between atoms: C_1  and  C_2
REMARK    2  A    between atoms: C_2  and  C_3
REMARK    3  A    between atoms: C_2  and  C_4
REMARK    4  A    between atoms: C_2  and  C_5
REMARK    5  A    between atoms: N_7  and  C_8
REMARK    6  A    between atoms: C_8  and  C_23
REMARK    7  A    between atoms: N_11  and  C_15
REMARK    8  A    between atoms: C_12  and  O_14
REMARK                            x       y       z     vdW  Elec       q    Type
REMARK                         _______ _______ _______ _____ _____    ______ ____
ROOT
ATOM      1  C   UNL     1       1.422  -2.299  -2.706  0.00  0.00    +0.304 C 
ATOM      2  C   UNL     1       2.884  -1.918  -2.833  0.00  0.00    +0.283 C 
ATOM      3  O   UNL     1       3.360  -0.803  -2.808  0.00  0.00    -0.270 OA
ATOM      4  N   UNL     1       3.540  -3.088  -2.980  0.00  0.00    -0.191 N 
ATOM      5  C   UNL     1       2.659  -4.142  -2.959  0.00  0.00    +0.292 C 
ATOM      6  N   UNL     1       1.430  -3.767  -2.806  0.00  0.00    -0.192 NA
ENDROOT
BRANCH   4   7
ATOM      7  C   UNL     1       4.928  -3.211  -3.134  0.00  0.00    +0.047 A 
ATOM      8  C   UNL     1       5.516  -4.468  -3.154  0.00  0.00    +0.027 A 
ATOM      9  C   UNL     1       6.884  -4.588  -3.306  0.00  0.00    +0.041 A 
ATOM     10  C   UNL     1       7.669  -3.455  -3.437  0.00  0.00    +0.142 A 
ATOM     11  C   UNL     1       7.084  -2.199  -3.416  0.00  0.00    +0.078 A 
ATOM     12  C   UNL     1       5.715  -2.076  -3.271  0.00  0.00    +0.047 A 
ATOM     13 CL   UNL     1       8.071  -0.780  -3.579  0.00  0.00    -0.081 Cl
ATOM     14  F   UNL     1       9.007  -3.574  -3.584  0.00  0.00    -0.204 F 
ENDBRANCH   4   7
BRANCH   1  17
ATOM     15  C   UNL     1       0.945  -0.577  -1.050  0.00  0.00    +0.221 C 
ATOM     16  O   UNL     1       1.513   0.226  -1.761  0.00  0.00    -0.275 OA
ATOM     17  N   UNL     1       0.890  -1.875  -1.409  0.00  0.00    -0.276 N 
ATOM     18  H   UNL     1       0.499  -2.528  -0.807  0.00  0.00    +0.152 HD
BRANCH  15  20
ATOM     19  C   UNL     1       0.506   1.385   0.402  0.00  0.00    +0.020 C 
ATOM     20  C   UNL     1       0.300  -0.122   0.234  0.00  0.00    +0.039 C 
ATOM     21  C   UNL     1       0.938  -0.858   1.414  0.00  0.00    +0.020 C 
ATOM     22  C   UNL     1      -1.198  -0.430   0.189  0.00  0.00    +0.020 C 
ENDBRANCH  15  20
ENDBRANCH   1  17
BRANCH   1  23
ATOM     23  C   UNL     1       0.604  -1.688  -3.845  0.00  0.00    +0.440 C 
ATOM     24  F   UNL     1       0.764  -0.298  -3.841  0.00  0.00    -0.166 F 
ATOM     25  F   UNL     1       1.047  -2.205  -5.067  0.00  0.00    -0.166 F 
ATOM     26  F   UNL     1      -0.748  -2.002  -3.669  0.00  0.00    -0.166 F 
ENDBRANCH   1  23
BRANCH   5  27
ATOM     27  O   UNL     1       3.036  -5.433  -3.085  0.00  0.00    -0.481 OA
ATOM     28  H   UNL     1       2.303  -6.062  -3.051  0.00  0.00    +0.295 HD
ENDBRANCH   5  27
TORSDOF 5
