REMARK  Name = ZINC38535725
REMARK  5 active torsions:
REMARK  status: ('A' for Active; 'I' for Inactive)
REMARK    1  A    between atoms: C_1  and  C_2
REMARK    2  A    between atoms: N_9  and  N_10
REMARK    3  A    between atoms: C_11  and  C_12
REMARK    4  A    between atoms: C_13  and  C_25
REMARK    5  A    between atoms: N_15  and  C_19
REMARK                            x       y       z     vdW  Elec       q    Type
REMARK                         _______ _______ _______ _____ _____    ______ ____
ROOT
ATOM      1  C   UNL     1      -6.002  -0.975   0.027  0.00  0.00    +0.027 C 
ATOM      2  C   UNL     1      -6.112  -2.311   0.025  0.00  0.00    +0.027 C 
ATOM      3  N   UNL     1      -7.425  -2.709   0.027  0.00  0.00    -0.266 N 
ATOM      4  N   UNL     1      -8.279  -1.599   0.031  0.00  0.00    -0.231 N 
ATOM      5  C   UNL     1      -7.407  -0.412   0.037  0.00  0.00    +0.218 C 
ATOM      6 CL   UNL     1      -7.681   0.567   1.526  0.00  0.00    -0.094 Cl
ATOM      7  C   UNL     1      -4.939  -3.257   0.021  0.00  0.00    +0.062 C 
ATOM      8  H   UNL     1      -7.721  -3.633   0.026  0.00  0.00    +0.170 HD
ENDROOT
BRANCH   4   9
ATOM      9  C   UNL     1      -9.675  -1.614   0.034  0.00  0.00    +0.050 A 
ATOM     10  C   UNL     1     -10.384  -0.419   0.031  0.00  0.00    +0.025 A 
ATOM     11  C   UNL     1     -11.765  -0.438   0.033  0.00  0.00    +0.002 A 
ATOM     12  C   UNL     1     -12.442  -1.643   0.038  0.00  0.00    +0.000 A 
ATOM     13  C   UNL     1     -11.739  -2.834   0.042  0.00  0.00    +0.002 A 
ATOM     14  C   UNL     1     -10.358  -2.823   0.033  0.00  0.00    +0.025 A 
ENDBRANCH   4   9
BRANCH   1  16
ATOM     15  N   UNL     1      -3.612  -0.822   0.015  0.00  0.00    -0.189 NA
ATOM     16  C   UNL     1      -4.758  -0.205   0.025  0.00  0.00    +0.138 C 
BRANCH  15  25
ATOM     17  C   UNL     1      -0.018   1.503   0.010  0.00  0.00    +0.071 C 
ATOM     18  C   UNL     1       0.002  -0.004   0.002  0.00  0.00    +0.100 A 
ATOM     19  C   UNL     1      -1.211  -0.735   0.004  0.00  0.00    +0.166 A 
ATOM     20  N   UNL     1      -1.155  -2.063  -0.004  0.00  0.00    -0.174 NA
ATOM     21  C   UNL     1       0.039  -2.662  -0.013  0.00  0.00    +0.364 A 
ATOM     22  O   UNL     1       0.105  -3.881  -0.021  0.00  0.00    -0.243 OA
ATOM     23  N   UNL     1       1.169  -1.933  -0.015  0.00  0.00    -0.226 N 
ATOM     24  N   UNL     1       1.137  -0.647  -0.012  0.00  0.00    -0.172 NA
ATOM     25  N   UNL     1      -2.420  -0.085   0.014  0.00  0.00    -0.219 N 
ATOM     26  H   UNL     1      -2.450   0.885   0.020  0.00  0.00    +0.176 HD
ATOM     27  H   UNL     1       2.026  -2.386  -0.022  0.00  0.00    +0.194 HD
ENDBRANCH  15  25
ENDBRANCH   1  16
TORSDOF 3
