REMARK  Name = ZINC03612945
REMARK  11 active torsions:
REMARK  status: ('A' for Active; 'I' for Inactive)
REMARK    1  A    between atoms: C_1  and  O_2
REMARK    2  A    between atoms: O_2  and  C_3
REMARK    3  A    between atoms: C_6  and  N_31
REMARK    4  A    between atoms: C_8  and  N_9
REMARK    5  A    between atoms: N_9  and  C_10
REMARK    6  A    between atoms: N_9  and  S_27
REMARK    7  A    between atoms: C_10  and  C_11
REMARK    8  A    between atoms: N_13  and  C_14
REMARK    9  A    between atoms: C_19  and  S_20
REMARK   10  A    between atoms: S_20  and  C_21
REMARK   11  A    between atoms: S_27  and  C_30
REMARK                            x       y       z     vdW  Elec       q    Type
REMARK                         _______ _______ _______ _____ _____    ______ ____
ROOT
ATOM      1  C   UNL     1      -3.766   2.213  -0.097  0.00  0.00    +0.227 C 
ENDROOT
BRANCH   1   2
ATOM      2  C   UNL     1      -2.487   1.460  -0.356  0.00  0.00    +0.236 C 
ATOM      3  O   UNL     1      -2.527   0.303  -0.719  0.00  0.00    -0.274 OA
ATOM      4  N   UNL     1      -1.298   2.072  -0.183  0.00  0.00    -0.283 N 
ATOM      5  H   UNL     1      -1.266   3.017   0.033  0.00  0.00    +0.155 HD
BRANCH   4   6
ATOM      6  C   UNL     1      -0.109   1.343  -0.317  0.00  0.00    +0.047 A 
ATOM      7  C   UNL     1      -0.128  -0.041  -0.227  0.00  0.00    +0.024 A 
ATOM      8  C   UNL     1       1.045  -0.759  -0.365  0.00  0.00    +0.002 A 
ATOM      9  C   UNL     1       2.240  -0.102  -0.592  0.00  0.00    +0.001 A 
ATOM     10  C   UNL     1       2.269   1.277  -0.683  0.00  0.00    +0.017 A 
ATOM     11  C   UNL     1       1.097   2.006  -0.546  0.00  0.00    +0.034 A 
BRANCH  11  12
ATOM     12  S   UNL     1       1.130   3.764  -0.660  0.00  0.00    -0.088 S 
BRANCH  12  13
ATOM     13  C   UNL     1       2.793   4.130  -1.114  0.00  0.00    +0.013 A 
ATOM     14  C   UNL     1       3.732   4.432  -0.135  0.00  0.00    +0.015 A 
ATOM     15  C   UNL     1       5.035   4.714  -0.495  0.00  0.00    +0.001 A 
ATOM     16  C   UNL     1       5.404   4.706  -1.828  0.00  0.00    +0.000 A 
ATOM     17  C   UNL     1       4.470   4.411  -2.805  0.00  0.00    +0.001 A 
ATOM     18  C   UNL     1       3.167   4.123  -2.453  0.00  0.00    +0.015 A 
ENDBRANCH  12  13
ENDBRANCH  11  12
ENDBRANCH   4   6
ENDBRANCH   1   2
BRANCH   1  19
ATOM     19  N   UNL     1      -4.910   1.335  -0.354  0.00  0.00    -0.195 N 
BRANCH  19  25
ATOM     20  C   UNL     1      -4.931  -0.847   0.694  0.00  0.00    +0.143 A 
ATOM     21  C   UNL     1      -5.390  -1.693   1.689  0.00  0.00    +0.050 A 
ATOM     22  C   UNL     1      -6.284  -1.227   2.636  0.00  0.00    +0.036 A 
ATOM     23  C   UNL     1      -6.721   0.084   2.593  0.00  0.00    +0.128 A 
ATOM     24  C   UNL     1      -6.263   0.936   1.606  0.00  0.00    +0.061 A 
ATOM     25  C   UNL     1      -5.371   0.474   0.650  0.00  0.00    +0.095 A 
BRANCH  23  26
ATOM     26  N   UNL     1      -7.677   0.576   3.610  0.00  0.00    +0.056 N 
ATOM     27  O   UNL     1      -8.077  -0.173   4.483  0.00  0.00    -0.126 OA
ATOM     28  O   UNL     1      -8.063   1.731   3.574  0.00  0.00    -0.126 OA
ENDBRANCH  23  26
BRANCH  20  30
ATOM     29  C   UNL     1      -3.644  -2.669  -0.131  0.00  0.00    +0.277 C 
ATOM     30  O   UNL     1      -4.052  -1.304  -0.238  0.00  0.00    -0.493 OA
ENDBRANCH  20  30
ENDBRANCH  19  25
BRANCH  19  31
ATOM     31  S   UNL     1      -5.658   1.360  -1.831  0.00  0.00    +0.043 S 
ATOM     32  O   UNL     1      -7.011   1.021  -1.558  0.00  0.00    -0.155 OA
ATOM     33  O   UNL     1      -5.326   2.626  -2.384  0.00  0.00    -0.155 OA
ATOM     34  C   UNL     1      -4.861   0.035  -2.779  0.00  0.00    +0.218 C 
ENDBRANCH  19  31
ENDBRANCH   1  19
TORSDOF 9
