REMARK  Name = ZINC59383113
REMARK  9 active torsions:
REMARK  status: ('A' for Active; 'I' for Inactive)
REMARK    1  A    between atoms: C_1  and  C_2
REMARK    2  A    between atoms: C_21  and  C_28
REMARK    3  A    between atoms: C_22  and  C_24
REMARK    4  A    between atoms: C_24  and  O_26
REMARK    5  A    between atoms: O_26  and  C_27
REMARK    6  A    between atoms: C_28  and  O_30
REMARK    7  A    between atoms: O_30  and  C_31
REMARK    8  A    between atoms: C_32  and  C_34
REMARK    9  A    between atoms: C_32  and  C_35
REMARK                            x       y       z     vdW  Elec       q    Type
REMARK                         _______ _______ _______ _____ _____    ______ ____
ROOT
ATOM      1  C   UNL     1      -0.063   1.431  -0.014  0.00  0.00    +0.044 C 
ATOM      2  C   UNL     1      -0.038  -0.075  -0.000  0.00  0.00    -0.050 A 
ATOM      3  C   UNL     1      -0.048  -0.777  -1.191  0.00  0.00    +0.005 A 
ATOM      4  C   UNL     1      -0.077  -2.156  -1.161  0.00  0.00    +0.023 A 
ATOM      5  C   UNL     1      -0.060  -2.832   0.052  0.00  0.00    +0.032 A 
ATOM      6  C   UNL     1       0.077  -2.132   1.248  0.00  0.00    -0.012 A 
ATOM      7  C   UNL     1      -0.005  -0.754   1.203  0.00  0.00    +0.009 A 
ATOM      8  C   UNL     1       0.352  -2.846   2.541  0.00  0.00    +0.133 C 
ATOM      9  C   UNL     1       0.374  -4.322   2.352  0.00  0.00    +0.055 C 
ATOM     10  N   UNL     1       1.115  -5.164   2.911  0.00  0.00    -0.250 NA
ATOM     11  C   UNL     1       2.183  -5.172   3.725  0.00  0.00    +0.105 A 
ATOM     12  C   UNL     1       2.503  -6.342   4.429  0.00  0.00    +0.031 A 
ATOM     13  C   UNL     1       3.603  -6.369   5.258  0.00  0.00    +0.002 A 
ATOM     14  C   UNL     1       4.392  -5.241   5.400  0.00  0.00    +0.004 A 
ATOM     15  C   UNL     1       4.080  -4.085   4.714  0.00  0.00    +0.048 A 
ATOM     16  C   UNL     1       2.969  -4.048   3.871  0.00  0.00    +0.149 A 
ATOM     17  O   UNL     1       2.741  -2.867   3.239  0.00  0.00    -0.462 OA
ATOM     18  C   UNL     1       1.466  -2.263   3.360  0.00  0.00    +0.224 C 
ATOM     19  S   UNL     1       0.978  -2.291   5.138  0.00  0.00    -0.058 S 
ATOM     20  C   UNL     1       1.517  -0.723   5.746  0.00  0.00    +0.117 C 
ATOM     21  C   UNL     1       1.841   0.164   4.780  0.00  0.00    +0.117 C 
ATOM     22  S   UNL     1       1.648  -0.455   3.136  0.00  0.00    -0.058 S 
ATOM     23  C   UNL     1      -0.577  -4.897   1.294  0.00  0.00    +0.065 C 
ATOM     24  N   UNL     1      -0.223  -4.220   0.040  0.00  0.00    -0.333 N 
ATOM     25  C   UNL     1      -0.355  -6.404   1.155  0.00  0.00    +0.037 C 
ATOM     26  C   UNL     1      -2.031  -4.613   1.663  0.00  0.00    +0.037 C 
ATOM     27  H   UNL     1      -0.106  -4.725  -0.776  0.00  0.00    +0.147 HD
ENDROOT
BRANCH  21  28
ATOM     28  C   UNL     1       2.313   1.527   5.073  0.00  0.00    +0.347 C 
ATOM     29  O   UNL     1       3.505   1.761   5.120  0.00  0.00    -0.244 OA
BRANCH  28  30
ATOM     30  O   UNL     1       1.422   2.517   5.289  0.00  0.00    -0.464 OA
ATOM     31  C   UNL     1       1.950   3.815   5.568  0.00  0.00    +0.280 C 
ENDBRANCH  28  30
ENDBRANCH  21  28
BRANCH  20  32
ATOM     32  C   UNL     1       1.602  -0.406   7.181  0.00  0.00    +0.347 C 
ATOM     33  O   UNL     1       2.069   0.656   7.542  0.00  0.00    -0.244 OA
BRANCH  32  34
ATOM     34  O   UNL     1       1.163  -1.296   8.094  0.00  0.00    -0.464 OA
ATOM     35  C   UNL     1       1.277  -0.923   9.469  0.00  0.00    +0.280 C 
ENDBRANCH  32  34
ENDBRANCH  20  32
TORSDOF 4
