REMARK  Name = ZINC05929549
REMARK  5 active torsions:
REMARK  status: ('A' for Active; 'I' for Inactive)
REMARK    1  A    between atoms: C_1  and  C_2
REMARK    2  A    between atoms: C_5  and  S_8
REMARK    3  A    between atoms: S_8  and  N_11
REMARK    4  A    between atoms: N_14  and  C_15
REMARK    5  A    between atoms: C_15  and  C_16
REMARK                            x       y       z     vdW  Elec       q    Type
REMARK                         _______ _______ _______ _____ _____    ______ ____
ROOT
ATOM      1  N   UNL     1       0.024  -0.502   1.581  0.00  0.00    -0.169 N 
ATOM      2  C   UNL     1      -1.030  -0.249   2.382  0.00  0.00    +0.319 C 
ATOM      3  O   UNL     1      -1.997   0.345   1.946  0.00  0.00    -0.251 OA
ATOM      4  N   UNL     1      -1.012  -0.654   3.667  0.00  0.00    -0.298 N 
ATOM      5  H   UNL     1       0.795  -0.976   1.930  0.00  0.00    +0.178 HD
ATOM      6  H   UNL     1      -0.241  -1.128   4.016  0.00  0.00    +0.150 HD
ENDROOT
BRANCH   1   7
ATOM      7  S   UNL     1       0.002  -0.004   0.002  0.00  0.00    +0.076 S 
ATOM      8  O   UNL     1      -1.243  -0.424  -0.539  0.00  0.00    -0.150 OA
ATOM      9  O   UNL     1       1.248  -0.390  -0.563  0.00  0.00    -0.150 OA
BRANCH   7  14
ATOM     10  C   UNL     1      -0.080   6.029   0.036  0.00  0.00    +0.044 C 
ATOM     11  C   UNL     1      -0.059   4.522   0.026  0.00  0.00    -0.050 A 
ATOM     12  C   UNL     1       1.147   3.847   0.012  0.00  0.00    +0.005 A 
ATOM     13  C   UNL     1       1.166   2.465   0.004  0.00  0.00    +0.029 A 
ATOM     14  C   UNL     1      -0.022   1.758   0.012  0.00  0.00    +0.109 A 
ATOM     15  C   UNL     1      -1.228   2.433   0.021  0.00  0.00    +0.029 A 
ATOM     16  C   UNL     1      -1.247   3.815   0.033  0.00  0.00    +0.005 A 
ENDBRANCH   7  14
ENDBRANCH   1   7
BRANCH   4  17
ATOM     17  C   UNL     1      -2.158  -0.379   4.538  0.00  0.00    +0.109 C 
BRANCH  17  18
ATOM     18  C   UNL     1      -1.883  -0.941   5.935  0.00  0.00    +0.010 C 
ATOM     19  C   UNL     1      -1.902  -2.486   5.907  0.00  0.00    +0.009 C 
ATOM     20  C   UNL     1      -3.061  -2.884   6.872  0.00  0.00    -0.010 C 
ATOM     21  C   UNL     1      -2.529  -2.521   8.292  0.00  0.00    +0.004 C 
ATOM     22  C   UNL     1      -2.510  -0.976   8.319  0.00  0.00    +0.004 C 
ATOM     23  C   UNL     1      -3.033  -0.550   6.913  0.00  0.00    -0.006 C 
ATOM     24  C   UNL     1      -4.062  -1.700   6.626  0.00  0.00    +0.007 C 
ENDBRANCH  17  18
ENDBRANCH   4  17
TORSDOF 4
