REMARK  Name = ZINC30977723
REMARK  14 active torsions:
REMARK  status: ('A' for Active; 'I' for Inactive)
REMARK    1  A    between atoms: C_1  and  C_2
REMARK    2  A    between atoms: C_2  and  O_3
REMARK    3  A    between atoms: O_3  and  C_4
REMARK    4  A    between atoms: C_7  and  C_10
REMARK    5  A    between atoms: C_10  and  C_12
REMARK    6  A    between atoms: C_10  and  N_13
REMARK    7  A    between atoms: C_14  and  C_16
REMARK    8  A    between atoms: N_19  and  C_22
REMARK    9  A    between atoms: C_22  and  C_23
REMARK   10  A    between atoms: C_25  and  C_28
REMARK   11  A    between atoms: C_31  and  C_34
REMARK   12  A    between atoms: C_34  and  C_35
REMARK   13  A    between atoms: C_34  and  C_36
REMARK   14  A    between atoms: C_34  and  C_37
REMARK                            x       y       z     vdW  Elec       q    Type
REMARK                         _______ _______ _______ _____ _____    ______ ____
ROOT
ATOM      1  C   UNL     1       1.761   1.283   4.160  0.00  0.00    +0.071 C 
ATOM      2  C   UNL     1       0.792   1.219   5.344  0.00  0.00    -0.006 C 
ATOM      3  C   UNL     1       1.551   0.770   6.594  0.00  0.00    -0.077 C 
ATOM      4  N   UNL     1       2.635   1.719   6.877  0.00  0.00    +0.386 N 
ATOM      5  C   UNL     1       3.604   1.762   5.774  0.00  0.00    -0.077 C 
ATOM      6  C   UNL     1       2.906   2.241   4.499  0.00  0.00    -0.006 C 
ATOM      7  H   UNL     1       2.189   2.720   6.971  0.00  0.00    -0.081 HD
ENDROOT
BRANCH   1   9
ATOM      8  N   UNL     1      -0.020   1.094   2.454  0.00  0.00    -0.309 N 
ATOM      9  C   UNL     1       1.032   1.782   2.939  0.00  0.00    +0.216 C 
ATOM     10  O   UNL     1       1.392   2.804   2.393  0.00  0.00    -0.276 OA
ATOM     11  H   UNL     1      -0.347   0.168   2.949  0.00  0.00    +0.149 HD
BRANCH   8  12
ATOM     12  C   UNL     1      -0.729   1.579   1.267  0.00  0.00    +0.100 C 
ATOM     13  C   UNL     1      -0.013   1.086   0.008  0.00  0.00    +0.033 C 
BRANCH  12  17
ATOM     14  C   UNL     1      -4.738   0.100   1.297  0.00  0.00    +0.121 A 
ATOM     15  C   UNL     1      -4.481   1.401   0.890  0.00  0.00    +0.046 A 
ATOM     16  C   UNL     1      -3.184   1.877   0.882  0.00  0.00    +0.009 A 
ATOM     17  C   UNL     1      -2.143   1.058   1.278  0.00  0.00    -0.027 A 
ATOM     18  C   UNL     1      -2.396  -0.241   1.677  0.00  0.00    +0.009 A 
ATOM     19  C   UNL     1      -3.692  -0.720   1.694  0.00  0.00    +0.046 A 
BRANCH  14  20
ATOM     20  O   UNL     1      -6.013  -0.371   1.306  0.00  0.00    -0.492 OA
BRANCH  20  22
ATOM     21  C   UNL     1      -7.692  -2.068   1.678  0.00  0.00    +0.048 C 
ATOM     22  C   UNL     1      -6.203  -1.720   1.736  0.00  0.00    +0.225 C 
ENDBRANCH  20  22
ENDBRANCH  14  20
ENDBRANCH  12  17
ENDBRANCH   8  12
ENDBRANCH   1   9
BRANCH   4  23
ATOM     23  C   UNL     1       3.299   1.397   8.148  0.00  0.00    +0.022 C 
BRANCH  23  24
ATOM     24  C   UNL     1       2.331   1.600   9.285  0.00  0.00    +0.211 A 
ATOM     25  N   UNL     1       1.516   0.704   9.783  0.00  0.00    -0.193 NA
ATOM     26  C   UNL     1       0.850   1.332  10.778  0.00  0.00    +0.202 A 
ATOM     27  N   UNL     1       1.295   2.561  10.825  0.00  0.00    -0.056 NA
ATOM     28  O   UNL     1       2.147   2.728   9.979  0.00  0.00    -0.340 OA
BRANCH  26  29
ATOM     29  C   UNL     1      -0.192   0.738  11.652  0.00  0.00    +0.022 A 
ATOM     30  C   UNL     1      -0.573  -0.591  11.482  0.00  0.00    +0.012 A 
ATOM     31  C   UNL     1      -1.539  -1.140  12.302  0.00  0.00    +0.005 A 
ATOM     32  C   UNL     1      -2.136  -0.369  13.283  0.00  0.00    -0.042 A 
ATOM     33  C   UNL     1      -1.766   0.952  13.452  0.00  0.00    +0.005 A 
ATOM     34  C   UNL     1      -0.797   1.510  12.642  0.00  0.00    +0.012 A 
BRANCH  32  35
ATOM     35  C   UNL     1      -3.195  -0.972  14.170  0.00  0.00    -0.013 C 
ATOM     36  C   UNL     1      -4.503  -0.196  14.003  0.00  0.00    +0.015 C 
ATOM     37  C   UNL     1      -3.417  -2.434  13.778  0.00  0.00    +0.015 C 
ATOM     38  C   UNL     1      -2.740  -0.898  15.629  0.00  0.00    +0.015 C 
ENDBRANCH  32  35
ENDBRANCH  26  29
ENDBRANCH  23  24
ENDBRANCH   4  23
TORSDOF 9
