REMARK  Name = ZINC09602658
REMARK  5 active torsions:
REMARK  status: ('A' for Active; 'I' for Inactive)
REMARK    1  A    between atoms: C_1  and  C_2
REMARK    2  A    between atoms: C_11  and  N_15
REMARK    3  A    between atoms: N_15  and  C_16
REMARK    4  A    between atoms: C_16  and  C_18
REMARK    5  A    between atoms: C_16  and  C_19
REMARK                            x       y       z     vdW  Elec       q    Type
REMARK                         _______ _______ _______ _____ _____    ______ ____
ROOT
ATOM      1  C   UNL     1      -1.390  -0.225   1.536  0.00  0.00    +0.008 C 
ATOM      2  C   UNL     1      -0.050   0.234   0.957  0.00  0.00    -0.009 C 
ATOM      3  C   UNL     1       1.095  -0.270   1.840  0.00  0.00    +0.008 C 
ATOM      4  C   UNL     1       2.433  -0.033   1.139  0.00  0.00    +0.037 C 
ATOM      5  C   UNL     1       2.522   1.433   0.725  0.00  0.00    -0.025 A 
ATOM      6  C   UNL     1       1.407   2.193   0.643  0.00  0.00    -0.004 A 
ATOM      7  S   UNL     1       1.970   3.799   0.136  0.00  0.00    -0.073 S 
ATOM      8  C   UNL     1       3.696   3.452   0.034  0.00  0.00    +0.114 A 
ATOM      9  C   UNL     1       3.780   2.085   0.401  0.00  0.00    +0.051 A 
ATOM     10  C   UNL     1       5.080   1.502   0.413  0.00  0.00    +0.131 A 
ATOM     11  N   UNL     1       6.082   2.311   0.076  0.00  0.00    -0.220 NA
ATOM     12  C   UNL     1       5.927   3.577  -0.255  0.00  0.00    +0.224 A 
ATOM     13  N   UNL     1       4.746   4.182  -0.287  0.00  0.00    -0.228 NA
ATOM     14  C   UNL     1      -0.003   1.768   0.920  0.00  0.00    +0.046 C 
ENDROOT
BRANCH  10  15
ATOM     15  N   UNL     1       5.288   0.177   0.754  0.00  0.00    -0.318 N 
ATOM     16  H   UNL     1       4.530  -0.407   0.915  0.00  0.00    +0.148 HD
BRANCH  15  17
ATOM     17  C   UNL     1       6.652  -0.343   0.873  0.00  0.00    +0.154 C 
ATOM     18  C   UNL     1       7.156  -0.772  -0.507  0.00  0.00    +0.038 C 
BRANCH  17  19
ATOM     19  C   UNL     1       6.658  -1.530   1.801  0.00  0.00    +0.231 C 
ATOM     20  O   UNL     1       5.624  -1.905   2.313  0.00  0.00    -0.274 OA
ATOM     21  N   UNL     1       7.811  -2.176   2.062  0.00  0.00    -0.328 N 
ATOM     22  H   UNL     1       8.638  -1.877   1.653  0.00  0.00    +0.145 HD
ATOM     23  H   UNL     1       7.815  -2.940   2.660  0.00  0.00    +0.145 HD
ENDBRANCH  17  19
ENDBRANCH  15  17
ENDBRANCH  10  15
TORSDOF 3
