REMARK  Name = ZINC35341922
REMARK  6 active torsions:
REMARK  status: ('A' for Active; 'I' for Inactive)
REMARK    1  A    between atoms: C_1  and  C_2
REMARK    2  A    between atoms: C_5  and  N_8
REMARK    3  A    between atoms: N_8  and  C_9
REMARK    4  A    between atoms: C_10  and  C_20
REMARK    5  A    between atoms: N_24  and  C_28
REMARK    6  A    between atoms: C_28  and  C_29
REMARK                            x       y       z     vdW  Elec       q    Type
REMARK                         _______ _______ _______ _____ _____    ______ ____
ROOT
ATOM      1  C   UNL     1       1.262  -4.812   0.070  0.00  0.00    +0.134 A 
ATOM      2  C   UNL     1       1.640  -6.175   0.012  0.00  0.00    +0.081 A 
ATOM      3  C   UNL     1       2.932  -6.533   0.467  0.00  0.00    +0.267 A 
ATOM      4  O   UNL     1       3.300  -7.694   0.435  0.00  0.00    -0.267 OA
ATOM      5  N   UNL     1       3.749  -5.566   0.938  0.00  0.00    -0.268 N 
ATOM      6  C   UNL     1       4.995  -5.902   1.378  0.00  0.00    +0.096 A 
ATOM      7  C   UNL     1       5.838  -4.959   1.855  0.00  0.00    +0.018 A 
ATOM      8  C   UNL     1       5.437  -3.616   1.902  0.00  0.00    +0.005 A 
ATOM      9  C   UNL     1       4.193  -3.270   1.464  0.00  0.00    +0.047 A 
ATOM     10  C   UNL     1       3.330  -4.265   0.970  0.00  0.00    +0.142 A 
ATOM     11  N   UNL     1       2.117  -3.916   0.539  0.00  0.00    -0.214 NA
ENDROOT
BRANCH   2  12
ATOM     12  C   UNL     1       0.751  -7.154  -0.488  0.00  0.00    +0.037 C 
ATOM     13  C   UNL     1       0.257  -8.116   0.344  0.00  0.00    +0.077 C 
ATOM     14  C   UNL     1       0.408  -8.260   1.752  0.00  0.00    +0.259 C 
ATOM     15  O   UNL     1       1.055  -7.455   2.399  0.00  0.00    -0.269 OA
ATOM     16  N   UNL     1      -0.174  -9.292   2.339  0.00  0.00    -0.251 N 
ATOM     17  C   UNL     1      -0.892 -10.185   1.622  0.00  0.00    +0.121 C 
ATOM     18  S   UNL     1      -1.722 -11.579   2.167  0.00  0.00    -0.027 S 
ATOM     19  S   UNL     1      -0.761  -9.536  -0.037  0.00  0.00    -0.061 S 
BRANCH  16  20
ATOM     20  C   UNL     1      -0.038  -9.470   3.787  0.00  0.00    +0.151 C 
BRANCH  20  21
ATOM     21  C   UNL     1       1.065 -10.457   4.070  0.00  0.00    -0.011 A 
ATOM     22  C   UNL     1       0.768 -11.795   4.244  0.00  0.00    +0.006 A 
ATOM     23  C   UNL     1       1.780 -12.700   4.503  0.00  0.00    +0.000 A 
ATOM     24  C   UNL     1       3.090 -12.267   4.590  0.00  0.00    +0.001 A 
ATOM     25  C   UNL     1       3.389 -10.929   4.418  0.00  0.00    +0.020 A 
ATOM     26  C   UNL     1       2.377 -10.023   4.152  0.00  0.00    +0.046 A 
ATOM     27 CL   UNL     1       2.752  -8.343   3.928  0.00  0.00    -0.083 Cl
ENDBRANCH  20  21
ENDBRANCH  16  20
ENDBRANCH   2  12
BRANCH   1  28
ATOM     28  N   UNL     1       0.014  -4.420  -0.363  0.00  0.00    -0.326 N 
ATOM     29  H   UNL     1      -0.610  -5.079  -0.706  0.00  0.00    +0.148 HD
BRANCH  28  34
ATOM     30  C   UNL     1      -2.798   0.544   0.159  0.00  0.00    +0.007 C 
ATOM     31  C   UNL     1      -2.397  -0.931   0.100  0.00  0.00    -0.014 C 
ATOM     32  C   UNL     1      -1.854  -1.256  -1.293  0.00  0.00    +0.005 C 
ATOM     33  C   UNL     1      -1.452  -2.731  -1.353  0.00  0.00    +0.022 C 
ATOM     34  C   UNL     1      -0.371  -3.008  -0.306  0.00  0.00    +0.072 C 
ATOM     35  C   UNL     1      -0.914  -2.683   1.087  0.00  0.00    +0.022 C 
ATOM     36  C   UNL     1      -1.315  -1.208   1.146  0.00  0.00    +0.005 C 
ENDBRANCH  28  34
ENDBRANCH   1  28
TORSDOF 5
