REMARK  Name = ZINC03640565
REMARK  14 active torsions:
REMARK  status: ('A' for Active; 'I' for Inactive)
REMARK    1  A    between atoms: C_1  and  C_2
REMARK    2  A    between atoms: C_2  and  C_3
REMARK    3  A    between atoms: C_3  and  N_4
REMARK    4  A    between atoms: N_4  and  C_5
REMARK    5  A    between atoms: N_4  and  C_8
REMARK    6  A    between atoms: C_5  and  C_6
REMARK    7  A    between atoms: C_6  and  C_7
REMARK    8  A    between atoms: C_8  and  C_9
REMARK    9  A    between atoms: C_10  and  C_20
REMARK   10  A    between atoms: N_22  and  N_23
REMARK   11  A    between atoms: C_24  and  C_25
REMARK   12  A    between atoms: C_26  and  C_33
REMARK   13  A    between atoms: C_28  and  C_32
REMARK   14  A    between atoms: C_30  and  C_31
REMARK                            x       y       z     vdW  Elec       q    Type
REMARK                         _______ _______ _______ _____ _____    ______ ____
ROOT
ATOM      1  C   UNL     1       2.881   1.820  -1.654  0.00  0.00    +0.063 A 
ATOM      2  C   UNL     1       1.763   1.138  -1.264  0.00  0.00    +0.170 A 
ATOM      3  N   UNL     1       1.970  -0.174  -1.472  0.00  0.00    -0.124 NA
ATOM      4  N   UNL     1       3.142  -0.351  -1.974  0.00  0.00    -0.058 NA
ATOM      5  N   UNL     1       3.762   0.899  -2.104  0.00  0.00    -0.194 N 
ATOM      6  C   UNL     1       5.045   1.147  -2.604  0.00  0.00    +0.240 A 
ATOM      7  C   UNL     1       5.987   0.134  -3.088  0.00  0.00    +0.206 A 
ATOM      8  N   UNL     1       7.077   0.739  -3.474  0.00  0.00    -0.032 NA
ATOM      9  O   UNL     1       6.899   2.128  -3.266  0.00  0.00    -0.239 OA
ATOM     10  N   UNL     1       5.604   2.318  -2.724  0.00  0.00    -0.027 NA
ATOM     11  N   UNL     1       5.759  -1.237  -3.129  0.00  0.00    -0.337 N 
ATOM     12  H   UNL     1       6.537  -1.913  -3.513  0.00  0.00    +0.144 HD
ATOM     13  H   UNL     1       4.800  -1.645  -2.777  0.00  0.00    +0.144 HD
ENDROOT
BRANCH   2  14
ATOM     14  C   UNL     1       0.538   1.740  -0.705  0.00  0.00    +0.285 C 
ATOM     15  O   UNL     1       0.465   2.945  -0.557  0.00  0.00    -0.267 OA
ATOM     16  N   UNL     1      -0.501   0.954  -0.358  0.00  0.00    -0.202 N 
ATOM     17  H   UNL     1      -0.433  -0.136  -0.488  0.00  0.00    +0.178 HD
BRANCH  16  18
ATOM     18  N   UNL     1      -1.667   1.526   0.167  0.00  0.00    -0.187 NA
ATOM     19  C   UNL     1      -2.669   0.769   0.496  0.00  0.00    +0.138 C 
BRANCH  19  20
ATOM     20  C   UNL     1      -3.896   1.371   1.050  0.00  0.00    +0.000 A 
ATOM     21  C   UNL     1      -3.938   2.737   1.343  0.00  0.00    -0.041 A 
ATOM     22  C   UNL     1      -5.091   3.294   1.855  0.00  0.00    +0.007 A 
ATOM     23  C   UNL     1      -6.201   2.502   2.089  0.00  0.00    -0.050 A 
ATOM     24  C   UNL     1      -6.165   1.147   1.807  0.00  0.00    +0.007 A 
ATOM     25  C   UNL     1      -5.021   0.578   1.289  0.00  0.00    -0.041 A 
ATOM     26  C   UNL     1      -4.983  -0.897   0.983  0.00  0.00    +0.044 C 
ATOM     27  C   UNL     1      -7.455   3.117   2.655  0.00  0.00    +0.044 C 
ATOM     28  C   UNL     1      -2.728   3.600   1.093  0.00  0.00    +0.044 C 
ENDBRANCH  19  20
ENDBRANCH  16  18
ENDBRANCH   2  14
BRANCH   1  29
ATOM     29  C   UNL     1       3.091   3.311  -1.593  0.00  0.00    -0.020 C 
BRANCH  29  30
ATOM     30  N   UNL     1       2.762   3.905  -2.896  0.00  0.00    +0.383 N 
ATOM     31  H   UNL     1       3.267   3.314  -3.674  0.00  0.00    -0.081 HD
BRANCH  30  32
ATOM     32  C   UNL     1       1.317   3.848  -3.151  0.00  0.00    -0.079 C 
BRANCH  32  34
ATOM     33  C   UNL     1      -0.466   4.181  -4.869  0.00  0.00    +0.002 C 
ATOM     34  C   UNL     1       1.039   4.241  -4.603  0.00  0.00    -0.022 C 
ENDBRANCH  32  34
ENDBRANCH  30  32
BRANCH  30  35
ATOM     35  C   UNL     1       3.258   5.286  -2.984  0.00  0.00    -0.079 C 
BRANCH  35  36
ATOM     36  C   UNL     1       4.769   5.271  -3.219  0.00  0.00    -0.022 C 
ATOM     37  C   UNL     1       5.266   6.701  -3.439  0.00  0.00    +0.002 C 
ENDBRANCH  35  36
ENDBRANCH  30  35
ENDBRANCH  29  30
ENDBRANCH   1  29
TORSDOF 9
