REMARK  Name = ZINC02791366
REMARK  13 active torsions:
REMARK  status: ('A' for Active; 'I' for Inactive)
REMARK    1  A    between atoms: C_1  and  C_2
REMARK    2  A    between atoms: C_2  and  C_3
REMARK    3  A    between atoms: C_2  and  C_4
REMARK    4  A    between atoms: C_7  and  C_10
REMARK    5  A    between atoms: C_13  and  C_32
REMARK    6  A    between atoms: C_18  and  C_20
REMARK    7  A    between atoms: C_23  and  S_30
REMARK    8  A    between atoms: N_24  and  C_25
REMARK    9  A    between atoms: C_25  and  C_26
REMARK   10  A    between atoms: C_26  and  C_27
REMARK   11  A    between atoms: C_27  and  N_64
REMARK   12  A    between atoms: C_28  and  N_64
REMARK   13  A    between atoms: C_29  and  N_64
REMARK                            x       y       z     vdW  Elec       q    Type
REMARK                         _______ _______ _______ _____ _____    ______ ____
ROOT
ATOM      1  C   UNL     1      -2.514   0.980   0.019  0.00  0.00    +0.104 C 
ATOM      2  C   UNL     1      -3.091   0.939  -1.400  0.00  0.00    +0.063 C 
ATOM      3  C   UNL     1      -3.278   2.366  -1.928  0.00  0.00    +0.215 C 
ATOM      4  N   UNL     1      -4.001   3.152  -0.924  0.00  0.00    -0.238 N 
ATOM      5  C   UNL     1      -4.091   2.801   0.392  0.00  0.00    +0.119 A 
ATOM      6  C   UNL     1      -4.826   3.737   1.027  0.00  0.00    +0.076 A 
ATOM      7  C   UNL     1      -5.204   4.704   0.069  0.00  0.00    +0.132 A 
ATOM      8  N   UNL     1      -4.703   4.344  -1.099  0.00  0.00    -0.166 NA
ATOM      9  N   UNL     1      -3.488   1.649   0.904  0.00  0.00    -0.322 N 
ATOM     10  H   UNL     1      -3.697   1.308   1.788  0.00  0.00    +0.148 HD
ENDROOT
BRANCH   1  14
ATOM     11  C   UNL     1       1.156   3.165   0.008  0.00  0.00    -0.045 A 
ATOM     12  C   UNL     1       1.175   1.783   0.000  0.00  0.00    +0.004 A 
ATOM     13  C   UNL     1      -0.013   1.076   0.008  0.00  0.00    +0.006 A 
ATOM     14  C   UNL     1      -1.219   1.751   0.017  0.00  0.00    -0.027 A 
ATOM     15  C   UNL     1      -1.238   3.133   0.030  0.00  0.00    +0.006 A 
ATOM     16  C   UNL     1      -0.050   3.840   0.023  0.00  0.00    +0.004 A 
BRANCH  11  18
ATOM     17  C   UNL     1       2.508   4.824  -1.246  0.00  0.00    +0.012 C 
ATOM     18  C   UNL     1       2.451   3.937  -0.001  0.00  0.00    +0.013 C 
ATOM     19  C   UNL     1       2.532   4.811   1.252  0.00  0.00    +0.012 C 
ENDBRANCH  11  18
ENDBRANCH   1  14
BRANCH   7  20
ATOM     20  C   UNL     1      -6.018   5.910   0.329  0.00  0.00    +0.185 A 
ATOM     21  N   UNL     1      -6.525   6.275   1.484  0.00  0.00    -0.127 NA
ATOM     22  N   UNL     1      -7.174   7.376   1.350  0.00  0.00    -0.122 NA
ATOM     23  C   UNL     1      -7.130   7.777   0.099  0.00  0.00    +0.189 A 
ATOM     24  N   UNL     1      -6.393   6.859  -0.594  0.00  0.00    -0.301 N 
BRANCH  23  25
ATOM     25  S   UNL     1      -7.880   9.228  -0.561  0.00  0.00    -0.103 S 
ATOM     26  H   UNL     1      -9.139   8.709  -0.925  0.00  0.00    +0.110 HD
ENDBRANCH  23  25
BRANCH  24  27
ATOM     27  C   UNL     1      -6.069   6.880  -2.022  0.00  0.00    +0.124 C 
BRANCH  27  28
ATOM     28  C   UNL     1      -7.155   6.138  -2.803  0.00  0.00    +0.003 C 
BRANCH  28  29
ATOM     29  C   UNL     1      -6.817   6.160  -4.295  0.00  0.00    -0.078 C 
BRANCH  29  32
ATOM     30  C   UNL     1      -7.699   5.648  -6.491  0.00  0.00    -0.097 C 
ATOM     31  C   UNL     1      -7.866   4.017  -4.709  0.00  0.00    -0.097 C 
ATOM     32  N   UNL     1      -7.885   5.458  -5.037  0.00  0.00    +0.376 N 
ATOM     33  H   UNL     1      -8.794   5.850  -4.763  0.00  0.00    -0.083 HD
ENDBRANCH  29  32
ENDBRANCH  28  29
ENDBRANCH  27  28
ENDBRANCH  24  27
ENDBRANCH   7  20
BRANCH   3  34
ATOM     34  C   UNL     1      -4.083   2.330  -3.228  0.00  0.00    +0.412 C 
ATOM     35  F   UNL     1      -5.336   1.756  -2.985  0.00  0.00    -0.168 F 
ATOM     36  F   UNL     1      -4.253   3.633  -3.708  0.00  0.00    -0.168 F 
ATOM     37  F   UNL     1      -3.398   1.568  -4.180  0.00  0.00    -0.168 F 
ENDBRANCH   3  34
TORSDOF 9
