REMARK  Name = ZINC05369414
REMARK  5 active torsions:
REMARK  status: ('A' for Active; 'I' for Inactive)
REMARK    1  A    between atoms: C_1  and  C_2
REMARK    2  A    between atoms: N_8  and  N_9
REMARK    3  A    between atoms: C_14  and  O_24
REMARK    4  A    between atoms: C_16  and  C_23
REMARK    5  A    between atoms: C_19  and  C_22
REMARK                            x       y       z     vdW  Elec       q    Type
REMARK                         _______ _______ _______ _____ _____    ______ ____
ROOT
ATOM      1  C   UNL     1      -1.418  -0.460   0.261  0.00  0.00    +0.008 C 
ATOM      2  C   UNL     1       0.020   0.063   0.279  0.00  0.00    -0.004 C 
ATOM      3  C   UNL     1       0.011   1.585   0.218  0.00  0.00    +0.034 C 
ATOM      4  C   UNL     1       1.411   2.151   0.113  0.00  0.00    -0.061 C 
ATOM      5  C   UNL     1       2.406   1.444  -0.394  0.00  0.00    +0.006 C 
ATOM      6  C   UNL     1       2.193   0.050  -0.840  0.00  0.00    +0.065 C 
ATOM      7  N   UNL     1       3.203  -0.712  -1.135  0.00  0.00    -0.183 NA
ATOM      8  C   UNL     1       0.778  -0.469  -0.946  0.00  0.00    +0.061 C 
ATOM      9  C   UNL     1       3.800   1.999  -0.577  0.00  0.00    +0.093 C 
ATOM     10  C   UNL     1       3.894   2.556  -2.007  0.00  0.00    +0.043 C 
ATOM     11  C   UNL     1       2.741   3.546  -2.206  0.00  0.00    -0.011 C 
ATOM     12  C   UNL     1       2.878   4.692  -1.205  0.00  0.00    +0.010 C 
ATOM     13  C   UNL     1       2.916   4.167   0.222  0.00  0.00    -0.025 C 
ATOM     14  C   UNL     1       1.601   3.538   0.636  0.00  0.00    +0.038 C 
ATOM     15  C   UNL     1       4.046   3.134   0.417  0.00  0.00    +0.046 C 
ATOM     16  C   UNL     1       3.192   5.347   1.155  0.00  0.00    +0.011 C 
ATOM     17  C   UNL     1       2.788   4.104  -3.630  0.00  0.00    +0.007 C 
ENDROOT
BRANCH   7  18
ATOM     18  N   UNL     1       2.985  -2.030  -1.557  0.00  0.00    -0.191 N 
ATOM     19  C   UNL     1       4.033  -2.821  -1.863  0.00  0.00    +0.317 C 
ATOM     20  O   UNL     1       3.844  -3.966  -2.229  0.00  0.00    -0.251 OA
ATOM     21  N   UNL     1       5.289  -2.344  -1.763  0.00  0.00    -0.312 N 
ATOM     22  H   UNL     1       2.081  -2.374  -1.628  0.00  0.00    +0.179 HD
ATOM     23  H   UNL     1       5.440  -1.432  -1.472  0.00  0.00    +0.147 HD
ATOM     24  H   UNL     1       6.043  -2.914  -1.984  0.00  0.00    +0.147 HD
ENDBRANCH   7  18
BRANCH   9  25
ATOM     25  O   UNL     1       4.768   0.965  -0.390  0.00  0.00    -0.384 OA
ATOM     26  H   UNL     1       5.683   1.255  -0.511  0.00  0.00    +0.211 HD
ENDBRANCH   9  25
TORSDOF 2
