REMARK  Name = ZINC40075578
REMARK  15 active torsions:
REMARK  status: ('A' for Active; 'I' for Inactive)
REMARK    1  A    between atoms: C_1  and  C_2
REMARK    2  A    between atoms: C_2  and  C_3
REMARK    3  A    between atoms: C_3  and  C_4
REMARK    4  A    between atoms: C_4  and  O_5
REMARK    5  A    between atoms: O_5  and  C_6
REMARK    6  A    between atoms: C_11  and  C_12
REMARK    7  A    between atoms: C_14  and  C_26
REMARK    8  A    between atoms: N_18  and  C_19
REMARK    9  A    between atoms: C_19  and  C_20
REMARK   10  A    between atoms: C_20  and  O_21
REMARK   11  A    between atoms: O_21  and  C_22
REMARK   12  A    between atoms: C_22  and  C_23
REMARK   13  A    between atoms: C_23  and  O_24
REMARK   14  A    between atoms: C_26  and  C_28
REMARK   15  A    between atoms: C_31  and  C_33
REMARK                            x       y       z     vdW  Elec       q    Type
REMARK                         _______ _______ _______ _____ _____    ______ ____
ROOT
ATOM      1  C   UNL     1       2.765  -3.616  -5.059  0.00  0.00    +0.148 C 
ATOM      2  C   UNL     1       1.767  -3.064  -6.049  0.00  0.00    +0.080 C 
ATOM      3  C   UNL     1       2.176  -3.458  -7.277  0.00  0.00    +0.249 C 
ATOM      4  C   UNL     1       3.412  -4.255  -7.144  0.00  0.00    +0.288 C 
ATOM      5  O   UNL     1       4.024  -4.752  -8.069  0.00  0.00    -0.266 OA
ATOM      6  N   UNL     1       3.762  -4.350  -5.847  0.00  0.00    -0.281 N 
ATOM      7  O   UNL     1       1.551  -3.169  -8.442  0.00  0.00    -0.282 OA
ENDROOT
BRANCH   1  13
ATOM      8  C   UNL     1       2.701  -4.904  -2.908  0.00  0.00    +0.126 A 
ATOM      9  C   UNL     1       2.062  -5.759  -2.021  0.00  0.00    +0.046 A 
ATOM     10  C   UNL     1       0.810  -6.258  -2.324  0.00  0.00    +0.004 A 
ATOM     11  C   UNL     1       0.193  -5.906  -3.510  0.00  0.00    +0.001 A 
ATOM     12  C   UNL     1       0.827  -5.055  -4.396  0.00  0.00    +0.009 A 
ATOM     13  C   UNL     1       2.077  -4.549  -4.095  0.00  0.00    +0.019 A 
BRANCH   8  14
ATOM     14  O   UNL     1       3.932  -4.412  -2.612  0.00  0.00    -0.492 OA
BRANCH  14  15
ATOM     15  C   UNL     1       4.464  -4.726  -1.324  0.00  0.00    +0.229 C 
BRANCH  15  16
ATOM     16  C   UNL     1       5.791  -3.990  -1.126  0.00  0.00    +0.041 C 
BRANCH  16  18
ATOM     17  C   UNL     1       7.803  -3.781   0.339  0.00  0.00    +0.004 C 
ATOM     18  C   UNL     1       6.421  -4.421   0.200  0.00  0.00    -0.000 C 
ENDBRANCH  16  18
ENDBRANCH  15  16
ENDBRANCH  14  15
ENDBRANCH   8  14
ENDBRANCH   1  13
BRANCH   2  19
ATOM     19  C   UNL     1       0.582  -2.255  -5.740  0.00  0.00    +0.230 C 
ATOM     20  O   UNL     1      -0.202  -1.960  -6.625  0.00  0.00    -0.283 OA
BRANCH  19  21
ATOM     21  C   UNL     1       0.341  -1.804  -4.366  0.00  0.00    +0.175 A 
ATOM     22  C   UNL     1      -0.778  -1.137  -3.915  0.00  0.00    +0.053 A 
ATOM     23  C   UNL     1      -0.580  -0.906  -2.546  0.00  0.00    +0.045 A 
ATOM     24  C   UNL     1       0.625  -1.428  -2.223  0.00  0.00    +0.103 A 
ATOM     25  O   UNL     1       1.173  -1.971  -3.317  0.00  0.00    -0.457 OA
ATOM     26  C   UNL     1       1.248  -1.408  -0.850  0.00  0.00    +0.086 C 
ENDBRANCH  19  21
ENDBRANCH   2  19
BRANCH   6  27
ATOM     27  C   UNL     1       4.929  -5.059  -5.316  0.00  0.00    +0.137 C 
BRANCH  27  28
ATOM     28  C   UNL     1       4.584  -6.538  -5.127  0.00  0.00    +0.179 C 
BRANCH  28  29
ATOM     29  O   UNL     1       4.340  -7.137  -6.402  0.00  0.00    -0.376 OA
BRANCH  29  30
ATOM     30  C   UNL     1       4.008  -8.525  -6.337  0.00  0.00    +0.187 C 
BRANCH  30  31
ATOM     31  C   UNL     1       3.768  -9.058  -7.751  0.00  0.00    +0.184 C 
BRANCH  31  32
ATOM     32  O   UNL     1       4.986  -8.995  -8.497  0.00  0.00    -0.393 OA
ATOM     33  H   UNL     1       4.908  -9.318  -9.405  0.00  0.00    +0.209 HD
ENDBRANCH  31  32
ENDBRANCH  30  31
ENDBRANCH  29  30
ENDBRANCH  28  29
ENDBRANCH  27  28
ENDBRANCH   6  27
TORSDOF 13
