REMARK  Name = ZINC20466939
REMARK  10 active torsions:
REMARK  status: ('A' for Active; 'I' for Inactive)
REMARK    1  A    between atoms: C_1  and  C_2
REMARK    2  A    between atoms: C_4  and  N_31
REMARK    3  A    between atoms: C_8  and  C_30
REMARK    4  A    between atoms: C_11  and  O_29
REMARK    5  A    between atoms: C_13  and  C_17
REMARK    6  A    between atoms: C_17  and  C_19
REMARK    7  A    between atoms: C_17  and  C_20
REMARK    8  A    between atoms: N_22  and  C_23
REMARK    9  A    between atoms: C_23  and  C_24
REMARK   10  A    between atoms: C_32  and  C_34
REMARK                            x       y       z     vdW  Elec       q    Type
REMARK                         _______ _______ _______ _____ _____    ______ ____
ROOT
ATOM      1  C   UNL     1      -4.696   0.363   1.945  0.00  0.00    +0.010 C 
ATOM      2  C   UNL     1      -5.126   0.686   0.513  0.00  0.00    +0.012 C 
ATOM      3  C   UNL     1      -4.137   1.676  -0.106  0.00  0.00    +0.076 C 
ATOM      4  C   UNL     1      -4.567   1.999  -1.538  0.00  0.00    +0.023 C 
ATOM      5  C   UNL     1      -5.966   2.618  -1.523  0.00  0.00    +0.009 C 
ATOM      6  C   UNL     1      -6.955   1.629  -0.904  0.00  0.00    -0.027 C 
ATOM      7  C   UNL     1      -6.525   1.306   0.528  0.00  0.00    +0.028 C 
ATOM      8  C   UNL     1      -7.514   0.317   1.148  0.00  0.00    +0.122 C 
ATOM      9  C   UNL     1      -8.913   0.937   1.163  0.00  0.00    +0.029 C 
ATOM     10  C   UNL     1      -9.343   1.260  -0.269  0.00  0.00    +0.007 C 
ATOM     11  C   UNL     1      -8.354   2.249  -0.888  0.00  0.00    +0.007 C 
ATOM     12  C   UNL     1      -6.976   0.343  -1.732  0.00  0.00    +0.011 C 
ENDROOT
BRANCH   3  13
ATOM     13  N   UNL     1      -2.797   1.082  -0.121  0.00  0.00    -0.307 N 
ATOM     14  C   UNL     1      -1.708   1.876  -0.131  0.00  0.00    +0.264 C 
ATOM     15  O   UNL     1      -1.837   3.084  -0.129  0.00  0.00    -0.268 OA
ATOM     16  H   UNL     1      -2.680  -0.012  -0.123  0.00  0.00    +0.149 HD
BRANCH  14  17
ATOM     17  C   UNL     1      -0.354   1.276  -0.146  0.00  0.00    +0.143 A 
ATOM     18  C   UNL     1       0.774   2.096  -0.163  0.00  0.00    +0.143 A 
ATOM     19  N   UNL     1       1.979   1.556  -0.181  0.00  0.00    -0.259 NA
ATOM     20  C   UNL     1       2.116   0.242  -0.185  0.00  0.00    +0.130 A 
ATOM     21  C   UNL     1       0.996  -0.577  -0.168  0.00  0.00    +0.131 A 
ATOM     22  N   UNL     1      -0.210  -0.046  -0.149  0.00  0.00    -0.247 NA
ENDBRANCH  14  17
ENDBRANCH   3  13
BRANCH   9  23
ATOM     23  C   UNL     1      -8.892   2.223   1.991  0.00  0.00    +0.077 C 
ATOM     24  C   UNL     1      -8.379   1.914   3.400  0.00  0.00    +0.017 C 
BRANCH  23  25
ATOM     25  C   UNL     1     -10.286   2.788   2.077  0.00  0.00    +0.217 C 
ATOM     26  O   UNL     1     -11.206   2.218   1.530  0.00  0.00    -0.276 OA
ATOM     27  N   UNL     1     -10.511   3.927   2.763  0.00  0.00    -0.308 N 
ATOM     28  H   UNL     1      -9.676   4.444   3.259  0.00  0.00    +0.149 HD
BRANCH  27  29
ATOM     29  C   UNL     1     -11.866   4.476   2.846  0.00  0.00    +0.178 C 
BRANCH  29  30
ATOM     30  C   UNL     1     -11.845   5.743   3.662  0.00  0.00    +0.122 A 
ATOM     31  C   UNL     1     -11.655   6.985   3.182  0.00  0.00    +0.046 A 
ATOM     32  C   UNL     1     -11.712   7.865   4.287  0.00  0.00    +0.041 A 
ATOM     33  C   UNL     1     -11.934   7.107   5.377  0.00  0.00    +0.195 A 
ATOM     34  O   UNL     1     -12.020   5.824   4.992  0.00  0.00    -0.466 OA
ENDBRANCH  29  30
ENDBRANCH  27  29
ENDBRANCH  23  25
ENDBRANCH   9  23
BRANCH   8  35
ATOM     35  O   UNL     1      -7.112   0.015   2.485  0.00  0.00    -0.391 OA
ATOM     36  H   UNL     1      -7.706  -0.683   3.094  0.00  0.00    +0.210 HD
ENDBRANCH   8  35
TORSDOF 7
