REMARK  Name = ZINC09232504
REMARK  6 active torsions:
REMARK  status: ('A' for Active; 'I' for Inactive)
REMARK    1  A    between atoms: C_1  and  O_2
REMARK    2  A    between atoms: O_2  and  C_3
REMARK    3  A    between atoms: C_10  and  C_28
REMARK    4  A    between atoms: C_12  and  C_19
REMARK    5  A    between atoms: C_23  and  N_25
REMARK    6  A    between atoms: C_28  and  C_30
REMARK                            x       y       z     vdW  Elec       q    Type
REMARK                         _______ _______ _______ _____ _____    ______ ____
ROOT
ATOM      1  C   UNL     1       0.782   6.004  -0.361  0.00  0.00    +0.120 A 
ATOM      2  C   UNL     1      -0.602   6.009  -0.268  0.00  0.00    +0.047 A 
ATOM      3  C   UNL     1      -1.288   4.835  -0.037  0.00  0.00    +0.027 A 
ATOM      4  C   UNL     1      -0.596   3.635   0.105  0.00  0.00    +0.036 A 
ATOM      5  C   UNL     1       0.792   3.639   0.010  0.00  0.00    -0.024 A 
ATOM      6  C   UNL     1       1.477   4.811  -0.220  0.00  0.00    +0.050 A 
ATOM      7  C   UNL     1       1.223   2.212   0.205  0.00  0.00    +0.052 C 
ATOM      8  C   UNL     1       2.161   2.067   1.408  0.00  0.00    +0.069 C 
ATOM      9  C   UNL     1       3.577   2.176   0.800  0.00  0.00    +0.016 C 
ATOM     10  C   UNL     1       3.386   1.978  -0.708  0.00  0.00    -0.047 C 
ATOM     11  C   UNL     1       1.676   0.248  -1.102  0.00  0.00    -0.005 C 
ATOM     12  S   UNL     1       3.197  -0.310  -1.986  0.00  0.00    -0.181 S 
ATOM     13  C   UNL     1       4.358   0.919  -1.251  0.00  0.00    +0.052 C 
ATOM     14  C   UNL     1      -0.055   1.443   0.412  0.00  0.00    +0.212 C 
ATOM     15  O   UNL     1      -0.159   0.251   0.606  0.00  0.00    -0.277 OA
ATOM     16  N   UNL     1      -1.061   2.336   0.335  0.00  0.00    -0.286 N 
ATOM     17  H   UNL     1      -1.998   2.104   0.430  0.00  0.00    +0.155 HD
ATOM     18  N   UNL     1       1.954   1.720  -0.945  0.00  0.00    +0.401 N 
ATOM     19  H   UNL     1       1.653   2.215  -1.793  0.00  0.00    -0.078 HD
ENDROOT
BRANCH   9  20
ATOM     20  C   UNL     1       4.470   1.100   1.361  0.00  0.00    -0.043 A 
ATOM     21  C   UNL     1       4.012  -0.201   1.453  0.00  0.00    +0.004 A 
ATOM     22  C   UNL     1       4.833  -1.189   1.963  0.00  0.00    +0.002 A 
ATOM     23  C   UNL     1       6.110  -0.874   2.390  0.00  0.00    +0.033 A 
ATOM     24  C   UNL     1       6.566   0.428   2.303  0.00  0.00    +0.126 A 
ATOM     25  C   UNL     1       5.746   1.415   1.789  0.00  0.00    +0.036 A 
BRANCH  24  26
ATOM     26  N   UNL     1       7.933   0.765   2.760  0.00  0.00    +0.056 N 
ATOM     27  O   UNL     1       8.336   1.912   2.683  0.00  0.00    -0.126 OA
ATOM     28  O   UNL     1       8.656  -0.105   3.213  0.00  0.00    -0.126 OA
ENDBRANCH  24  26
ENDBRANCH   9  20
BRANCH   1  30
ATOM     29  C   UNL     1       0.674   8.351  -0.724  0.00  0.00    +0.277 C 
ATOM     30  O   UNL     1       1.456   7.163  -0.589  0.00  0.00    -0.495 OA
ENDBRANCH   1  30
BRANCH   8  31
ATOM     31  C   UNL     1       1.925   3.178   2.398  0.00  0.00    +0.168 C 
ATOM     32  O   UNL     1       2.560   4.208   2.316  0.00  0.00    -0.292 OA
BRANCH  31  33
ATOM     33  C   UNL     1       0.924   3.014   3.464  0.00  0.00    +0.036 A 
ATOM     34  C   UNL     1       0.694   4.041   4.392  0.00  0.00    +0.014 A 
ATOM     35  C   UNL     1      -0.258   3.835   5.373  0.00  0.00    +0.020 A 
ATOM     36  C   UNL     1      -0.947   2.635   5.409  0.00  0.00    +0.111 A 
ATOM     37  N   UNL     1      -0.710   1.686   4.524  0.00  0.00    -0.263 NA
ATOM     38  C   UNL     1       0.181   1.834   3.566  0.00  0.00    +0.122 A 
ENDBRANCH  31  33
ENDBRANCH   8  31
TORSDOF 5
