REMARK  Name = ZINC40067026
REMARK  14 active torsions:
REMARK  status: ('A' for Active; 'I' for Inactive)
REMARK    1  A    between atoms: C_1  and  C_2
REMARK    2  A    between atoms: C_2  and  C_3
REMARK    3  A    between atoms: C_3  and  C_4
REMARK    4  A    between atoms: C_4  and  N_5
REMARK    5  A    between atoms: C_6  and  N_27
REMARK    6  A    between atoms: C_7  and  C_15
REMARK    7  A    between atoms: C_8  and  C_14
REMARK    8  A    between atoms: C_9  and  C_12
REMARK    9  A    between atoms: N_19  and  C_23
REMARK   10  A    between atoms: C_23  and  C_24
REMARK   11  A    between atoms: C_24  and  O_25
REMARK   12  A    between atoms: O_25  and  C_26
REMARK   13  A    between atoms: N_27  and  C_28
REMARK   14  A    between atoms: C_28  and  C_29
REMARK                            x       y       z     vdW  Elec       q    Type
REMARK                         _______ _______ _______ _____ _____    ______ ____
ROOT
ATOM      1  N   UNL     1       1.751  -2.689  -2.662  0.00  0.00    -0.295 N 
ATOM      2  C   UNL     1       0.849  -2.782  -3.673  0.00  0.00    +0.109 A 
ATOM      3  C   UNL     1       1.203  -3.388  -4.891  0.00  0.00    +0.019 A 
ATOM      4  C   UNL     1       2.501  -3.898  -5.057  0.00  0.00    -0.017 A 
ATOM      5  C   UNL     1       3.407  -3.789  -4.005  0.00  0.00    +0.120 A 
ATOM      6  C   UNL     1       3.001  -3.164  -2.799  0.00  0.00    +0.270 A 
ATOM      7  O   UNL     1       3.791  -3.062  -1.876  0.00  0.00    -0.266 OA
ATOM      8  C   UNL     1       2.907  -4.553  -6.352  0.00  0.00    +0.046 C 
ENDROOT
BRANCH   3   9
ATOM      9  C   UNL     1       0.226  -3.486  -5.977  0.00  0.00    +0.032 C 
ATOM     10  C   UNL     1       0.433  -2.813  -7.141  0.00  0.00    +0.077 C 
ATOM     11  C   UNL     1      -0.323  -2.840  -8.353  0.00  0.00    +0.258 C 
ATOM     12  O   UNL     1      -1.315  -3.538  -8.458  0.00  0.00    -0.269 OA
ATOM     13  N   UNL     1       0.087  -2.085  -9.357  0.00  0.00    -0.253 N 
ATOM     14  C   UNL     1       1.189  -1.310  -9.240  0.00  0.00    +0.121 C 
ATOM     15  S   UNL     1       1.893  -0.265 -10.399  0.00  0.00    -0.027 S 
ATOM     16  S   UNL     1       1.719  -1.647  -7.568  0.00  0.00    -0.061 S 
BRANCH  13  17
ATOM     17  C   UNL     1      -0.663  -2.087 -10.615  0.00  0.00    +0.143 C 
BRANCH  17  18
ATOM     18  C   UNL     1      -1.740  -1.001 -10.569  0.00  0.00    +0.179 C 
BRANCH  18  19
ATOM     19  O   UNL     1      -1.118   0.284 -10.502  0.00  0.00    -0.381 OA
ATOM     20  C   UNL     1      -2.041   1.374 -10.454  0.00  0.00    +0.194 C 
ENDBRANCH  18  19
ENDBRANCH  17  18
ENDBRANCH  13  17
ENDBRANCH   3   9
BRANCH   5  21
ATOM     21  C   UNL     1       4.738  -4.299  -4.143  0.00  0.00    +0.105 C 
ATOM     22  N   UNL     1       5.793  -4.704  -4.252  0.00  0.00    -0.191 NA
ENDBRANCH   5  21
BRANCH   2  23
ATOM     23  N   UNL     1      -0.410  -2.285  -3.505  0.00  0.00    -0.326 N 
ATOM     24  H   UNL     1      -0.587  -1.346  -3.672  0.00  0.00    +0.148 HD
BRANCH  23  25
ATOM     25  C   UNL     1      -1.495  -3.169  -3.073  0.00  0.00    +0.138 C 
BRANCH  25  26
ATOM     26  C   UNL     1      -2.796  -2.409  -3.082  0.00  0.00    -0.030 A 
ATOM     27  C   UNL     1      -3.205  -1.726  -1.951  0.00  0.00    +0.008 A 
ATOM     28  C   UNL     1      -4.398  -1.028  -1.958  0.00  0.00    +0.038 A 
ATOM     29  C   UNL     1      -5.184  -1.012  -3.098  0.00  0.00    +0.123 A 
ATOM     30  C   UNL     1      -4.773  -1.696  -4.230  0.00  0.00    +0.038 A 
ATOM     31  C   UNL     1      -3.577  -2.389  -4.222  0.00  0.00    +0.008 A 
ATOM     32  F   UNL     1      -6.350  -0.331  -3.106  0.00  0.00    -0.205 F 
ENDBRANCH  25  26
ENDBRANCH  23  25
ENDBRANCH   2  23
BRANCH   1  33
ATOM     33  C   UNL     1       1.356  -2.053  -1.403  0.00  0.00    +0.126 C 
BRANCH  33  34
ATOM     34  C   UNL     1       1.610  -0.547  -1.490  0.00  0.00    +0.021 C 
BRANCH  34  36
ATOM     35  C   UNL     1       1.346   1.639  -0.308  0.00  0.00    +0.004 C 
ATOM     36  C   UNL     1       1.092   0.132  -0.220  0.00  0.00    -0.002 C 
ENDBRANCH  34  36
ENDBRANCH  33  34
ENDBRANCH   1  33
TORSDOF 11
