REMARK  Name = ZINC34830120
REMARK  10 active torsions:
REMARK  status: ('A' for Active; 'I' for Inactive)
REMARK    1  A    between atoms: C_1  and  C_2
REMARK    2  A    between atoms: C_2  and  C_3
REMARK    3  A    between atoms: C_3  and  C_4
REMARK    4  A    between atoms: C_4  and  C_5
REMARK    5  A    between atoms: C_8  and  C_11
REMARK    6  A    between atoms: C_18  and  C_20
REMARK    7  A    between atoms: C_21  and  C_23
REMARK    8  A    between atoms: C_23  and  C_24
REMARK    9  A    between atoms: C_24  and  N_25
REMARK   10  A    between atoms: C_33  and  C_35
REMARK                            x       y       z     vdW  Elec       q    Type
REMARK                         _______ _______ _______ _____ _____    ______ ____
ROOT
ATOM      1  C   UNL     1      -6.943  -3.658   0.022  0.00  0.00    +0.247 C 
ATOM      2  O   UNL     1      -7.474  -3.897   1.089  0.00  0.00    -0.270 OA
ATOM      3  N   UNL     1      -7.572  -3.969  -1.129  0.00  0.00    -0.292 N 
ATOM      4  C   UNL     1      -6.939  -3.691  -2.426  0.00  0.00    +0.127 C 
ATOM      5  C   UNL     1      -7.894  -2.832  -3.264  0.00  0.00    +0.127 C 
ATOM      6  N   UNL     1      -9.225  -3.454  -3.244  0.00  0.00    -0.298 N 
ATOM      7  C   UNL     1      -9.858  -3.731  -1.947  0.00  0.00    +0.130 C 
ATOM      8  C   UNL     1      -8.901  -4.596  -1.109  0.00  0.00    +0.091 C 
ATOM      9  C   UNL     1      -9.409  -4.678   0.332  0.00  0.00    +0.029 C 
ATOM     10  C   UNL     1      -9.854  -3.765  -4.395  0.00  0.00    +0.214 C 
ATOM     11  O   UNL     1     -10.953  -4.278  -4.366  0.00  0.00    -0.276 OA
ENDROOT
BRANCH   1  15
ATOM     12  C   UNL     1      -3.103  -1.846  -0.079  0.00  0.00    -0.047 A 
ATOM     13  C   UNL     1      -3.982  -1.541   0.946  0.00  0.00    +0.004 A 
ATOM     14  C   UNL     1      -5.230  -2.126   0.984  0.00  0.00    +0.013 A 
ATOM     15  C   UNL     1      -5.606  -3.027  -0.013  0.00  0.00    +0.037 A 
ATOM     16  C   UNL     1      -4.715  -3.330  -1.044  0.00  0.00    +0.013 A 
ATOM     17  C   UNL     1      -3.471  -2.734  -1.074  0.00  0.00    +0.004 A 
BRANCH  12  18
ATOM     18  C   UNL     1      -1.740  -1.203  -0.114  0.00  0.00    +0.035 C 
BRANCH  18  19
ATOM     19  C   UNL     1      -1.815   0.107  -0.902  0.00  0.00    +0.004 C 
BRANCH  19  21
ATOM     20  C   UNL     1      -0.506   2.069  -1.726  0.00  0.00    +0.004 C 
ATOM     21  C   UNL     1      -0.431   0.759  -0.939  0.00  0.00    -0.003 C 
ENDBRANCH  19  21
ENDBRANCH  18  19
ENDBRANCH  12  18
ENDBRANCH   1  15
BRANCH  10  22
ATOM     22  C   UNL     1      -9.193  -3.474  -5.718  0.00  0.00    +0.077 C 
BRANCH  22  23
ATOM     23  C   UNL     1     -10.112  -3.920  -6.856  0.00  0.00    -0.068 C 
BRANCH  23  24
ATOM     24  N   UNL     1      -9.467  -3.637  -8.146  0.00  0.00    +0.388 N 
ATOM     25  C   UNL     1      -8.241  -4.438  -8.259  0.00  0.00    -0.072 C 
ATOM     26  C   UNL     1      -7.405  -3.904  -9.435  0.00  0.00    +0.024 C 
ATOM     27  C   UNL     1      -8.325  -3.736 -10.601  0.00  0.00    -0.010 A 
ATOM     28  C   UNL     1      -9.687  -3.755 -10.566  0.00  0.00    -0.047 A 
ATOM     29  C   UNL     1     -10.342  -3.582 -11.783  0.00  0.00    +0.010 A 
ATOM     30  C   UNL     1      -9.626  -3.405 -12.918  0.00  0.00    +0.045 A 
ATOM     31  S   UNL     1      -7.947  -3.474 -12.310  0.00  0.00    -0.101 S 
ATOM     32  C   UNL     1     -10.401  -3.955  -9.233  0.00  0.00    -0.006 C 
ATOM     33  H   UNL     1      -9.229  -2.657  -8.189  0.00  0.00    -0.080 HD
BRANCH  32  34
ATOM     34  C   UNL     1     -11.596  -3.040  -9.157  0.00  0.00    -0.057 A 
ATOM     35  C   UNL     1     -11.425  -1.704  -8.846  0.00  0.00    +0.002 A 
ATOM     36  C   UNL     1     -12.521  -0.865  -8.776  0.00  0.00    +0.000 A 
ATOM     37  C   UNL     1     -13.788  -1.361  -9.018  0.00  0.00    +0.000 A 
ATOM     38  C   UNL     1     -13.959  -2.697  -9.330  0.00  0.00    +0.000 A 
ATOM     39  C   UNL     1     -12.862  -3.535  -9.403  0.00  0.00    +0.002 A 
ENDBRANCH  32  34
ENDBRANCH  23  24
ENDBRANCH  22  23
ENDBRANCH  10  22
TORSDOF 8
