REMARK  Name = ZINC36704369
REMARK  12 active torsions:
REMARK  status: ('A' for Active; 'I' for Inactive)
REMARK    1  A    between atoms: C_1  and  C_2
REMARK    2  A    between atoms: C_2  and  C_3
REMARK    3  A    between atoms: N_12  and  C_13
REMARK    4  A    between atoms: C_13  and  C_14
REMARK    5  A    between atoms: C_14  and  N_15
REMARK    6  A    between atoms: N_15  and  C_16
REMARK    7  A    between atoms: N_15  and  C_18
REMARK    8  A    between atoms: C_16  and  C_17
REMARK    9  A    between atoms: C_18  and  C_19
REMARK   10  A    between atoms: C_20  and  C_22
REMARK   11  A    between atoms: N_27  and  S_28
REMARK   12  A    between atoms: S_28  and  C_31
REMARK                            x       y       z     vdW  Elec       q    Type
REMARK                         _______ _______ _______ _____ _____    ______ ____
ROOT
ATOM      1  C   UNL     1       1.276  -1.873  -2.326  0.00  0.00    -0.021 A 
ATOM      2  C   UNL     1       0.741  -2.317  -3.507  0.00  0.00    +0.006 A 
ATOM      3  C   UNL     1       1.524  -2.489  -4.639  0.00  0.00    +0.001 A 
ATOM      4  C   UNL     1       2.877  -2.208  -4.576  0.00  0.00    +0.017 A 
ATOM      5  C   UNL     1       3.422  -1.764  -3.397  0.00  0.00    +0.041 A 
ATOM      6  C   UNL     1       2.654  -1.571  -2.226  0.00  0.00    +0.083 A 
ATOM      7  N   UNL     1       3.333  -1.124  -1.148  0.00  0.00    -0.224 NA
ATOM      8  C   UNL     1       4.622  -0.877  -1.178  0.00  0.00    +0.168 A 
ATOM      9  S   UNL     1       5.050  -1.294  -2.863  0.00  0.00    -0.052 S 
ATOM     10  N   UNL     1       5.444  -0.420  -0.161  0.00  0.00    -0.251 N 
ATOM     11  C   UNL     1       4.929  -0.167   1.059  0.00  0.00    +0.240 C 
ATOM     12  O   UNL     1       3.772  -0.439   1.296  0.00  0.00    -0.273 OA
ENDROOT
BRANCH  11  13
ATOM     13  C   UNL     1       5.792   0.453   2.127  0.00  0.00    +0.166 C 
ATOM     14  C   UNL     1       6.872  -0.553   2.579  0.00  0.00    +0.031 C 
ATOM     15  C   UNL     1       6.955  -0.310   4.109  0.00  0.00    +0.019 C 
ATOM     16  C   UNL     1       5.478   0.000   4.455  0.00  0.00    +0.110 C 
ATOM     17  N   UNL     1       4.974   0.778   3.304  0.00  0.00    -0.164 NA
BRANCH  17  18
ATOM     18  S   UNL     1       3.703   1.838   3.333  0.00  0.00    +0.068 S 
ATOM     19  O   UNL     1       3.569   2.276   4.678  0.00  0.00    -0.152 OA
ATOM     20  O   UNL     1       3.903   2.741   2.255  0.00  0.00    -0.152 OA
BRANCH  18  21
ATOM     21  C   UNL     1       2.248   0.918   2.956  0.00  0.00    +0.143 A 
ATOM     22  C   UNL     1       1.399   0.280   3.798  0.00  0.00    +0.036 A 
ATOM     23  C   UNL     1       0.308  -0.387   3.273  0.00  0.00    +0.010 A 
ATOM     24  C   UNL     1       0.119  -0.383   1.931  0.00  0.00    +0.047 A 
ATOM     25  S   UNL     1       1.506   0.590   1.366  0.00  0.00    -0.077 S 
ENDBRANCH  18  21
ENDBRANCH  17  18
ENDBRANCH  11  13
BRANCH   1  27
ATOM     26  C   UNL     1      -0.086  -0.248  -1.041  0.00  0.00    +0.009 C 
ATOM     27  C   UNL     1       0.386  -1.701  -1.123  0.00  0.00    +0.034 C 
ENDBRANCH   1  27
BRANCH  10  28
ATOM     28  C   UNL     1       6.872  -0.210  -0.411  0.00  0.00    +0.097 C 
BRANCH  28  29
ATOM     29  C   UNL     1       7.091   1.200  -0.966  0.00  0.00    -0.059 C 
BRANCH  29  30
ATOM     30  N   UNL     1       8.523   1.410  -1.216  0.00  0.00    +0.380 N 
ATOM     31  H   UNL     1       9.043   1.225  -0.372  0.00  0.00    -0.082 HD
BRANCH  30  32
ATOM     32  C   UNL     1       8.973   0.501  -2.279  0.00  0.00    -0.082 C 
ATOM     33  C   UNL     1      10.492   0.599  -2.425  0.00  0.00    -0.017 C 
ENDBRANCH  30  32
BRANCH  30  34
ATOM     34  C   UNL     1       8.747   2.800  -1.635  0.00  0.00    -0.082 C 
ATOM     35  C   UNL     1       8.408   3.742  -0.477  0.00  0.00    -0.017 C 
ENDBRANCH  30  34
ENDBRANCH  29  30
ENDBRANCH  28  29
ENDBRANCH  10  28
TORSDOF 9
