REMARK  Name = ZINC35973823
REMARK  11 active torsions:
REMARK  status: ('A' for Active; 'I' for Inactive)
REMARK    1  A    between atoms: C_1  and  C_2
REMARK    2  A    between atoms: C_2  and  C_3
REMARK    3  A    between atoms: C_3  and  C_5
REMARK    4  A    between atoms: C_3  and  O_6
REMARK    5  A    between atoms: O_6  and  C_7
REMARK    6  A    between atoms: C_7  and  C_9
REMARK    7  A    between atoms: C_10  and  C_40
REMARK    8  A    between atoms: C_14  and  C_16
REMARK    9  A    between atoms: C_29  and  C_32
REMARK   10  A    between atoms: C_35  and  O_38
REMARK   11  A    between atoms: O_38  and  C_39
REMARK                            x       y       z     vdW  Elec       q    Type
REMARK                         _______ _______ _______ _____ _____    ______ ____
ROOT
ATOM      1  C   UNL     1      -4.252   0.583  -2.343  0.00  0.00    +0.065 C 
ATOM      2  C   UNL     1      -5.588   0.499  -2.461  0.00  0.00    +0.016 C 
ATOM      3  N   UNL     1      -6.193   0.728  -3.665  0.00  0.00    -0.321 N 
ATOM      4  C   UNL     1      -5.541   1.416  -4.653  0.00  0.00    +0.016 C 
ATOM      5  C   UNL     1      -4.197   1.537  -4.631  0.00  0.00    +0.024 C 
ATOM      6  C   UNL     1      -3.386   0.923  -3.521  0.00  0.00    +0.093 C 
ATOM      7  C   UNL     1      -3.515   2.238  -5.641  0.00  0.00    +0.162 C 
ATOM      8  O   UNL     1      -2.306   2.342  -5.583  0.00  0.00    -0.292 OA
ATOM      9  C   UNL     1      -4.256   2.861  -6.793  0.00  0.00    +0.088 C 
ATOM     10  C   UNL     1      -5.539   2.065  -7.051  0.00  0.00    +0.032 C 
ATOM     11  C   UNL     1      -6.359   2.036  -5.759  0.00  0.00    +0.059 C 
ATOM     12  C   UNL     1      -6.426   0.151  -1.257  0.00  0.00    +0.061 C 
ATOM     13  H   UNL     1      -7.092   0.399  -3.822  0.00  0.00    +0.152 HD
ENDROOT
BRANCH   6  14
ATOM     14  C   UNL     1      -2.728  -0.333  -4.031  0.00  0.00    -0.027 A 
ATOM     15  C   UNL     1      -3.489  -1.380  -4.453  0.00  0.00    +0.005 A 
ATOM     16  C   UNL     1      -2.898  -2.550  -4.928  0.00  0.00    +0.001 A 
ATOM     17  C   UNL     1      -1.544  -2.679  -4.983  0.00  0.00    +0.008 A 
ATOM     18  C   UNL     1      -0.727  -1.619  -4.556  0.00  0.00    -0.018 A 
ATOM     19  C   UNL     1      -1.327  -0.427  -4.079  0.00  0.00    -0.014 A 
ATOM     20  C   UNL     1      -0.510   0.636  -3.657  0.00  0.00    +0.009 A 
ATOM     21  C   UNL     1       0.844   0.509  -3.718  0.00  0.00    +0.001 A 
ATOM     22  C   UNL     1       1.435  -0.661  -4.193  0.00  0.00    +0.001 A 
ATOM     23  C   UNL     1       0.675  -1.715  -4.598  0.00  0.00    +0.008 A 
ENDBRANCH   6  14
BRANCH  10  24
ATOM     24  C   UNL     1      -6.335   2.726  -8.146  0.00  0.00    -0.043 A 
ATOM     25  C   UNL     1      -6.772   4.029  -7.992  0.00  0.00    +0.007 A 
ATOM     26  C   UNL     1      -7.502   4.637  -8.994  0.00  0.00    +0.046 A 
ATOM     27  C   UNL     1      -7.795   3.940 -10.157  0.00  0.00    +0.120 A 
ATOM     28  C   UNL     1      -7.355   2.634 -10.310  0.00  0.00    +0.046 A 
ATOM     29  C   UNL     1      -6.621   2.031  -9.307  0.00  0.00    +0.007 A 
BRANCH  27  30
ATOM     30  O   UNL     1      -8.514   4.537 -11.145  0.00  0.00    -0.495 OA
ATOM     31  C   UNL     1      -8.778   3.759 -12.314  0.00  0.00    +0.277 C 
ENDBRANCH  27  30
ENDBRANCH  10  24
BRANCH   1  32
ATOM     32  C   UNL     1      -3.651   0.351  -1.084  0.00  0.00    +0.338 C 
ATOM     33  O   UNL     1      -4.346   0.199  -0.097  0.00  0.00    -0.245 OA
BRANCH  32  34
ATOM     34  O   UNL     1      -2.307   0.297  -0.978  0.00  0.00    -0.458 OA
BRANCH  34  35
ATOM     35  C   UNL     1      -1.768   0.059   0.324  0.00  0.00    +0.173 C 
ATOM     36  C   UNL     1      -1.612  -1.447   0.544  0.00  0.00    +0.052 C 
BRANCH  35  38
ATOM     37  C   UNL     1      -0.571   2.253   0.345  0.00  0.00    +0.007 C 
ATOM     38  C   UNL     1      -0.400   0.736   0.441  0.00  0.00    +0.041 C 
ENDBRANCH  35  38
ENDBRANCH  34  35
ENDBRANCH  32  34
ENDBRANCH   1  32
TORSDOF 7
