REMARK  Name = ZINC61999382
REMARK  5 active torsions:
REMARK  status: ('A' for Active; 'I' for Inactive)
REMARK    1  A    between atoms: C_2  and  C_3
REMARK    2  A    between atoms: C_3  and  O_4
REMARK    3  A    between atoms: O_4  and  C_5
REMARK    4  A    between atoms: C_10  and  C_11
REMARK    5  A    between atoms: C_11  and  C_13
REMARK                            x       y       z     vdW  Elec       q    Type
REMARK                         _______ _______ _______ _____ _____    ______ ____
ROOT
ATOM      1  C   UNL     1       1.295  -5.086   3.767  0.00  0.00    +0.099 C 
ATOM      2  C   UNL     1       0.710  -6.369   3.128  0.00  0.00    +0.070 C 
ATOM      3  C   UNL     1       0.955  -6.333   1.610  0.00  0.00    +0.021 C 
ATOM      4  C   UNL     1      -0.280  -5.635   1.008  0.00  0.00    +0.017 C 
ATOM      5  C   UNL     1      -1.164  -5.267   2.216  0.00  0.00    +0.086 C 
ATOM      6  N   UNL     1      -0.766  -6.213   3.307  0.00  0.00    -0.281 NA
ATOM      7  C   UNL     1      -0.942  -5.570   4.622  0.00  0.00    +0.145 C 
ATOM      8  C   UNL     1       0.351  -4.826   4.954  0.00  0.00    +0.116 C 
ATOM      9  C   UNL     1       0.122  -3.354   5.153  0.00  0.00    -0.008 A 
ATOM     10  C   UNL     1      -0.403  -2.361   4.357  0.00  0.00    +0.006 A 
ATOM     11  C   UNL     1      -0.487  -1.064   4.833  0.00  0.00    +0.000 A 
ATOM     12  C   UNL     1      -0.041  -0.768   6.108  0.00  0.00    +0.002 A 
ATOM     13  C   UNL     1       0.486  -1.760   6.909  0.00  0.00    +0.023 A 
ATOM     14  C   UNL     1       0.573  -3.069   6.438  0.00  0.00    +0.038 A 
ATOM     15  N   UNL     1       1.057  -4.228   7.048  0.00  0.00    -0.284 N 
ATOM     16  C   UNL     1       0.962  -5.303   6.244  0.00  0.00    +0.231 C 
ATOM     17  O   UNL     1       1.301  -6.438   6.507  0.00  0.00    -0.274 OA
ATOM     18  C   UNL     1      -1.276  -6.590   5.678  0.00  0.00    +0.004 A 
ATOM     19  C   UNL     1      -0.614  -7.694   6.166  0.00  0.00    +0.008 A 
ATOM     20  C   UNL     1      -1.188  -8.460   7.165  0.00  0.00    +0.000 A 
ATOM     21  C   UNL     1      -2.428  -8.113   7.671  0.00  0.00    +0.002 A 
ATOM     22  C   UNL     1      -3.094  -7.007   7.184  0.00  0.00    +0.023 A 
ATOM     23  C   UNL     1      -2.522  -6.231   6.178  0.00  0.00    +0.039 A 
ATOM     24  N   UNL     1      -2.990  -5.086   5.532  0.00  0.00    -0.283 N 
ATOM     25  C   UNL     1      -2.124  -4.635   4.606  0.00  0.00    +0.244 C 
ATOM     26  O   UNL     1      -2.267  -3.662   3.896  0.00  0.00    -0.273 OA
ATOM     27  H   UNL     1       1.421  -4.255   7.947  0.00  0.00    +0.155 HD
ATOM     28  H   UNL     1      -3.842  -4.664   5.728  0.00  0.00    +0.155 HD
ENDROOT
BRANCH   1  29
ATOM     29  C   UNL     1       1.254  -3.938   2.792  0.00  0.00    +0.173 C 
ATOM     30  O   UNL     1       0.479  -3.962   1.859  0.00  0.00    -0.292 OA
BRANCH  29  36
ATOM     31  C   UNL     1       2.117  -1.718   2.065  0.00  0.00    +0.131 A 
ATOM     32  C   UNL     1       2.965  -0.636   2.249  0.00  0.00    +0.046 A 
ATOM     33  C   UNL     1       3.843  -0.618   3.314  0.00  0.00    +0.004 A 
ATOM     34  C   UNL     1       3.885  -1.677   4.208  0.00  0.00    +0.001 A 
ATOM     35  C   UNL     1       3.051  -2.760   4.043  0.00  0.00    +0.015 A 
ATOM     36  C   UNL     1       2.151  -2.790   2.971  0.00  0.00    +0.059 A 
BRANCH  31  37
ATOM     37  O   UNL     1       1.255  -1.737   1.018  0.00  0.00    -0.487 OA
BRANCH  37  38
ATOM     38  C   UNL     1       1.277  -0.611   0.139  0.00  0.00    +0.256 C 
BRANCH  38  40
ATOM     39  C   UNL     1      -0.533   0.177  -1.298  0.00  0.00    +0.007 C 
ATOM     40  C   UNL     1       0.259  -0.808  -0.955  0.00  0.00    +0.006 C 
ENDBRANCH  38  40
ENDBRANCH  37  38
ENDBRANCH  31  37
ENDBRANCH  29  36
ENDBRANCH   1  29
TORSDOF 5
