REMARK  Name = ZINC41017707
REMARK  11 active torsions:
REMARK  status: ('A' for Active; 'I' for Inactive)
REMARK    1  A    between atoms: C_1  and  C_2
REMARK    2  A    between atoms: C_4  and  O_10
REMARK    3  A    between atoms: C_6  and  C_9
REMARK    4  A    between atoms: O_10  and  C_11
REMARK    5  A    between atoms: C_11  and  C_13
REMARK    6  A    between atoms: C_11  and  C_14
REMARK    7  A    between atoms: N_16  and  C_17
REMARK    8  A    between atoms: C_18  and  C_32
REMARK    9  A    between atoms: C_19  and  C_22
REMARK   10  A    between atoms: C_32  and  O_34
REMARK   11  A    between atoms: O_34  and  C_35
REMARK                            x       y       z     vdW  Elec       q    Type
REMARK                         _______ _______ _______ _____ _____    ______ ____
ROOT
ATOM      1  C   UNL     1       1.959  -6.417  -4.728  0.00  0.00    +0.086 A 
ATOM      2  C   UNL     1       2.308  -7.722  -5.039  0.00  0.00    +0.095 A 
ATOM      3  C   UNL     1       3.096  -7.914  -6.243  0.00  0.00    +0.005 A 
ATOM      4  C   UNL     1       3.400  -6.781  -6.927  0.00  0.00    +0.056 A 
ATOM      5  S   UNL     1       2.629  -5.500  -5.962  0.00  0.00    -0.080 S 
ENDROOT
BRANCH   3   6
ATOM      6  C   UNL     1       3.539  -9.254  -6.695  0.00  0.00    -0.016 A 
ATOM      7  C   UNL     1       4.168 -10.124  -5.803  0.00  0.00    +0.009 A 
ATOM      8  C   UNL     1       4.576 -11.365  -6.237  0.00  0.00    +0.004 A 
ATOM      9  C   UNL     1       4.367 -11.762  -7.553  0.00  0.00    -0.044 A 
ATOM     10  C   UNL     1       3.742 -10.909  -8.437  0.00  0.00    -0.044 A 
ATOM     11  C   UNL     1       3.326  -9.657  -8.009  0.00  0.00    +0.012 A 
ATOM     12  C   UNL     1       3.471 -11.284  -9.870  0.00  0.00    +0.035 C 
ATOM     13  C   UNL     1       4.338 -12.468 -10.290  0.00  0.00    +0.005 C 
ATOM     14  C   UNL     1       4.174 -13.581  -9.249  0.00  0.00    +0.005 C 
ATOM     15  C   UNL     1       4.849 -13.133  -7.954  0.00  0.00    +0.035 C 
ENDBRANCH   3   6
BRANCH   1  18
ATOM     16  C   UNL     1       0.965  -4.656  -3.498  0.00  0.00    +0.258 C 
ATOM     17  O   UNL     1       1.385  -3.862  -4.313  0.00  0.00    -0.271 OA
ATOM     18  N   UNL     1       1.218  -5.971  -3.645  0.00  0.00    -0.276 N 
ATOM     19  H   UNL     1       0.882  -6.606  -2.993  0.00  0.00    +0.155 HD
BRANCH  16  20
ATOM     20  C   UNL     1       0.159  -4.171  -2.320  0.00  0.00    +0.256 C 
ATOM     21  C   UNL     1      -1.229  -4.813  -2.352  0.00  0.00    +0.062 C 
BRANCH  20  22
ATOM     22  O   UNL     1       0.028  -2.749  -2.386  0.00  0.00    -0.480 OA
BRANCH  22  26
ATOM     23  C   UNL     1      -0.818  -2.926   2.418  0.00  0.00    +0.045 C 
ATOM     24  C   UNL     1      -0.604  -2.146   1.146  0.00  0.00    -0.028 A 
ATOM     25  C   UNL     1      -0.384  -2.813  -0.043  0.00  0.00    +0.050 A 
ATOM     26  C   UNL     1      -0.189  -2.095  -1.214  0.00  0.00    +0.122 A 
ATOM     27  C   UNL     1      -0.214  -0.708  -1.188  0.00  0.00    +0.050 A 
ATOM     28  C   UNL     1      -0.434  -0.045   0.004  0.00  0.00    -0.028 A 
ATOM     29  C   UNL     1      -0.634  -0.763   1.170  0.00  0.00    +0.047 A 
ATOM     30 CL   UNL     1      -0.917   0.073   2.665  0.00  0.00    -0.083 Cl
ATOM     31  C   UNL     1      -0.461   1.462   0.034  0.00  0.00    +0.045 C 
ENDBRANCH  22  26
ENDBRANCH  20  22
ENDBRANCH  16  20
ENDBRANCH   1  18
BRANCH   2  32
ATOM     32  C   UNL     1       1.903  -8.848  -4.197  0.00  0.00    +0.342 C 
ATOM     33  O   UNL     1       0.850  -9.419  -4.410  0.00  0.00    -0.245 OA
BRANCH  32  34
ATOM     34  O   UNL     1       2.697  -9.253  -3.185  0.00  0.00    -0.464 OA
ATOM     35  C   UNL     1       2.240 -10.358  -2.403  0.00  0.00    +0.280 C 
ENDBRANCH  32  34
ENDBRANCH   2  32
TORSDOF 7
