REMARK  Name = ZINC09516774
REMARK  8 active torsions:
REMARK  status: ('A' for Active; 'I' for Inactive)
REMARK    1  A    between atoms: C_1  and  C_2
REMARK    2  A    between atoms: C_2  and  C_3
REMARK    3  A    between atoms: C_2  and  C_4
REMARK    4  A    between atoms: C_4  and  N_58
REMARK    5  A    between atoms: C_8  and  C_11
REMARK    6  A    between atoms: C_11  and  S_12
REMARK    7  A    between atoms: S_12  and  C_13
REMARK    8  A    between atoms: N_26  and  C_27
REMARK                            x       y       z     vdW  Elec       q    Type
REMARK                         _______ _______ _______ _____ _____    ______ ____
ROOT
ATOM      1  C   UNL     1       5.056   1.123   2.693  0.00  0.00    +0.179 C 
ATOM      2  N   UNL     1       5.424   1.921   1.730  0.00  0.00    -0.158 NA
ATOM      3  N   UNL     1       6.794   2.179   1.873  0.00  0.00    -0.221 N 
ATOM      4  C   UNL     1       7.223   1.496   2.952  0.00  0.00    +0.121 C 
ATOM      5  C   UNL     1       8.542   1.470   3.453  0.00  0.00    +0.040 C 
ATOM      6  C   UNL     1       9.732   1.679   2.738  0.00  0.00    +0.123 C 
ATOM      7  N   UNL     1      10.758   1.578   3.552  0.00  0.00    -0.254 NA
ATOM      8  C   UNL     1      10.381   1.298   4.810  0.00  0.00    +0.072 A 
ATOM      9  C   UNL     1       8.968   1.212   4.835  0.00  0.00    +0.012 A 
ATOM     10  C   UNL     1       8.306   0.929   6.027  0.00  0.00    +0.011 A 
ATOM     11  C   UNL     1       9.028   0.737   7.172  0.00  0.00    +0.001 A 
ATOM     12  C   UNL     1      10.416   0.820   7.156  0.00  0.00    +0.002 A 
ATOM     13  C   UNL     1      11.090   1.095   6.002  0.00  0.00    +0.028 A 
ATOM     14  N   UNL     1       6.152   0.837   3.470  0.00  0.00    -0.262 N 
ATOM     15  H   UNL     1       7.335   2.742   1.298  0.00  0.00    +0.176 HD
ENDROOT
BRANCH  14  16
ATOM     16  C   UNL     1       6.165  -0.030   4.651  0.00  0.00    +0.082 C 
ATOM     17  C   UNL     1       4.966  -0.958   4.859  0.00  0.00    +0.025 C 
ATOM     18  C   UNL     1       5.150   0.268   5.756  0.00  0.00    +0.025 C 
ENDBRANCH  14  16
BRANCH   1  19
ATOM     19  S   UNL     1       3.425   0.509   2.952  0.00  0.00    -0.086 S 
BRANCH  19  20
ATOM     20  C   UNL     1       2.567   1.303   1.570  0.00  0.00    +0.107 C 
BRANCH  20  24
ATOM     21  C   UNL     1      -1.114  -0.338   0.273  0.00  0.00    -0.050 C 
ATOM     22  C   UNL     1      -0.373  -0.986   1.445  0.00  0.00    +0.141 C 
ATOM     23  O   UNL     1       0.977  -0.515   1.468  0.00  0.00    -0.379 OA
ATOM     24  C   UNL     1       1.090   0.905   1.590  0.00  0.00    +0.112 C 
ATOM     25  C   UNL     1       0.364   1.572   0.419  0.00  0.00    -0.046 C 
ATOM     26  N   UNL     1      -1.047   1.131   0.423  0.00  0.00    +0.383 N 
ATOM     27  H   UNL     1      -1.477   1.395   1.317  0.00  0.00    -0.082 HD
BRANCH  26  28
ATOM     28  C   UNL     1      -1.784   1.786  -0.679  0.00  0.00    -0.076 C 
BRANCH  28  30
ATOM     29  C   UNL     1      -2.667   3.977  -1.494  0.00  0.00    +0.005 C 
ATOM     30  C   UNL     1      -2.010   3.256  -0.315  0.00  0.00    -0.034 C 
ATOM     31  C   UNL     1      -2.922   3.344   0.910  0.00  0.00    +0.005 C 
ENDBRANCH  28  30
ENDBRANCH  26  28
ENDBRANCH  20  24
ENDBRANCH  19  20
ENDBRANCH   1  19
TORSDOF 6
