REMARK  Name = ZINC11771803
REMARK  10 active torsions:
REMARK  status: ('A' for Active; 'I' for Inactive)
REMARK    1  A    between atoms: C_1  and  C_2
REMARK    2  A    between atoms: C_2  and  O_3
REMARK    3  A    between atoms: O_3  and  C_4
REMARK    4  A    between atoms: C_7  and  C_10
REMARK    5  A    between atoms: C_10  and  N_63
REMARK    6  A    between atoms: C_16  and  C_18
REMARK    7  A    between atoms: C_18  and  C_19
REMARK    8  A    between atoms: N_21  and  C_22
REMARK    9  A    between atoms: N_21  and  C_23
REMARK   10  A    between atoms: C_23  and  C_24
REMARK                            x       y       z     vdW  Elec       q    Type
REMARK                         _______ _______ _______ _____ _____    ______ ____
ROOT
ATOM      1  C   UNL     1       1.577   2.139  -0.187  0.00  0.00    -0.058 C 
ATOM      2  C   UNL     1       0.127   1.696  -0.389  0.00  0.00    +0.085 C 
ATOM      3  N   UNL     1       0.056   0.240  -0.469  0.00  0.00    -0.318 N 
ATOM      4  C   UNL     1       1.034  -0.561  -0.034  0.00  0.00    +0.200 C 
ATOM      5  O   UNL     1       0.880  -1.761  -0.111  0.00  0.00    -0.278 OA
ATOM      6  C   UNL     1       2.317  -0.036   0.545  0.00  0.00    +0.028 C 
ATOM      7  H   UNL     1      -0.737  -0.164  -0.855  0.00  0.00    +0.149 HD
ATOM      8  N   UNL     1       2.137   1.373   0.944  0.00  0.00    +0.391 N 
ATOM      9  H   UNL     1       1.484   1.417   1.735  0.00  0.00    -0.080 HD
ENDROOT
BRANCH   8  10
ATOM     10  C   UNL     1       3.435   1.952   1.358  0.00  0.00    -0.042 C 
BRANCH  10  14
ATOM     11  C   UNL     1       2.903   6.104   2.217  0.00  0.00    +0.121 A 
ATOM     12  C   UNL     1       2.729   5.160   3.218  0.00  0.00    +0.046 A 
ATOM     13  C   UNL     1       2.902   3.818   2.938  0.00  0.00    +0.005 A 
ATOM     14  C   UNL     1       3.248   3.417   1.661  0.00  0.00    -0.064 A 
ATOM     15  C   UNL     1       3.427   4.356   0.663  0.00  0.00    +0.005 A 
ATOM     16  C   UNL     1       3.250   5.699   0.937  0.00  0.00    +0.046 A 
BRANCH  11  17
ATOM     17  O   UNL     1       2.735   7.425   2.491  0.00  0.00    -0.492 OA
BRANCH  17  19
ATOM     18  C   UNL     1       2.699   9.770   1.908  0.00  0.00    +0.048 C 
ATOM     19  C   UNL     1       2.930   8.341   1.412  0.00  0.00    +0.225 C 
ENDBRANCH  17  19
ENDBRANCH  11  17
ENDBRANCH  10  14
ENDBRANCH   8  10
BRANCH   6  20
ATOM     20  C   UNL     1       2.690  -0.857   1.781  0.00  0.00    +0.090 C 
BRANCH  20  21
ATOM     21  C   UNL     1       1.611  -0.713   2.824  0.00  0.00    +0.215 C 
ATOM     22  O   UNL     1       0.601  -0.091   2.569  0.00  0.00    -0.276 OA
ATOM     23  N   UNL     1       1.768  -1.276   4.038  0.00  0.00    -0.300 N 
ATOM     24  C   UNL     1       2.988  -2.027   4.345  0.00  0.00    +0.132 C 
BRANCH  23  25
ATOM     25  C   UNL     1       0.719  -1.136   5.051  0.00  0.00    +0.143 C 
BRANCH  25  26
ATOM     26  C   UNL     1      -0.317  -2.212   4.853  0.00  0.00    -0.022 A 
ATOM     27  C   UNL     1      -0.129  -3.182   3.915  0.00  0.00    +0.006 A 
ATOM     28  C   UNL     1      -1.074  -4.187   3.722  0.00  0.00    +0.001 A 
ATOM     29  C   UNL     1      -2.220  -4.226   4.457  0.00  0.00    +0.010 A 
ATOM     30  C   UNL     1      -2.451  -3.241   5.430  0.00  0.00    +0.001 A 
ATOM     31  C   UNL     1      -1.485  -2.220   5.629  0.00  0.00    -0.010 A 
ATOM     32  C   UNL     1      -1.740  -1.244   6.610  0.00  0.00    +0.028 A 
ATOM     33  C   UNL     1      -2.898  -1.322   7.322  0.00  0.00    +0.111 A 
ATOM     34  N   UNL     1      -3.784  -2.287   7.116  0.00  0.00    -0.263 NA
ATOM     35  C   UNL     1      -3.613  -3.229   6.218  0.00  0.00    +0.119 A 
ENDBRANCH  25  26
ENDBRANCH  23  25
ENDBRANCH  20  21
ENDBRANCH   6  20
TORSDOF 8
