REMARK  Name = ZINC06085542
REMARK  9 active torsions:
REMARK  status: ('A' for Active; 'I' for Inactive)
REMARK    1  A    between atoms: C_1  and  C_2
REMARK    2  A    between atoms: C_2  and  C_3
REMARK    3  A    between atoms: C_2  and  C_4
REMARK    4  A    between atoms: C_4  and  N_5
REMARK    5  A    between atoms: N_5  and  C_6
REMARK    6  A    between atoms: C_6  and  C_8
REMARK    7  A    between atoms: C_6  and  C_14
REMARK    8  A    between atoms: N_16  and  C_17
REMARK    9  A    between atoms: C_20  and  N_24
REMARK                            x       y       z     vdW  Elec       q    Type
REMARK                         _______ _______ _______ _____ _____    ______ ____
ROOT
ATOM      1  C   UNL     1       0.711  -0.615   3.642  0.00  0.00    +0.047 C 
ENDROOT
BRANCH   1   2
ATOM      2  C   UNL     1       2.029   0.102   3.772  0.00  0.00    -0.053 A 
ATOM      3  C   UNL     1       2.110   1.455   3.499  0.00  0.00    +0.002 A 
ATOM      4  C   UNL     1       3.320   2.113   3.618  0.00  0.00    +0.000 A 
ATOM      5  C   UNL     1       4.449   1.419   4.011  0.00  0.00    +0.000 A 
ATOM      6  C   UNL     1       4.368   0.066   4.285  0.00  0.00    +0.000 A 
ATOM      7  C   UNL     1       3.157  -0.591   4.170  0.00  0.00    +0.002 A 
ENDBRANCH   1   2
BRANCH   1   8
ATOM      8  C   UNL     1      -0.128  -0.351   4.866  0.00  0.00    +0.207 C 
ATOM      9  O   UNL     1      -1.007   0.485   4.830  0.00  0.00    -0.277 OA
ATOM     10  N   UNL     1       0.098  -1.042   6.000  0.00  0.00    -0.286 N 
ATOM     11  H   UNL     1       0.745  -1.765   6.007  0.00  0.00    +0.155 HD
BRANCH  10  12
ATOM     12  C   UNL     1      -0.601  -0.718   7.169  0.00  0.00    +0.048 A 
ATOM     13  C   UNL     1      -1.110   0.562   7.342  0.00  0.00    +0.026 A 
ATOM     14  C   UNL     1      -1.799   0.879   8.496  0.00  0.00    +0.034 A 
ATOM     15  C   UNL     1      -1.982  -0.076   9.479  0.00  0.00    +0.127 A 
ATOM     16  C   UNL     1      -1.476  -1.352   9.310  0.00  0.00    +0.049 A 
ATOM     17  C   UNL     1      -0.791  -1.677   8.155  0.00  0.00    +0.041 A 
ATOM     18 BR   UNL     1      -0.106  -3.425   7.921  0.00  0.00    -0.048 Br
BRANCH  15  19
ATOM     19  N   UNL     1      -2.720   0.268  10.715  0.00  0.00    +0.056 N 
ATOM     20  O   UNL     1      -3.162   1.383  10.865  0.00  0.00    -0.126 OA
ATOM     21  O   UNL     1      -2.880  -0.566  11.576  0.00  0.00    -0.126 OA
ENDBRANCH  15  19
ENDBRANCH  10  12
ENDBRANCH   1   8
BRANCH   1  22
ATOM     22  N   UNL     1       0.004  -0.129   2.449  0.00  0.00    +0.390 N 
ATOM     23  H   UNL     1      -0.087   0.875   2.498  0.00  0.00    -0.084 HD
ATOM     24  H   UNL     1      -0.913  -0.548   2.407  0.00  0.00    -0.084 HD
BRANCH  22  25
ATOM     25  C   UNL     1       0.765  -0.493   1.247  0.00  0.00    -0.078 C 
BRANCH  25  27
ATOM     26  C   UNL     1      -0.000   1.543   0.018  0.00  0.00    +0.005 C 
ATOM     27  C   UNL     1       0.029   0.013   0.005  0.00  0.00    -0.034 C 
ATOM     28  C   UNL     1       0.754  -0.472  -1.252  0.00  0.00    +0.005 C 
ENDBRANCH  25  27
ENDBRANCH  22  25
ENDBRANCH   1  22
TORSDOF 7
