REMARK  Name = ZINC31761090
REMARK  7 active torsions:
REMARK  status: ('A' for Active; 'I' for Inactive)
REMARK    1  A    between atoms: C_1  and  C_2
REMARK    2  A    between atoms: C_2  and  C_4
REMARK    3  A    between atoms: C_2  and  N_13
REMARK    4  A    between atoms: C_7  and  O_11
REMARK    5  A    between atoms: O_11  and  C_12
REMARK    6  A    between atoms: C_14  and  C_16
REMARK    7  A    between atoms: C_16  and  N_17
REMARK                            x       y       z     vdW  Elec       q    Type
REMARK                         _______ _______ _______ _____ _____    ______ ____
ROOT
ATOM      1  N   UNL     1      -1.008  -3.800  -2.376  0.00  0.00    -0.307 N 
ATOM      2  C   UNL     1       0.011  -3.101  -1.839  0.00  0.00    +0.231 C 
ATOM      3  O   UNL     1       0.893  -2.670  -2.552  0.00  0.00    -0.274 OA
ATOM      4  H   UNL     1      -1.808  -4.191  -1.729  0.00  0.00    +0.149 HD
ENDROOT
BRANCH   1   6
ATOM      5  C   UNL     1      -1.700  -2.841  -4.517  0.00  0.00    +0.033 C 
ATOM      6  C   UNL     1      -1.052  -4.040  -3.821  0.00  0.00    +0.100 C 
BRANCH   6   7
ATOM      7  C   UNL     1      -1.860  -5.281  -4.100  0.00  0.00    -0.026 A 
ATOM      8  C   UNL     1      -1.447  -6.168  -5.076  0.00  0.00    +0.009 A 
ATOM      9  C   UNL     1      -2.185  -7.307  -5.335  0.00  0.00    +0.047 A 
ATOM     10  C   UNL     1      -3.343  -7.560  -4.613  0.00  0.00    +0.134 A 
ATOM     11  C   UNL     1      -3.756  -6.667  -3.634  0.00  0.00    +0.060 A 
ATOM     12  C   UNL     1      -3.010  -5.532  -3.376  0.00  0.00    +0.024 A 
ATOM     13 BR   UNL     1      -5.334  -7.008  -2.648  0.00  0.00    -0.047 Br
BRANCH  10  14
ATOM     14  O   UNL     1      -4.071  -8.679  -4.865  0.00  0.00    -0.494 OA
ATOM     15  C   UNL     1      -3.586  -9.553  -5.887  0.00  0.00    +0.277 C 
ENDBRANCH  10  14
ENDBRANCH   6   7
ENDBRANCH   1   6
BRANCH   2  16
ATOM     16  C   UNL     1       0.056  -2.855  -0.353  0.00  0.00    +0.209 C 
BRANCH  16  17
ATOM     17  N   UNL     1       1.254  -2.078  -0.023  0.00  0.00    -0.257 N 
ATOM     18  C   UNL     1       1.213  -0.676  -0.013  0.00  0.00    +0.079 A 
ATOM     19  C   UNL     1       0.002  -0.004   0.002  0.00  0.00    +0.028 A 
ATOM     20  C   UNL     1      -0.017   1.379   0.010  0.00  0.00    +0.017 A 
ATOM     21  C   UNL     1       1.170   2.091   0.002  0.00  0.00    +0.021 A 
ATOM     22  C   UNL     1       2.382   1.424  -0.013  0.00  0.00    +0.062 A 
ATOM     23  C   UNL     1       2.408   0.040  -0.020  0.00  0.00    +0.144 A 
ATOM     24  O   UNL     1       3.591  -0.631  -0.033  0.00  0.00    -0.481 OA
ATOM     25  C   UNL     1       3.625  -1.886   0.653  0.00  0.00    +0.325 C 
ATOM     26  C   UNL     1       2.414  -2.701   0.278  0.00  0.00    +0.258 C 
ATOM     27  O   UNL     1       2.481  -3.912   0.246  0.00  0.00    -0.271 OA
ATOM     28 BR   UNL     1       1.134   3.981   0.012  0.00  0.00    -0.050 Br
ENDBRANCH  16  17
ENDBRANCH   2  16
TORSDOF 5
