REMARK  Name = ZINC40426501
REMARK  9 active torsions:
REMARK  status: ('A' for Active; 'I' for Inactive)
REMARK    1  A    between atoms: C_1  and  C_2
REMARK    2  A    between atoms: C_2  and  N_3
REMARK    3  A    between atoms: C_6  and  C_11
REMARK    4  A    between atoms: N_20  and  C_22
REMARK    5  A    between atoms: C_22  and  C_24
REMARK    6  A    between atoms: C_22  and  C_31
REMARK    7  A    between atoms: C_24  and  C_25
REMARK    8  A    between atoms: N_33  and  C_34
REMARK    9  A    between atoms: C_37  and  C_40
REMARK                            x       y       z     vdW  Elec       q    Type
REMARK                         _______ _______ _______ _____ _____    ______ ____
ROOT
ATOM      1  N   UNL     1       0.692  -0.482  -1.205  0.00  0.00    -0.257 N 
ATOM      2  C   UNL     1      -0.055  -0.693  -2.329  0.00  0.00    +0.042 C 
ATOM      3  C   UNL     1       0.512  -1.119  -3.475  0.00  0.00    +0.058 C 
ATOM      4  C   UNL     1       2.009  -1.356  -3.475  0.00  0.00    +0.142 C 
ATOM      5  N   UNL     1       2.724  -1.100  -2.214  0.00  0.00    -0.288 N 
ATOM      6  C   UNL     1       2.017  -0.671  -1.150  0.00  0.00    +0.307 C 
ATOM      7  O   UNL     1       2.599  -0.453  -0.105  0.00  0.00    -0.252 OA
ATOM      8  C   UNL     1      -0.464  -1.260  -4.483  0.00  0.00    +0.247 C 
ATOM      9  O   UNL     1      -0.232  -1.630  -5.619  0.00  0.00    -0.270 OA
ATOM     10  N   UNL     1      -1.686  -0.932  -4.025  0.00  0.00    -0.280 N 
ATOM     11  C   UNL     1      -1.533  -0.544  -2.615  0.00  0.00    +0.160 C 
ATOM     12  H   UNL     1       3.683  -1.233  -2.151  0.00  0.00    +0.151 HD
ENDROOT
BRANCH   4  13
ATOM     13  C   UNL     1       2.252  -2.792  -3.863  0.00  0.00    -0.022 A 
ATOM     14  C   UNL     1       2.103  -3.796  -2.925  0.00  0.00    +0.007 A 
ATOM     15  C   UNL     1       2.326  -5.113  -3.280  0.00  0.00    +0.020 A 
ATOM     16  C   UNL     1       2.699  -5.426  -4.575  0.00  0.00    +0.041 A 
ATOM     17  C   UNL     1       2.848  -4.420  -5.514  0.00  0.00    +0.020 A 
ATOM     18  C   UNL     1       2.619  -3.104  -5.159  0.00  0.00    +0.007 A 
ATOM     19 CL   UNL     1       2.979  -7.080  -5.022  0.00  0.00    -0.084 Cl
ENDBRANCH   4  13
BRANCH   1  21
ATOM     20  C   UNL     1      -0.020   1.510   0.022  0.00  0.00    +0.025 C 
ATOM     21  C   UNL     1       0.007  -0.019   0.005  0.00  0.00    +0.111 C 
ENDBRANCH   1  21
BRANCH  10  22
ATOM     22  C   UNL     1      -2.936  -0.958  -4.788  0.00  0.00    +0.167 C 
BRANCH  22  23
ATOM     23  C   UNL     1      -3.195  -2.358  -5.281  0.00  0.00    +0.238 C 
ATOM     24  O   UNL     1      -2.412  -3.248  -5.020  0.00  0.00    -0.273 OA
ATOM     25  N   UNL     1      -4.296  -2.623  -6.012  0.00  0.00    -0.284 N 
ATOM     26  H   UNL     1      -4.956  -1.928  -6.163  0.00  0.00    +0.155 HD
BRANCH  25  27
ATOM     27  C   UNL     1      -4.488  -3.900  -6.551  0.00  0.00    +0.033 A 
ATOM     28  C   UNL     1      -5.094  -4.047  -7.792  0.00  0.00    +0.023 A 
ATOM     29  C   UNL     1      -5.282  -5.309  -8.322  0.00  0.00    +0.005 A 
ATOM     30  C   UNL     1      -4.867  -6.424  -7.618  0.00  0.00    -0.050 A 
ATOM     31  C   UNL     1      -4.264  -6.281  -6.382  0.00  0.00    +0.005 A 
ATOM     32  C   UNL     1      -4.067  -5.022  -5.849  0.00  0.00    +0.023 A 
ATOM     33  C   UNL     1      -5.074  -7.799  -8.199  0.00  0.00    +0.044 C 
ENDBRANCH  25  27
ENDBRANCH  22  23
BRANCH  22  34
ATOM     34  C   UNL     1      -2.823  -0.009  -5.983  0.00  0.00    +0.067 C 
BRANCH  34  35
ATOM     35  C   UNL     1      -2.687   1.408  -5.489  0.00  0.00    -0.045 A 
ATOM     36  C   UNL     1      -3.816   2.176  -5.273  0.00  0.00    +0.004 A 
ATOM     37  C   UNL     1      -3.691   3.476  -4.819  0.00  0.00    +0.000 A 
ATOM     38  C   UNL     1      -2.438   4.007  -4.581  0.00  0.00    +0.000 A 
ATOM     39  C   UNL     1      -1.309   3.239  -4.795  0.00  0.00    +0.000 A 
ATOM     40  C   UNL     1      -1.434   1.937  -5.245  0.00  0.00    +0.004 A 
ENDBRANCH  34  35
ENDBRANCH  22  34
ENDBRANCH  10  22
TORSDOF 7
