REMARK  Name = ZINC03438988
REMARK  7 active torsions:
REMARK  status: ('A' for Active; 'I' for Inactive)
REMARK    1  A    between atoms: C_1  and  C_2
REMARK    2  A    between atoms: C_2  and  C_26
REMARK    3  A    between atoms: N_5  and  C_9
REMARK    4  A    between atoms: C_9  and  C_10
REMARK    5  A    between atoms: N_12  and  C_13
REMARK    6  A    between atoms: C_18  and  C_19
REMARK    7  A    between atoms: C_19  and  C_20
REMARK                            x       y       z     vdW  Elec       q    Type
REMARK                         _______ _______ _______ _____ _____    ______ ____
ROOT
ATOM      1  C   UNL     1      -9.160   7.149  -2.709  0.00  0.00    +0.047 C 
ATOM      2  C   UNL     1      -7.790   6.889  -3.339  0.00  0.00    +0.135 C 
ATOM      3  C   UNL     1      -6.693   7.045  -2.304  0.00  0.00    +0.251 C 
ATOM      4  O   UNL     1      -6.415   8.044  -1.677  0.00  0.00    -0.272 OA
ATOM      5  N   UNL     1      -6.091   5.842  -2.227  0.00  0.00    -0.215 N 
ATOM      6  C   UNL     1      -6.654   4.955  -3.055  0.00  0.00    +0.310 C 
ATOM      7  O   UNL     1      -6.286   3.801  -3.161  0.00  0.00    -0.252 OA
ATOM      8  N   UNL     1      -7.672   5.482  -3.759  0.00  0.00    -0.281 N 
ATOM      9  H   UNL     1      -8.221   5.025  -4.415  0.00  0.00    +0.152 HD
ENDROOT
BRANCH   2  10
ATOM     10  C   UNL     1      -7.558   7.813  -4.507  0.00  0.00    -0.012 A 
ATOM     11  C   UNL     1      -6.987   9.055  -4.301  0.00  0.00    +0.010 A 
ATOM     12  C   UNL     1      -6.772   9.905  -5.369  0.00  0.00    +0.050 A 
ATOM     13  C   UNL     1      -7.130   9.514  -6.651  0.00  0.00    +0.162 A 
ATOM     14  C   UNL     1      -7.702   8.264  -6.858  0.00  0.00    +0.162 A 
ATOM     15  C   UNL     1      -7.910   7.414  -5.782  0.00  0.00    +0.055 A 
ATOM     16  O   UNL     1      -8.056   7.859  -8.108  0.00  0.00    -0.485 OA
ATOM     17  C   UNL     1      -8.173   8.878  -9.106  0.00  0.00    +0.270 C 
ATOM     18  C   UNL     1      -6.944   9.792  -9.005  0.00  0.00    +0.270 C 
ATOM     19  O   UNL     1      -6.917  10.363  -7.693  0.00  0.00    -0.485 OA
ENDBRANCH   2  10
BRANCH   5  20
ATOM     20  C   UNL     1      -4.964   5.541  -1.341  0.00  0.00    +0.214 C 
BRANCH  20  21
ATOM     21  C   UNL     1      -3.670   5.820  -2.062  0.00  0.00    +0.235 C 
ATOM     22  O   UNL     1      -3.688   6.230  -3.203  0.00  0.00    -0.274 OA
ATOM     23  N   UNL     1      -2.493   5.614  -1.438  0.00  0.00    -0.284 N 
ATOM     24  H   UNL     1      -2.476   5.211  -0.556  0.00  0.00    +0.155 HD
BRANCH  23  25
ATOM     25  C   UNL     1      -1.296   5.981  -2.064  0.00  0.00    +0.037 A 
ATOM     26  C   UNL     1      -1.293   6.980  -3.029  0.00  0.00    +0.023 A 
ATOM     27  C   UNL     1      -0.112   7.335  -3.649  0.00  0.00    +0.002 A 
ATOM     28  C   UNL     1       1.069   6.702  -3.305  0.00  0.00    +0.000 A 
ATOM     29  C   UNL     1       1.071   5.712  -2.340  0.00  0.00    +0.006 A 
ATOM     30  C   UNL     1      -0.108   5.352  -1.716  0.00  0.00    -0.022 A 
BRANCH  30  31
ATOM     31  C   UNL     1      -0.106   4.272  -0.665  0.00  0.00    +0.072 C 
BRANCH  31  32
ATOM     32  C   UNL     1      -0.458   2.951  -1.301  0.00  0.00    -0.043 A 
ATOM     33  C   UNL     1       0.540   2.140  -1.807  0.00  0.00    +0.004 A 
ATOM     34  C   UNL     1       0.217   0.929  -2.390  0.00  0.00    +0.000 A 
ATOM     35  C   UNL     1      -1.104   0.529  -2.467  0.00  0.00    +0.000 A 
ATOM     36  C   UNL     1      -2.103   1.343  -1.966  0.00  0.00    +0.000 A 
ATOM     37  C   UNL     1      -1.779   2.552  -1.378  0.00  0.00    +0.004 A 
ENDBRANCH  31  32
ENDBRANCH  30  31
ENDBRANCH  23  25
ENDBRANCH  20  21
ENDBRANCH   5  20
TORSDOF 6
