REMARK  Name = ZINC32289489
REMARK  8 active torsions:
REMARK  status: ('A' for Active; 'I' for Inactive)
REMARK    1  A    between atoms: C_1  and  C_2
REMARK    2  A    between atoms: C_6  and  C_16
REMARK    3  A    between atoms: N_8  and  C_9
REMARK    4  A    between atoms: N_18  and  C_19
REMARK    5  A    between atoms: C_23  and  O_25
REMARK    6  A    between atoms: O_25  and  C_26
REMARK    7  A    between atoms: C_26  and  C_27
REMARK    8  A    between atoms: C_31  and  C_33
REMARK                            x       y       z     vdW  Elec       q    Type
REMARK                         _______ _______ _______ _____ _____    ______ ____
ROOT
ATOM      1  C   UNL     1       0.587  -5.709   4.490  0.00  0.00    +0.272 C 
ATOM      2  O   UNL     1       0.594  -6.442   3.520  0.00  0.00    -0.268 OA
ATOM      3  N   UNL     1       0.932  -4.413   4.356  0.00  0.00    -0.280 N 
ATOM      4  H   UNL     1       0.999  -3.767   5.245  0.00  0.00    +0.155 HD
ENDROOT
BRANCH   1  10
ATOM      5  C   UNL     1      -0.878  -7.580   9.677  0.00  0.00    +0.066 C 
ATOM      6  C   UNL     1      -0.505  -7.166   8.277  0.00  0.00    +0.044 A 
ATOM      7  C   UNL     1      -0.537  -8.080   7.278  0.00  0.00    +0.076 A 
ATOM      8  C   UNL     1      -0.179  -7.650   5.974  0.00  0.00    +0.213 A 
ATOM      9  O   UNL     1      -0.185  -8.419   5.026  0.00  0.00    -0.285 OA
ATOM     10  C   UNL     1       0.201  -6.237   5.813  0.00  0.00    +0.193 A 
ATOM     11  N   UNL     1       0.194  -5.455   6.872  0.00  0.00    -0.158 NA
ATOM     12  N   UNL     1      -0.141  -5.883   8.033  0.00  0.00    -0.233 N 
BRANCH  12  13
ATOM     13  C   UNL     1      -0.126  -4.982   9.103  0.00  0.00    +0.101 A 
ATOM     14  C   UNL     1       0.577  -5.289  10.261  0.00  0.00    +0.031 A 
ATOM     15  C   UNL     1       0.595  -4.395  11.314  0.00  0.00    +0.002 A 
ATOM     16  C   UNL     1      -0.095  -3.199  11.221  0.00  0.00    +0.003 A 
ATOM     17  C   UNL     1      -0.800  -2.891  10.073  0.00  0.00    +0.040 A 
ATOM     18  C   UNL     1      -0.818  -3.779   9.012  0.00  0.00    +0.149 A 
ATOM     19  F   UNL     1      -1.507  -3.478   7.889  0.00  0.00    -0.203 F 
ENDBRANCH  12  13
ENDBRANCH   1  10
BRANCH   3  20
ATOM     20  C   UNL     1       1.205  -3.889   3.089  0.00  0.00    +0.037 A 
ATOM     21  C   UNL     1       2.161  -2.891   2.940  0.00  0.00    +0.023 A 
ATOM     22  C   UNL     1       2.432  -2.375   1.688  0.00  0.00    +0.005 A 
ATOM     23  C   UNL     1       1.756  -2.851   0.580  0.00  0.00    +0.046 A 
ATOM     24  C   UNL     1       0.796  -3.843   0.724  0.00  0.00    +0.123 A 
ATOM     25  C   UNL     1       0.522  -4.364   1.979  0.00  0.00    +0.069 A 
BRANCH  24  26
ATOM     26  O   UNL     1       0.129  -4.306  -0.365  0.00  0.00    -0.487 OA
BRANCH  26  27
ATOM     27  C   UNL     1       0.463  -3.723  -1.627  0.00  0.00    +0.264 C 
BRANCH  27  28
ATOM     28  C   UNL     1      -0.372  -4.358  -2.710  0.00  0.00    -0.009 A 
ATOM     29  C   UNL     1      -1.600  -3.813  -3.043  0.00  0.00    +0.007 A 
ATOM     30  C   UNL     1      -2.372  -4.389  -4.036  0.00  0.00    +0.002 A 
ATOM     31  C   UNL     1      -1.922  -5.511  -4.701  0.00  0.00    +0.019 A 
ATOM     32  C   UNL     1      -0.684  -6.065  -4.370  0.00  0.00    +0.052 A 
ATOM     33  C   UNL     1       0.092  -5.476  -3.370  0.00  0.00    +0.025 A 
BRANCH  32  34
ATOM     34  C   UNL     1      -0.211  -7.229  -5.056  0.00  0.00    +0.099 C 
ATOM     35  N   UNL     1       0.165  -8.153  -5.601  0.00  0.00    -0.191 NA
ENDBRANCH  32  34
ENDBRANCH  27  28
ENDBRANCH  26  27
ENDBRANCH  24  26
ENDBRANCH   3  20
TORSDOF 7
