REMARK  Name = ZINC13568281
REMARK  15 active torsions:
REMARK  status: ('A' for Active; 'I' for Inactive)
REMARK    1  A    between atoms: C_1  and  C_2
REMARK    2  A    between atoms: C_6  and  N_8
REMARK    3  A    between atoms: N_8  and  C_9
REMARK    4  A    between atoms: C_9  and  N_11
REMARK    5  A    between atoms: N_11  and  C_12
REMARK    6  A    between atoms: N_11  and  C_27
REMARK    7  A    between atoms: C_12  and  C_13
REMARK    8  A    between atoms: C_17  and  C_26
REMARK    9  A    between atoms: C_27  and  C_28
REMARK   10  A    between atoms: C_28  and  C_29
REMARK   11  A    between atoms: C_28  and  C_30
REMARK   12  A    between atoms: C_28  and  C_31
REMARK   13  A    between atoms: C_31  and  N_67
REMARK   14  A    between atoms: C_32  and  N_67
REMARK   15  A    between atoms: C_33  and  N_67
REMARK                            x       y       z     vdW  Elec       q    Type
REMARK                         _______ _______ _______ _____ _____    ______ ____
ROOT
ATOM      1  N   UNL     1       1.978   1.647   0.116  0.00  0.00    -0.308 N 
ENDROOT
BRANCH   1   2
ATOM      2  C   UNL     1       1.224   2.739  -0.122  0.00  0.00    +0.137 C 
ATOM      3  S   UNL     1       1.792   4.288   0.336  0.00  0.00    -0.018 S 
BRANCH   2   4
ATOM      4  N   UNL     1       0.022   2.611  -0.719  0.00  0.00    -0.297 N 
ATOM      5  H   UNL     1      -0.326   1.729  -0.924  0.00  0.00    +0.154 HD
BRANCH   4  11
ATOM      6  C   UNL     1      -2.709   5.097  -3.965  0.00  0.00    +0.044 C 
ATOM      7  C   UNL     1      -2.056   4.981  -2.611  0.00  0.00    -0.049 A 
ATOM      8  C   UNL     1      -2.193   6.003  -1.689  0.00  0.00    +0.003 A 
ATOM      9  C   UNL     1      -1.597   5.901  -0.446  0.00  0.00    +0.002 A 
ATOM     10  C   UNL     1      -0.866   4.775  -0.119  0.00  0.00    +0.023 A 
ATOM     11  C   UNL     1      -0.722   3.750  -1.045  0.00  0.00    +0.033 A 
ATOM     12  C   UNL     1      -1.323   3.856  -2.293  0.00  0.00    +0.026 A 
ENDBRANCH   4  11
ENDBRANCH   2   4
ENDBRANCH   1   2
BRANCH   1  13
ATOM     13  C   UNL     1       3.286   1.787   0.760  0.00  0.00    +0.145 C 
BRANCH  13  14
ATOM     14  C   UNL     1       4.346   1.987  -0.292  0.00  0.00    +0.016 A 
ATOM     15  C   UNL     1       5.118   0.944  -0.676  0.00  0.00    +0.019 A 
ATOM     16  C   UNL     1       6.138   1.159  -1.705  0.00  0.00    +0.001 A 
ATOM     17  C   UNL     1       6.958   0.112  -2.139  0.00  0.00    +0.013 A 
ATOM     18  C   UNL     1       7.905   0.344  -3.095  0.00  0.00    -0.050 A 
ATOM     19  C   UNL     1       8.061   1.610  -3.642  0.00  0.00    +0.005 A 
ATOM     20  C   UNL     1       7.265   2.656  -3.230  0.00  0.00    +0.029 A 
ATOM     21  C   UNL     1       6.294   2.445  -2.256  0.00  0.00    +0.077 A 
ATOM     22  N   UNL     1       5.484   3.472  -1.825  0.00  0.00    -0.192 N 
ATOM     23  C   UNL     1       4.531   3.264  -0.870  0.00  0.00    +0.184 A 
ATOM     24  N   UNL     1       3.930   4.430  -0.676  0.00  0.00    -0.108 NA
ATOM     25  N   UNL     1       4.442   5.328  -1.438  0.00  0.00    -0.022 NA
ATOM     26  N   UNL     1       5.386   4.830  -2.162  0.00  0.00    -0.039 NA
ATOM     27  C   UNL     1       8.787  -0.785  -3.562  0.00  0.00    +0.044 C 
ENDBRANCH  13  14
ENDBRANCH   1  13
BRANCH   1  28
ATOM     28  C   UNL     1       1.492   0.322  -0.276  0.00  0.00    +0.111 C 
BRANCH  28  29
ATOM     29  C   UNL     1       0.702  -0.294   0.881  0.00  0.00    -0.034 C 
ATOM     30  C   UNL     1       1.610  -0.425   2.106  0.00  0.00    +0.010 C 
ATOM     31  C   UNL     1      -0.488   0.605   1.222  0.00  0.00    +0.010 C 
BRANCH  29  32
ATOM     32  C   UNL     1       0.194  -1.678   0.472  0.00  0.00    -0.072 C 
BRANCH  32  35
ATOM     33  C   UNL     1      -1.854  -1.942   1.736  0.00  0.00    -0.097 C 
ATOM     34  C   UNL     1      -0.297  -3.788   1.554  0.00  0.00    -0.097 C 
ATOM     35  N   UNL     1      -0.427  -2.319   1.651  0.00  0.00    +0.376 N 
ATOM     36  H   UNL     1       0.054  -1.996   2.498  0.00  0.00    -0.083 HD
ENDBRANCH  32  35
ENDBRANCH  29  32
ENDBRANCH  28  29
ENDBRANCH   1  28
TORSDOF 9
