REMARK  Name = ZINC06322091
REMARK  7 active torsions:
REMARK  status: ('A' for Active; 'I' for Inactive)
REMARK    1  A    between atoms: C_1  and  C_2
REMARK    2  A    between atoms: C_5  and  C_39
REMARK    3  A    between atoms: C_9  and  C_14
REMARK    4  A    between atoms: C_14  and  C_16
REMARK    5  A    between atoms: C_14  and  N_71
REMARK    6  A    between atoms: N_20  and  C_21
REMARK    7  A    between atoms: C_32  and  C_34
REMARK                            x       y       z     vdW  Elec       q    Type
REMARK                         _______ _______ _______ _____ _____    ______ ____
ROOT
ATOM      1  C   UNL     1       1.844   4.104   0.321  0.00  0.00    +0.039 C 
ENDROOT
BRANCH   1  10
ATOM      2  C   UNL     1       1.126   7.516  -3.546  0.00  0.00    +0.044 C 
ATOM      3  C   UNL     1       1.928   6.369  -4.104  0.00  0.00    -0.041 A 
ATOM      4  C   UNL     1       2.318   6.378  -5.414  0.00  0.00    +0.004 A 
ATOM      5  C   UNL     1       3.058   5.327  -5.937  0.00  0.00    +0.005 A 
ATOM      6  C   UNL     1       3.412   4.254  -5.148  0.00  0.00    -0.026 A 
ATOM      7  C   UNL     1       3.025   4.222  -3.812  0.00  0.00    +0.052 A 
ATOM      8  C   UNL     1       2.276   5.291  -3.285  0.00  0.00    +0.002 A 
ATOM      9  C   UNL     1       1.874   5.249  -1.877  0.00  0.00    +0.018 A 
ATOM     10  C   UNL     1       2.241   4.178  -1.131  0.00  0.00    +0.011 A 
ATOM     11  C   UNL     1       2.998   3.135  -1.707  0.00  0.00    +0.251 A 
ATOM     12  O   UNL     1       3.321   2.184  -1.016  0.00  0.00    -0.268 OA
ATOM     13  N   UNL     1       3.366   3.162  -3.000  0.00  0.00    -0.322 N 
ATOM     14  H   UNL     1       3.883   2.427  -3.365  0.00  0.00    +0.169 HD
ATOM     15  C   UNL     1       4.215   3.119  -5.730  0.00  0.00    +0.046 C 
ENDBRANCH   1  10
BRANCH   1  23
ATOM     16  C   UNL     1       2.659   3.605   2.546  0.00  0.00    -0.058 C 
ATOM     17  C   UNL     1       3.883   3.115   3.327  0.00  0.00    +0.089 C 
ATOM     18  N   UNL     1       4.990   4.055   3.099  0.00  0.00    -0.299 N 
ATOM     19  C   UNL     1       5.329   4.407   1.711  0.00  0.00    +0.089 C 
ATOM     20  C   UNL     1       4.048   4.846   0.994  0.00  0.00    -0.058 C 
ATOM     21  C   UNL     1       5.676   4.580   4.133  0.00  0.00    +0.282 C 
ATOM     22  O   UNL     1       6.510   5.444   3.934  0.00  0.00    -0.267 OA
ATOM     23  N   UNL     1       3.038   3.774   1.126  0.00  0.00    +0.391 N 
ATOM     24  H   UNL     1       3.440   2.894   0.782  0.00  0.00    -0.080 HD
BRANCH  21  25
ATOM     25  C   UNL     1       5.418   4.110   5.498  0.00  0.00    +0.189 A 
ATOM     26  C   UNL     1       5.941   4.643   6.642  0.00  0.00    +0.054 A 
ATOM     27  C   UNL     1       5.429   3.887   7.709  0.00  0.00    +0.042 A 
ATOM     28  C   UNL     1       4.627   2.939   7.176  0.00  0.00    +0.196 A 
ATOM     29  O   UNL     1       4.619   3.080   5.844  0.00  0.00    -0.458 OA
ENDBRANCH  21  25
ENDBRANCH   1  23
BRANCH   1  30
ATOM     30  C   UNL     1       0.814   3.019   0.506  0.00  0.00    +0.143 A 
ATOM     31  N   UNL     1       1.031   1.726   0.503  0.00  0.00    -0.115 NA
ATOM     32  N   UNL     1      -0.098   1.133   0.691  0.00  0.00    -0.023 NA
ATOM     33  N   UNL     1      -1.028   2.014   0.813  0.00  0.00    -0.044 NA
ATOM     34  N   UNL     1      -0.506   3.189   0.705  0.00  0.00    -0.227 N 
BRANCH  34  35
ATOM     35  C   UNL     1      -1.217   4.468   0.779  0.00  0.00    +0.111 C 
ATOM     36  C   UNL     1      -1.901   4.593   2.142  0.00  0.00    +0.027 C 
ATOM     37  C   UNL     1      -2.643   5.928   2.219  0.00  0.00    +0.002 C 
ATOM     38  C   UNL     1      -3.697   5.991   1.112  0.00  0.00    +0.000 C 
ATOM     39  C   UNL     1      -3.014   5.865  -0.251  0.00  0.00    +0.002 C 
ATOM     40  C   UNL     1      -2.271   4.530  -0.328  0.00  0.00    +0.027 C 
ENDBRANCH  34  35
ENDBRANCH   1  30
TORSDOF 5
