REMARK  Name = ZINC02403214
REMARK  12 active torsions:
REMARK  status: ('A' for Active; 'I' for Inactive)
REMARK    1  A    between atoms: C_1  and  C_2
REMARK    2  A    between atoms: C_2  and  O_3
REMARK    3  A    between atoms: O_3  and  C_4
REMARK    4  A    between atoms: C_9  and  O_10
REMARK    5  A    between atoms: O_10  and  C_11
REMARK    6  A    between atoms: C_12  and  C_33
REMARK    7  A    between atoms: C_20  and  O_32
REMARK    8  A    between atoms: C_21  and  C_22
REMARK    9  A    between atoms: C_22  and  N_23
REMARK   10  A    between atoms: N_23  and  C_24
REMARK   11  A    between atoms: N_23  and  C_25
REMARK   12  A    between atoms: C_25  and  C_26
REMARK                            x       y       z     vdW  Elec       q    Type
REMARK                         _______ _______ _______ _____ _____    ______ ____
ROOT
ATOM      1  C   UNL     1       2.695  -2.005   4.414  0.00  0.00    +0.213 A 
ATOM      2  C   UNL     1       2.896  -3.330   4.557  0.00  0.00    +0.148 A 
ATOM      3  O   UNL     1       3.568  -3.853   5.591  0.00  0.00    -0.456 OA
ATOM      4  C   UNL     1       4.096  -3.091   6.570  0.00  0.00    +0.144 A 
ATOM      5  C   UNL     1       3.948  -1.693   6.524  0.00  0.00    +0.068 A 
ATOM      6  C   UNL     1       3.215  -1.106   5.389  0.00  0.00    +0.235 A 
ATOM      7  O   UNL     1       3.057   0.099   5.290  0.00  0.00    -0.283 OA
ATOM      8  C   UNL     1       4.490  -0.894   7.531  0.00  0.00    +0.019 A 
ATOM      9  C   UNL     1       5.169  -1.475   8.565  0.00  0.00    +0.046 A 
ATOM     10  C   UNL     1       5.321  -2.859   8.618  0.00  0.00    +0.122 A 
ATOM     11  C   UNL     1       4.788  -3.666   7.627  0.00  0.00    +0.020 A 
ATOM     12  C   UNL     1       2.341  -4.261   3.510  0.00  0.00    +0.090 C 
ENDROOT
BRANCH  10  13
ATOM     13  O   UNL     1       5.998  -3.422   9.652  0.00  0.00    -0.506 OA
ATOM     14  H   UNL     1       5.441  -3.650  10.409  0.00  0.00    +0.292 HD
ENDBRANCH  10  13
BRANCH   1  15
ATOM     15  O   UNL     1       2.004  -1.528   3.342  0.00  0.00    -0.445 OA
BRANCH  15  21
ATOM     16  C   UNL     1       0.111  -0.334   2.524  0.00  0.00    +0.163 A 
ATOM     17  C   UNL     1      -1.121   0.256   2.759  0.00  0.00    +0.049 A 
ATOM     18  C   UNL     1      -1.663   0.241   4.031  0.00  0.00    +0.004 A 
ATOM     19  C   UNL     1      -0.978  -0.360   5.070  0.00  0.00    +0.004 A 
ATOM     20  C   UNL     1       0.251  -0.950   4.843  0.00  0.00    +0.050 A 
ATOM     21  C   UNL     1       0.798  -0.944   3.569  0.00  0.00    +0.170 A 
BRANCH  16  22
ATOM     22  O   UNL     1       0.645  -0.321   1.273  0.00  0.00    -0.489 OA
BRANCH  22  24
ATOM     23  C   UNL     1       0.640   0.238  -1.078  0.00  0.00    +0.048 C 
ATOM     24  C   UNL     1      -0.116   0.324   0.249  0.00  0.00    +0.226 C 
ENDBRANCH  22  24
ENDBRANCH  16  22
ENDBRANCH  15  21
ENDBRANCH   1  15
BRANCH  11  25
ATOM     25  C   UNL     1       4.958  -5.161   7.696  0.00  0.00    -0.035 C 
BRANCH  25  26
ATOM     26  N   UNL     1       6.194  -5.546   7.001  0.00  0.00    +0.383 N 
ATOM     27  C   UNL     1       7.351  -4.989   7.716  0.00  0.00    -0.095 C 
ATOM     28  H   UNL     1       6.176  -5.186   6.059  0.00  0.00    -0.081 HD
BRANCH  26  29
ATOM     29  C   UNL     1       6.300  -7.010   6.963  0.00  0.00    -0.043 C 
BRANCH  29  30
ATOM     30  C   UNL     1       7.502  -7.407   6.146  0.00  0.00    -0.064 A 
ATOM     31  C   UNL     1       7.376  -7.607   4.784  0.00  0.00    +0.002 A 
ATOM     32  C   UNL     1       8.479  -7.970   4.034  0.00  0.00    +0.000 A 
ATOM     33  C   UNL     1       9.708  -8.133   4.646  0.00  0.00    +0.000 A 
ATOM     34  C   UNL     1       9.834  -7.933   6.007  0.00  0.00    +0.000 A 
ATOM     35  C   UNL     1       8.732  -7.565   6.757  0.00  0.00    +0.002 A 
ENDBRANCH  29  30
ENDBRANCH  26  29
ENDBRANCH  25  26
ENDBRANCH  11  25
TORSDOF 9
