REMARK  Name = ZINC09191304
REMARK  12 active torsions:
REMARK  status: ('A' for Active; 'I' for Inactive)
REMARK    1  A    between atoms: C_1  and  C_2
REMARK    2  A    between atoms: C_2  and  C_3
REMARK    3  A    between atoms: C_2  and  C_4
REMARK    4  A    between atoms: C_4  and  N_5
REMARK    5  A    between atoms: C_6  and  C_8
REMARK    6  A    between atoms: C_13  and  N_14
REMARK    7  A    between atoms: C_15  and  C_17
REMARK    8  A    between atoms: C_17  and  N_18
REMARK    9  A    between atoms: N_18  and  C_19
REMARK   10  A    between atoms: N_18  and  S_28
REMARK   11  A    between atoms: C_22  and  N_25
REMARK   12  A    between atoms: S_28  and  C_31
REMARK                            x       y       z     vdW  Elec       q    Type
REMARK                         _______ _______ _______ _____ _____    ______ ____
ROOT
ATOM      1  C   UNL     1       1.230   2.242  -0.421  0.00  0.00    +0.227 C 
ENDROOT
BRANCH   1   3
ATOM      2  N   UNL     1      -1.177   2.353  -0.976  0.00  0.00    -0.283 N 
ATOM      3  C   UNL     1      -0.105   1.593  -0.677  0.00  0.00    +0.236 C 
ATOM      4  O   UNL     1      -0.214   0.387  -0.618  0.00  0.00    -0.274 OA
ATOM      5  H   UNL     1      -1.110   3.320  -0.946  0.00  0.00    +0.155 HD
BRANCH   2  11
ATOM      6  C   UNL     1      -3.594   2.428  -1.130  0.00  0.00    +0.058 A 
ATOM      7  C   UNL     1      -4.796   1.811  -1.488  0.00  0.00    +0.015 A 
ATOM      8  C   UNL     1      -4.784   0.545  -2.030  0.00  0.00    +0.001 A 
ATOM      9  C   UNL     1      -3.585  -0.122  -2.224  0.00  0.00    +0.002 A 
ATOM     10  C   UNL     1      -2.389   0.476  -1.881  0.00  0.00    +0.024 A 
ATOM     11  C   UNL     1      -2.382   1.749  -1.328  0.00  0.00    +0.046 A 
BRANCH   6  13
ATOM     12  N   UNL     1      -4.769   4.391  -0.268  0.00  0.00    -0.311 N 
ATOM     13  C   UNL     1      -3.600   3.783  -0.549  0.00  0.00    +0.246 C 
ATOM     14  O   UNL     1      -2.549   4.352  -0.324  0.00  0.00    -0.270 OA
ATOM     15  H   UNL     1      -5.608   3.938  -0.448  0.00  0.00    +0.149 HD
BRANCH  12  16
ATOM     16  C   UNL     1      -4.775   5.738   0.309  0.00  0.00    +0.107 C 
BRANCH  16  18
ATOM     17  C   UNL     1      -6.881   5.299   1.580  0.00  0.00    +0.009 C 
ATOM     18  C   UNL     1      -6.219   6.193   0.528  0.00  0.00    -0.000 C 
ATOM     19  C   UNL     1      -6.229   7.644   1.014  0.00  0.00    +0.009 C 
ENDBRANCH  16  18
ENDBRANCH  12  16
ENDBRANCH   6  13
ENDBRANCH   2  11
ENDBRANCH   1   3
BRANCH   1  20
ATOM     20  N   UNL     1       2.227   1.209  -0.126  0.00  0.00    -0.194 N 
BRANCH  20  21
ATOM     21  C   UNL     1       2.364   0.723   1.177  0.00  0.00    +0.052 A 
ATOM     22  C   UNL     1       3.576   0.189   1.596  0.00  0.00    +0.027 A 
ATOM     23  C   UNL     1       3.710  -0.285   2.886  0.00  0.00    +0.034 A 
ATOM     24  C   UNL     1       2.636  -0.240   3.756  0.00  0.00    +0.126 A 
ATOM     25  C   UNL     1       1.426   0.285   3.340  0.00  0.00    +0.034 A 
ATOM     26  C   UNL     1       1.287   0.767   2.053  0.00  0.00    +0.027 A 
BRANCH  24  27
ATOM     27  N   UNL     1       2.781  -0.755   5.136  0.00  0.00    +0.056 N 
ATOM     28  O   UNL     1       1.836  -0.716   5.904  0.00  0.00    -0.126 OA
ATOM     29  O   UNL     1       3.846  -1.218   5.504  0.00  0.00    -0.126 OA
ENDBRANCH  24  27
ENDBRANCH  20  21
BRANCH  20  30
ATOM     30  S   UNL     1       3.190   0.619  -1.336  0.00  0.00    +0.075 S 
ATOM     31  O   UNL     1       3.670  -0.644  -0.893  0.00  0.00    -0.150 OA
ATOM     32  O   UNL     1       2.463   0.775  -2.547  0.00  0.00    -0.150 OA
BRANCH  30  33
ATOM     33  C   UNL     1       4.593   1.679  -1.450  0.00  0.00    +0.109 A 
ATOM     34  C   UNL     1       4.528   2.831  -2.210  0.00  0.00    +0.029 A 
ATOM     35  C   UNL     1       5.627   3.666  -2.295  0.00  0.00    +0.002 A 
ATOM     36  C   UNL     1       6.794   3.342  -1.628  0.00  0.00    +0.000 A 
ATOM     37  C   UNL     1       6.860   2.187  -0.872  0.00  0.00    +0.002 A 
ATOM     38  C   UNL     1       5.760   1.355  -0.783  0.00  0.00    +0.029 A 
ENDBRANCH  30  33
ENDBRANCH  20  30
ENDBRANCH   1  20
TORSDOF 10
