REMARK  Name = ZINC14015438
REMARK  6 active torsions:
REMARK  status: ('A' for Active; 'I' for Inactive)
REMARK    1  A    between atoms: C_1  and  C_2
REMARK    2  A    between atoms: C_5  and  N_8
REMARK    3  A    between atoms: C_20  and  C_22
REMARK    4  A    between atoms: C_22  and  C_23
REMARK    5  A    between atoms: N_25  and  C_26
REMARK    6  A    between atoms: C_31  and  C_32
REMARK                            x       y       z     vdW  Elec       q    Type
REMARK                         _______ _______ _______ _____ _____    ______ ____
ROOT
ATOM      1  N   UNL     1      -4.917  -3.635  -6.001  0.00  0.00    -0.214 N 
ATOM      2  C   UNL     1      -3.809  -2.876  -6.221  0.00  0.00    +0.171 A 
ATOM      3  C   UNL     1      -3.019  -2.964  -5.062  0.00  0.00    +0.103 A 
ATOM      4  C   UNL     1      -3.708  -3.802  -4.159  0.00  0.00    +0.150 A 
ATOM      5  N   UNL     1      -4.819  -4.190  -4.719  0.00  0.00    -0.172 NA
ATOM      6  C   UNL     1      -1.796  -2.263  -5.017  0.00  0.00    +0.266 A 
ATOM      7  O   UNL     1      -1.094  -2.324  -4.023  0.00  0.00    -0.267 OA
ATOM      8  N   UNL     1      -1.398  -1.512  -6.095  0.00  0.00    -0.283 N 
ATOM      9  C   UNL     1      -2.227  -1.484  -7.179  0.00  0.00    +0.174 A 
ATOM     10  N   UNL     1      -3.370  -2.130  -7.239  0.00  0.00    -0.203 NA
ATOM     11  S   UNL     1      -1.448  -0.442  -8.395  0.00  0.00    -0.085 S 
ATOM     12  C   UNL     1       0.066   0.011  -7.470  0.00  0.00    +0.103 C 
ATOM     13  C   UNL     1      -0.152  -0.748  -6.154  0.00  0.00    +0.112 C 
ENDROOT
BRANCH   1  18
ATOM     14  C   UNL     1      -9.196  -4.414  -9.645  0.00  0.00    +0.044 C 
ATOM     15  C   UNL     1      -8.059  -4.207  -8.678  0.00  0.00    -0.050 A 
ATOM     16  C   UNL     1      -7.667  -5.239  -7.844  0.00  0.00    +0.005 A 
ATOM     17  C   UNL     1      -6.626  -5.052  -6.956  0.00  0.00    +0.028 A 
ATOM     18  C   UNL     1      -5.973  -3.828  -6.901  0.00  0.00    +0.068 A 
ATOM     19  C   UNL     1      -6.373  -2.792  -7.735  0.00  0.00    +0.028 A 
ATOM     20  C   UNL     1      -7.411  -2.987  -8.626  0.00  0.00    +0.005 A 
ENDBRANCH   1  18
BRANCH  13  21
ATOM     21  C   UNL     1      -0.148   0.262  -5.005  0.00  0.00    +0.122 C 
BRANCH  21  22
ATOM     22  C   UNL     1       1.190   0.954  -4.949  0.00  0.00    +0.219 C 
ATOM     23  O   UNL     1       2.024   0.731  -5.802  0.00  0.00    -0.275 OA
ATOM     24  N   UNL     1       1.460   1.819  -3.952  0.00  0.00    -0.285 N 
ATOM     25  H   UNL     1       0.826   1.938  -3.228  0.00  0.00    +0.155 HD
BRANCH  24  26
ATOM     26  C   UNL     1       2.656   2.547  -3.962  0.00  0.00    +0.036 A 
ATOM     27  C   UNL     1       3.312   2.792  -5.162  0.00  0.00    +0.024 A 
ATOM     28  C   UNL     1       4.495   3.504  -5.168  0.00  0.00    +0.017 A 
ATOM     29  C   UNL     1       5.023   3.980  -3.981  0.00  0.00    +0.018 A 
ATOM     30  C   UNL     1       4.369   3.743  -2.785  0.00  0.00    +0.020 A 
ATOM     31  C   UNL     1       3.186   3.030  -2.773  0.00  0.00    -0.028 A 
ATOM     32  C   UNL     1       2.474   2.772  -1.470  0.00  0.00    +0.046 C 
ATOM     33 BR   UNL     1       6.643   4.955  -3.993  0.00  0.00    -0.050 Br
ENDBRANCH  24  26
ENDBRANCH  21  22
ENDBRANCH  13  21
TORSDOF 4
