REMARK  Name = ZINC34787140
REMARK  5 active torsions:
REMARK  status: ('A' for Active; 'I' for Inactive)
REMARK    1  A    between atoms: C_4  and  C_7
REMARK    2  A    between atoms: N_16  and  C_17
REMARK    3  A    between atoms: C_17  and  C_18
REMARK    4  A    between atoms: C_26  and  C_28
REMARK    5  A    between atoms: C_31  and  C_34
REMARK                            x       y       z     vdW  Elec       q    Type
REMARK                         _______ _______ _______ _____ _____    ______ ____
ROOT
ATOM      1  C   UNL     1       4.298  -3.015   3.776  0.00  0.00    +0.199 C 
ATOM      2  O   UNL     1       4.285  -4.137   3.314  0.00  0.00    -0.278 OA
ATOM      3  N   UNL     1       3.790  -2.785   5.003  0.00  0.00    -0.300 N 
ATOM      4  C   UNL     1       3.793  -1.430   5.572  0.00  0.00    +0.126 C 
ATOM      5  C   UNL     1       2.358  -1.060   5.966  0.00  0.00    +0.127 C 
ATOM      6  N   UNL     1       1.790  -2.160   6.758  0.00  0.00    -0.295 N 
ATOM      7  C   UNL     1       1.787  -3.515   6.189  0.00  0.00    +0.127 C 
ATOM      8  C   UNL     1       3.217  -3.884   5.793  0.00  0.00    +0.126 C 
ATOM      9  C   UNL     1       1.282  -1.930   7.985  0.00  0.00    +0.247 C 
ATOM     10  O   UNL     1       0.753  -2.834   8.603  0.00  0.00    -0.270 OA
ENDROOT
BRANCH   9  11
ATOM     11  C   UNL     1       1.368  -0.580   8.580  0.00  0.00    +0.037 A 
ATOM     12  C   UNL     1       0.931   0.533   7.859  0.00  0.00    +0.013 A 
ATOM     13  C   UNL     1       1.014   1.790   8.420  0.00  0.00    +0.013 A 
ATOM     14  C   UNL     1       1.529   1.951   9.694  0.00  0.00    +0.055 A 
ATOM     15  C   UNL     1       1.965   0.852  10.414  0.00  0.00    +0.013 A 
ATOM     16  C   UNL     1       1.882  -0.412   9.867  0.00  0.00    +0.013 A 
BRANCH  14  17
ATOM     17  C   UNL     1       1.617   3.328  10.300  0.00  0.00    +0.417 C 
ATOM     18  F   UNL     1       0.436   3.607  10.995  0.00  0.00    -0.166 F 
ATOM     19  F   UNL     1       2.701   3.380  11.183  0.00  0.00    -0.166 F 
ATOM     20  F   UNL     1       1.796   4.273   9.285  0.00  0.00    -0.166 F 
ENDBRANCH  14  17
ENDBRANCH   9  11
BRANCH   1  21
ATOM     21  C   UNL     1       4.882  -1.878   2.977  0.00  0.00    +0.020 C 
BRANCH  21  30
ATOM     22  C   UNL     1       5.822  -1.257   0.865  0.00  0.00    -0.005 C 
ATOM     23  C   UNL     1       6.416  -1.799  -0.431  0.00  0.00    -0.047 A 
ATOM     24  C   UNL     1       6.588  -1.041  -1.587  0.00  0.00    +0.010 A 
ATOM     25  C   UNL     1       7.122  -1.607  -2.695  0.00  0.00    +0.045 A 
ATOM     26  S   UNL     1       7.418  -3.282  -2.147  0.00  0.00    -0.101 S 
ATOM     27  C   UNL     1       6.812  -3.102  -0.494  0.00  0.00    -0.010 A 
ATOM     28  C   UNL     1       6.735  -4.106   0.609  0.00  0.00    +0.024 C 
ATOM     29  C   UNL     1       6.457  -3.340   1.915  0.00  0.00    -0.072 C 
ATOM     30  N   UNL     1       5.364  -2.385   1.685  0.00  0.00    +0.393 N 
ATOM     31  H   UNL     1       4.608  -2.855   1.211  0.00  0.00    -0.080 HD
BRANCH  22  35
ATOM     32  C   UNL     1       2.517   1.296  -0.034  0.00  0.00    +0.000 A 
ATOM     33  C   UNL     1       3.750   1.842   0.268  0.00  0.00    +0.000 A 
ATOM     34  C   UNL     1       4.819   1.016   0.559  0.00  0.00    +0.002 A 
ATOM     35  C   UNL     1       4.656  -0.356   0.548  0.00  0.00    -0.057 A 
ATOM     36  C   UNL     1       3.422  -0.903   0.247  0.00  0.00    +0.002 A 
ATOM     37  C   UNL     1       2.353  -0.077  -0.046  0.00  0.00    +0.000 A 
ENDBRANCH  22  35
ENDBRANCH  21  30
ENDBRANCH   1  21
TORSDOF 5
