REMARK  Name = ZINC20343603
REMARK  3 active torsions:
REMARK  status: ('A' for Active; 'I' for Inactive)
REMARK    1  A    between atoms: C_1  and  C_2
REMARK    2  A    between atoms: C_6  and  N_9
REMARK    3  A    between atoms: C_12  and  C_14
REMARK                            x       y       z     vdW  Elec       q    Type
REMARK                         _______ _______ _______ _____ _____    ______ ____
ROOT
ATOM      1  C   UNL     1       4.364  -0.435  -0.042  0.00  0.00    +0.049 C 
ATOM      2  C   UNL     1       3.472   0.779  -0.027  0.00  0.00    +0.010 A 
ATOM      3  C   UNL     1       2.094   0.626  -0.015  0.00  0.00    +0.161 A 
ATOM      4  C   UNL     1       1.264   1.759  -0.001  0.00  0.00    +0.126 A 
ATOM      5  C   UNL     1       1.833   3.035   0.001  0.00  0.00    +0.069 A 
ATOM      6  C   UNL     1       3.210   3.171  -0.012  0.00  0.00    +0.055 A 
ATOM      7  C   UNL     1       4.027   2.042  -0.026  0.00  0.00    +0.046 A 
ATOM      8 BR   UNL     1       5.907   2.243  -0.043  0.00  0.00    -0.048 Br
ATOM      9 BR   UNL     1       0.727   4.569   0.019  0.00  0.00    -0.046 Br
ATOM     10  N   UNL     1      -0.016   1.304   0.009  0.00  0.00    -0.208 NA
ATOM     11  C   UNL     1       0.002  -0.004   0.002  0.00  0.00    +0.230 A 
ATOM     12  O   UNL     1       1.273  -0.448  -0.013  0.00  0.00    -0.435 OA
ENDROOT
BRANCH  11  13
ATOM     13  C   UNL     1      -1.197  -0.868   0.010  0.00  0.00    +0.055 A 
ATOM     14  C   UNL     1      -2.479  -0.305   0.031  0.00  0.00    +0.016 A 
ATOM     15  C   UNL     1      -3.569  -1.158   0.032  0.00  0.00    +0.020 A 
ATOM     16  C   UNL     1      -3.360  -2.525   0.023  0.00  0.00    +0.111 A 
ATOM     17  N   UNL     1      -2.140  -3.027   0.008  0.00  0.00    -0.263 NA
ATOM     18  C   UNL     1      -1.071  -2.257   0.001  0.00  0.00    +0.123 A 
ENDBRANCH  11  13
BRANCH   6  19
ATOM     19  N   UNL     1       3.784   4.448  -0.011  0.00  0.00    -0.356 N 
ATOM     20  H   UNL     1       4.879   4.558  -0.022  0.00  0.00    +0.142 HD
ATOM     21  H   UNL     1       3.142   5.340  -0.000  0.00  0.00    +0.142 HD
ENDBRANCH   6  19
TORSDOF 2
