REMARK  Name = ZINC09218392
REMARK  7 active torsions:
REMARK  status: ('A' for Active; 'I' for Inactive)
REMARK    1  A    between atoms: C_4  and  N_20
REMARK    2  A    between atoms: C_5  and  C_7
REMARK    3  A    between atoms: N_9  and  C_10
REMARK    4  A    between atoms: C_10  and  C_11
REMARK    5  A    between atoms: N_20  and  S_21
REMARK    6  A    between atoms: S_21  and  C_24
REMARK    7  A    between atoms: C_28  and  C_30
REMARK                            x       y       z     vdW  Elec       q    Type
REMARK                         _______ _______ _______ _____ _____    ______ ____
ROOT
ATOM      1  C   UNL     1      -3.221   4.997  -4.046  0.00  0.00    +0.001 A 
ATOM      2  C   UNL     1      -3.467   5.357  -2.730  0.00  0.00    +0.002 A 
ATOM      3  C   UNL     1      -2.427   5.721  -1.899  0.00  0.00    +0.025 A 
ATOM      4  C   UNL     1      -1.124   5.739  -2.381  0.00  0.00    +0.060 A 
ATOM      5  C   UNL     1      -0.872   5.374  -3.713  0.00  0.00    +0.059 A 
ATOM      6  C   UNL     1      -1.935   5.003  -4.540  0.00  0.00    +0.015 A 
ENDROOT
BRANCH   5   7
ATOM      7  C   UNL     1       0.507   5.381  -4.235  0.00  0.00    +0.246 C 
ATOM      8  O   UNL     1       1.429   5.705  -3.512  0.00  0.00    -0.270 OA
ATOM      9  N   UNL     1       0.745   5.030  -5.514  0.00  0.00    -0.307 N 
ATOM     10  H   UNL     1       0.009   4.773  -6.091  0.00  0.00    +0.149 HD
BRANCH   9  11
ATOM     11  C   UNL     1       2.115   5.038  -6.034  0.00  0.00    +0.140 C 
BRANCH  11  12
ATOM     12  C   UNL     1       2.107   4.609  -7.478  0.00  0.00    -0.027 A 
ATOM     13  C   UNL     1       2.243   3.272  -7.801  0.00  0.00    +0.009 A 
ATOM     14  C   UNL     1       2.231   2.873  -9.125  0.00  0.00    +0.050 A 
ATOM     15  C   UNL     1       2.094   3.814 -10.132  0.00  0.00    +0.166 A 
ATOM     16  C   UNL     1       1.961   5.162  -9.806  0.00  0.00    +0.167 A 
ATOM     17  C   UNL     1       1.968   5.554  -8.478  0.00  0.00    +0.054 A 
ATOM     18  O   UNL     1       1.842   5.880 -10.961  0.00  0.00    -0.453 OA
ATOM     19  C   UNL     1       2.312   5.008 -12.006  0.00  0.00    +0.466 C 
ATOM     20  O   UNL     1       2.057   3.688 -11.490  0.00  0.00    -0.453 OA
ENDBRANCH  11  12
ENDBRANCH   9  11
ENDBRANCH   5   7
BRANCH   4  21
ATOM     21  N   UNL     1      -0.077   6.109  -1.548  0.00  0.00    -0.216 N 
ATOM     22  H   UNL     1       0.673   6.610  -1.906  0.00  0.00    +0.174 HD
BRANCH  21  23
ATOM     23  S   UNL     1      -0.108   5.696   0.055  0.00  0.00    +0.072 S 
ATOM     24  O   UNL     1      -1.346   6.164   0.571  0.00  0.00    -0.150 OA
ATOM     25  O   UNL     1       1.143   6.093   0.601  0.00  0.00    -0.150 OA
BRANCH  23  26
ATOM     26  C   UNL     1      -0.159   3.937   0.139  0.00  0.00    +0.110 A 
ATOM     27  C   UNL     1       1.020   3.213   0.186  0.00  0.00    +0.029 A 
ATOM     28  C   UNL     1       0.989   1.832   0.252  0.00  0.00    +0.003 A 
ATOM     29  C   UNL     1      -0.219   1.166   0.270  0.00  0.00    +0.019 A 
ATOM     30  C   UNL     1      -1.412   1.889   0.217  0.00  0.00    +0.054 A 
ATOM     31  C   UNL     1      -1.374   3.284   0.157  0.00  0.00    +0.047 A 
BRANCH  30  32
ATOM     32  C   UNL     1      -2.670   1.204   0.229  0.00  0.00    +0.099 C 
ATOM     33  N   UNL     1      -3.667   0.661   0.239  0.00  0.00    -0.191 NA
ENDBRANCH  30  32
ENDBRANCH  23  26
ENDBRANCH  21  23
ENDBRANCH   4  21
TORSDOF 7
