REMARK  Name = ZINC45795122
REMARK  9 active torsions:
REMARK  status: ('A' for Active; 'I' for Inactive)
REMARK    1  A    between atoms: C_1  and  C_2
REMARK    2  A    between atoms: C_5  and  C_9
REMARK    3  A    between atoms: C_11  and  C_14
REMARK    4  A    between atoms: C_14  and  C_16
REMARK    5  A    between atoms: C_14  and  S_17
REMARK    6  A    between atoms: S_17  and  C_18
REMARK    7  A    between atoms: C_21  and  C_30
REMARK    8  A    between atoms: N_22  and  C_23
REMARK    9  A    between atoms: C_30  and  N_31
REMARK                            x       y       z     vdW  Elec       q    Type
REMARK                         _______ _______ _______ _____ _____    ______ ____
ROOT
ATOM      1  C   UNL     1       1.337  -9.928   2.313  0.00  0.00    +0.197 A 
ATOM      2  N   UNL     1       0.602  -9.940   3.400  0.00  0.00    -0.122 NA
ATOM      3  N   UNL     1       0.862 -10.991   4.093  0.00  0.00    -0.135 NA
ATOM      4  C   UNL     1       1.771 -11.708   3.496  0.00  0.00    +0.122 A 
ATOM      5  N   UNL     1       2.104 -11.060   2.336  0.00  0.00    -0.276 N 
ENDROOT
BRANCH   5   6
ATOM      6  C   UNL     1       3.040 -11.470   1.375  0.00  0.00    +0.050 A 
ATOM      7  C   UNL     1       2.819 -12.626   0.639  0.00  0.00    +0.029 A 
ATOM      8  C   UNL     1       3.741 -13.028  -0.308  0.00  0.00    +0.040 A 
ATOM      9  C   UNL     1       4.885 -12.279  -0.523  0.00  0.00    +0.124 A 
ATOM     10  C   UNL     1       5.107 -11.125   0.210  0.00  0.00    +0.040 A 
ATOM     11  C   UNL     1       4.185 -10.717   1.154  0.00  0.00    +0.029 A 
ATOM     12  F   UNL     1       5.786 -12.674  -1.449  0.00  0.00    -0.205 F 
ENDBRANCH   5   6
BRANCH   1  13
ATOM     13  S   UNL     1       1.331  -8.692   1.057  0.00  0.00    -0.073 S 
BRANCH  13  14
ATOM     14  C   UNL     1       0.105  -7.486   1.635  0.00  0.00    +0.140 C 
ATOM     15  C   UNL     1      -1.279  -8.136   1.657  0.00  0.00    +0.029 C 
BRANCH  14  18
ATOM     16  C   UNL     1       0.061  -4.258  -0.024  0.00  0.00    +0.202 A 
ATOM     17  N   UNL     1       0.071  -5.050   1.063  0.00  0.00    -0.190 NA
ATOM     18  C   UNL     1       0.088  -6.301   0.703  0.00  0.00    +0.241 A 
ATOM     19  O   UNL     1       0.089  -6.358  -0.635  0.00  0.00    -0.337 OA
ATOM     20  N   UNL     1       0.065  -5.015  -1.093  0.00  0.00    -0.056 NA
BRANCH  16  25
ATOM     21  C   UNL     1      -0.018   1.503   0.010  0.00  0.00    +0.047 C 
ATOM     22  C   UNL     1       0.002  -0.004   0.002  0.00  0.00    -0.015 A 
ATOM     23  C   UNL     1       0.006  -0.687  -1.201  0.00  0.00    +0.007 A 
ATOM     24  C   UNL     1       0.025  -2.067  -1.215  0.00  0.00    +0.012 A 
ATOM     25  C   UNL     1       0.041  -2.774  -0.014  0.00  0.00    +0.025 A 
ATOM     26  C   UNL     1       0.037  -2.083   1.196  0.00  0.00    +0.050 A 
ATOM     27  C   UNL     1       0.023  -0.701   1.199  0.00  0.00    +0.127 A 
ATOM     28  F   UNL     1       0.025  -0.029   2.371  0.00  0.00    -0.205 F 
ENDBRANCH  16  25
ENDBRANCH  14  18
ENDBRANCH  13  14
ENDBRANCH   1  13
BRANCH   4  29
ATOM     29  C   UNL     1       2.346 -13.012   3.988  0.00  0.00    -0.001 C 
BRANCH  29  30
ATOM     30  N   UNL     1       1.542 -14.127   3.470  0.00  0.00    +0.384 N 
ATOM     31  C   UNL     1       0.188 -14.054   4.030  0.00  0.00    -0.078 C 
ATOM     32  C   UNL     1      -0.676 -15.166   3.431  0.00  0.00    -0.019 C 
ATOM     33  C   UNL     1      -0.055 -16.525   3.768  0.00  0.00    -0.004 C 
ATOM     34  C   UNL     1       1.383 -16.562   3.243  0.00  0.00    -0.019 C 
ATOM     35  C   UNL     1       2.171 -15.398   3.849  0.00  0.00    -0.078 C 
ATOM     36  H   UNL     1       1.492 -14.065   2.464  0.00  0.00    -0.081 HD
ENDBRANCH  29  30
ENDBRANCH   4  29
TORSDOF 7
