REMARK  Name = ZINC39443466
REMARK  6 active torsions:
REMARK  status: ('A' for Active; 'I' for Inactive)
REMARK    1  A    between atoms: C_1  and  C_2
REMARK    2  A    between atoms: C_2  and  C_4
REMARK    3  A    between atoms: C_2  and  N_17
REMARK    4  A    between atoms: N_20  and  C_23
REMARK    5  A    between atoms: C_23  and  C_24
REMARK    6  A    between atoms: C_23  and  C_31
REMARK                            x       y       z     vdW  Elec       q    Type
REMARK                         _______ _______ _______ _____ _____    ______ ____
ROOT
ATOM      1  N   UNL     1       0.258  -0.879   1.104  0.00  0.00    +0.389 N 
ATOM      2  C   UNL     1      -0.214  -2.218   0.727  0.00  0.00    -0.062 C 
ATOM      3  C   UNL     1       0.035  -3.191   1.881  0.00  0.00    +0.067 C 
ATOM      4  N   UNL     1      -0.678  -2.720   3.077  0.00  0.00    -0.295 NA
ATOM      5  C   UNL     1      -0.234  -1.371   3.452  0.00  0.00    +0.067 C 
ATOM      6  C   UNL     1      -0.481  -0.413   2.284  0.00  0.00    -0.062 C 
ATOM      7  H   UNL     1       1.243  -0.918   1.317  0.00  0.00    -0.081 HD
ENDROOT
BRANCH   1   9
ATOM      8  C   UNL     1       0.550   1.439   0.371  0.00  0.00    -0.004 C 
ATOM      9  C   UNL     1       0.035   0.050  -0.012  0.00  0.00    +0.017 C 
BRANCH   9  10
ATOM     10  C   UNL     1       0.774  -0.441  -1.230  0.00  0.00    +0.203 C 
ATOM     11  O   UNL     1       1.781  -1.105  -1.102  0.00  0.00    -0.277 OA
ATOM     12  N   UNL     1       0.317  -0.142  -2.462  0.00  0.00    -0.287 N 
ATOM     13  C   UNL     1       1.109   0.452  -3.333  0.00  0.00    +0.035 C 
ATOM     14  C   UNL     1       2.448   0.896  -2.925  0.00  0.00    +0.025 C 
ATOM     15  C   UNL     1       3.263   1.503  -3.810  0.00  0.00    +0.032 C 
ATOM     16  C   UNL     1       2.817   1.724  -5.189  0.00  0.00    +0.095 C 
ATOM     17  N   UNL     1       3.365   2.272  -6.256  0.00  0.00    -0.190 NA
ATOM     18  C   UNL     1       2.498   2.211  -7.281  0.00  0.00    +0.369 C 
ATOM     19  O   UNL     1       2.751   2.686  -8.523  0.00  0.00    -0.243 OA
ATOM     20  N   UNL     1       1.375   1.631  -6.926  0.00  0.00    -0.190 NA
ATOM     21  C   UNL     1       1.474   1.282  -5.611  0.00  0.00    +0.097 C 
ATOM     22  C   UNL     1       0.652   0.665  -4.723  0.00  0.00    +0.053 C 
ATOM     23  H   UNL     1      -0.595  -0.363  -2.708  0.00  0.00    +0.155 HD
ENDBRANCH   9  10
ENDBRANCH   1   9
BRANCH   4  24
ATOM     24  C   UNL     1      -0.510  -3.659   4.194  0.00  0.00    +0.117 C 
BRANCH  24  25
ATOM     25  C   UNL     1      -1.254  -3.144   5.400  0.00  0.00    -0.026 A 
ATOM     26  C   UNL     1      -2.498  -2.561   5.247  0.00  0.00    +0.008 A 
ATOM     27  C   UNL     1      -3.181  -2.089   6.351  0.00  0.00    +0.038 A 
ATOM     28  C   UNL     1      -2.618  -2.200   7.612  0.00  0.00    +0.123 A 
ATOM     29  C   UNL     1      -1.372  -2.783   7.764  0.00  0.00    +0.038 A 
ATOM     30  C   UNL     1      -0.693  -3.260   6.658  0.00  0.00    +0.008 A 
ATOM     31  F   UNL     1      -3.285  -1.738   8.693  0.00  0.00    -0.205 F 
ENDBRANCH  24  25
BRANCH  24  32
ATOM     32  C   UNL     1      -1.059  -5.008   3.804  0.00  0.00    -0.026 A 
ATOM     33  C   UNL     1      -2.227  -5.092   3.070  0.00  0.00    +0.008 A 
ATOM     34  C   UNL     1      -2.731  -6.328   2.711  0.00  0.00    +0.038 A 
ATOM     35  C   UNL     1      -2.065  -7.482   3.087  0.00  0.00    +0.123 A 
ATOM     36  C   UNL     1      -0.895  -7.396   3.822  0.00  0.00    +0.038 A 
ATOM     37  C   UNL     1      -0.390  -6.159   4.176  0.00  0.00    +0.008 A 
ATOM     38  F   UNL     1      -2.557  -8.691   2.738  0.00  0.00    -0.205 F 
ENDBRANCH  24  32
ENDBRANCH   4  24
TORSDOF 5
