REMARK  Name = ZINC04904542
REMARK  7 active torsions:
REMARK  status: ('A' for Active; 'I' for Inactive)
REMARK    1  A    between atoms: C_1  and  C_2
REMARK    2  A    between atoms: C_2  and  N_3
REMARK    3  A    between atoms: N_3  and  N_4
REMARK    4  A    between atoms: C_5  and  C_7
REMARK    5  A    between atoms: C_16  and  O_17
REMARK    6  A    between atoms: C_18  and  C_19
REMARK    7  A    between atoms: N_21  and  C_22
REMARK                            x       y       z     vdW  Elec       q    Type
REMARK                         _______ _______ _______ _____ _____    ______ ____
ROOT
ATOM      1  N   UNL     1      -0.036   1.899  -2.332  0.00  0.00    -0.268 N 
ATOM      2  H   UNL     1       0.930   1.984  -2.309  0.00  0.00    +0.170 HD
ENDROOT
BRANCH   1   3
ATOM      3  N   UNL     1      -0.706   1.862  -3.562  0.00  0.00    -0.233 N 
ATOM      4  C   UNL     1      -0.009   1.946  -4.712  0.00  0.00    +0.264 C 
ATOM      5  O   UNL     1       1.202   2.053  -4.683  0.00  0.00    -0.269 OA
ATOM      6  H   UNL     1      -1.672   1.777  -3.585  0.00  0.00    +0.173 HD
BRANCH   4   7
ATOM      7  C   UNL     1      -0.714   1.907  -6.005  0.00  0.00    +0.080 A 
ATOM      8  C   UNL     1      -2.116   1.789  -6.034  0.00  0.00    +0.017 A 
ATOM      9  C   UNL     1      -2.788   1.752  -7.211  0.00  0.00    +0.009 A 
ATOM     10  C   UNL     1      -2.087   1.831  -8.430  0.00  0.00    -0.014 A 
ATOM     11  C   UNL     1      -2.767   1.793  -9.659  0.00  0.00    +0.008 A 
ATOM     12  C   UNL     1      -2.063   1.872 -10.822  0.00  0.00    +0.001 A 
ATOM     13  C   UNL     1      -0.675   1.989 -10.814  0.00  0.00    +0.001 A 
ATOM     14  C   UNL     1       0.017   2.027  -9.642  0.00  0.00    +0.012 A 
ATOM     15  C   UNL     1      -0.676   1.950  -8.423  0.00  0.00    +0.024 A 
ATOM     16  C   UNL     1       0.010   1.994  -7.192  0.00  0.00    +0.137 A 
BRANCH  16  17
ATOM     17  O   UNL     1       1.359   2.114  -7.163  0.00  0.00    -0.505 OA
ATOM     18  H   UNL     1       1.829   1.269  -7.171  0.00  0.00    +0.292 HD
ENDBRANCH  16  17
ENDBRANCH   4   7
ENDBRANCH   1   3
BRANCH   1  20
ATOM     19  C   UNL     1      -0.021   1.854   0.157  0.00  0.00    +0.062 C 
ATOM     20  C   UNL     1      -0.743   1.814  -1.165  0.00  0.00    +0.024 C 
ATOM     21  C   UNL     1      -2.086   1.696  -1.198  0.00  0.00    +0.087 C 
BRANCH  21  22
ATOM     22  C   UNL     1      -2.803   1.445  -0.004  0.00  0.00    +0.239 C 
ATOM     23  O   UNL     1      -2.202   1.218   1.030  0.00  0.00    -0.271 OA
ATOM     24  N   UNL     1      -4.150   1.456  -0.013  0.00  0.00    -0.308 N 
ATOM     25  H   UNL     1      -4.629   1.637  -0.837  0.00  0.00    +0.149 HD
BRANCH  24  26
ATOM     26  C   UNL     1      -4.893   1.196   1.223  0.00  0.00    +0.079 C 
ATOM     27  C   UNL     1      -5.053  -0.313   1.414  0.00  0.00    +0.010 C 
ATOM     28  C   UNL     1      -5.828  -0.585   2.705  0.00  0.00    +0.009 C 
ATOM     29  C   UNL     1      -7.209   0.068   2.617  0.00  0.00    -0.010 C 
ATOM     30  C   UNL     1      -7.975  -0.518   1.429  0.00  0.00    +0.007 C 
ATOM     31  C   UNL     1      -7.200  -0.247   0.138  0.00  0.00    -0.010 C 
ATOM     32  C   UNL     1      -5.819  -0.899   0.226  0.00  0.00    +0.009 C 
ATOM     33  C   UNL     1      -7.040   1.263  -0.053  0.00  0.00    +0.009 C 
ATOM     34  C   UNL     1      -6.274   1.849   1.135  0.00  0.00    +0.010 C 
ATOM     35  C   UNL     1      -7.049   1.577   2.426  0.00  0.00    +0.009 C 
ENDBRANCH  24  26
ENDBRANCH  21  22
ENDBRANCH   1  20
TORSDOF 6
