REMARK  Name = ZINC40051664
REMARK  8 active torsions:
REMARK  status: ('A' for Active; 'I' for Inactive)
REMARK    1  A    between atoms: C_1  and  C_2
REMARK    2  A    between atoms: C_3  and  C_11
REMARK    3  A    between atoms: C_13  and  C_29
REMARK    4  A    between atoms: C_14  and  C_16
REMARK    5  A    between atoms: C_16  and  C_18
REMARK    6  A    between atoms: C_26  and  C_28
REMARK    7  A    between atoms: C_29  and  C_30
REMARK    8  A    between atoms: C_30  and  C_31
REMARK                            x       y       z     vdW  Elec       q    Type
REMARK                         _______ _______ _______ _____ _____    ______ ____
ROOT
ATOM      1  C   UNL     1      -0.727  -0.400  -2.581  0.00  0.00    +0.128 A 
ATOM      2  N   UNL     1      -0.742   0.844  -3.072  0.00  0.00    -0.242 NA
ATOM      3  C   UNL     1      -0.532   1.080  -4.332  0.00  0.00    +0.060 A 
ATOM      4  C   UNL     1      -0.286   0.006  -5.194  0.00  0.00    +0.082 A 
ATOM      5  S   UNL     1      -0.373  -1.363  -4.045  0.00  0.00    -0.062 S 
ENDROOT
BRANCH   1   8
ATOM      6  C   UNL     1      -1.344   1.444  -0.108  0.00  0.00    +0.068 C 
ATOM      7  C   UNL     1      -1.211  -0.057  -0.104  0.00  0.00    +0.067 A 
ATOM      8  C   UNL     1      -0.938  -0.852  -1.208  0.00  0.00    +0.101 A 
ATOM      9  N   UNL     1      -0.906  -2.156  -0.752  0.00  0.00    -0.297 N 
ATOM     10  C   UNL     1      -0.685  -3.343  -1.380  0.00  0.00    +0.093 A 
ATOM     11  C   UNL     1      -0.709  -4.504  -0.687  0.00  0.00    +0.018 A 
ATOM     12  C   UNL     1      -0.963  -4.496   0.692  0.00  0.00    +0.005 A 
ATOM     13  C   UNL     1      -1.185  -3.312   1.330  0.00  0.00    +0.047 A 
ATOM     14  C   UNL     1      -1.157  -2.115   0.592  0.00  0.00    +0.138 A 
ATOM     15  N   UNL     1      -1.329  -0.844   0.954  0.00  0.00    -0.232 NA
ENDBRANCH   1   8
BRANCH   4  16
ATOM     16  C   UNL     1      -0.033   0.003  -6.588  0.00  0.00    +0.200 C 
ATOM     17  O   UNL     1       0.087   1.059  -7.188  0.00  0.00    -0.286 OA
BRANCH  16  18
ATOM     18  C   UNL     1       0.085  -1.265  -7.308  0.00  0.00    +0.031 C 
ATOM     19  C   UNL     1       1.226  -2.026  -7.478  0.00  0.00    +0.007 A 
ATOM     20  C   UNL     1       2.566  -1.858  -7.053  0.00  0.00    +0.010 A 
ATOM     21  C   UNL     1       3.501  -2.781  -7.369  0.00  0.00    +0.001 A 
ATOM     22  C   UNL     1       3.203  -3.928  -8.118  0.00  0.00    +0.002 A 
ATOM     23  C   UNL     1       1.954  -4.181  -8.572  0.00  0.00    +0.026 A 
ATOM     24  C   UNL     1       0.877  -3.228  -8.271  0.00  0.00    +0.043 A 
ATOM     25  N   UNL     1      -0.393  -3.222  -8.577  0.00  0.00    -0.377 N 
ATOM     26  C   UNL     1      -1.019  -2.021  -8.015  0.00  0.00    +0.111 C 
ATOM     27  C   UNL     1      -1.609  -1.163  -9.137  0.00  0.00    +0.035 C 
ATOM     28  H   UNL     1      -0.850  -3.905  -9.091  0.00  0.00    +0.160 HD
ENDBRANCH  16  18
ENDBRANCH   4  16
BRANCH   3  29
ATOM     29  C   UNL     1      -0.555   2.492  -4.858  0.00  0.00    +0.057 C 
BRANCH  29  30
ATOM     30  C   UNL     1       0.852   3.088  -4.780  0.00  0.00    +0.010 C 
BRANCH  30  31
ATOM     31  C   UNL     1       0.828   4.522  -5.314  0.00  0.00    -0.011 C 
ATOM     32  C   UNL     1       0.478   4.505  -6.803  0.00  0.00    +0.003 C 
ATOM     33  C   UNL     1       0.455   5.939  -7.338  0.00  0.00    +0.000 C 
ATOM     34  C   UNL     1       1.832   6.577  -7.144  0.00  0.00    +0.000 C 
ATOM     35  C   UNL     1       2.182   6.594  -5.655  0.00  0.00    +0.000 C 
ATOM     36  C   UNL     1       2.205   5.160  -5.121  0.00  0.00    +0.003 C 
ENDBRANCH  30  31
ENDBRANCH  29  30
ENDBRANCH   3  29
TORSDOF 6
