REMARK  Name = ZINC02377611
REMARK  9 active torsions:
REMARK  status: ('A' for Active; 'I' for Inactive)
REMARK    1  A    between atoms: C_1  and  C_2
REMARK    2  A    between atoms: C_4  and  O_30
REMARK    3  A    between atoms: C_7  and  C_8
REMARK    4  A    between atoms: C_9  and  C_19
REMARK    5  A    between atoms: N_11  and  C_13
REMARK    6  A    between atoms: N_23  and  C_27
REMARK    7  A    between atoms: C_27  and  C_28
REMARK    8  A    between atoms: O_30  and  C_31
REMARK    9  A    between atoms: C_31  and  C_32
REMARK                            x       y       z     vdW  Elec       q    Type
REMARK                         _______ _______ _______ _____ _____    ______ ____
ROOT
ATOM      1  C   UNL     1      -1.279  -0.787   0.234  0.00  0.00    +0.101 A 
ATOM      2  C   UNL     1      -2.621  -0.203   0.128  0.00  0.00    +0.022 A 
ATOM      3  C   UNL     1      -3.485  -1.253  -0.123  0.00  0.00    +0.123 A 
ATOM      4  N   UNL     1      -2.755  -2.384  -0.170  0.00  0.00    -0.239 N 
ATOM      5  N   UNL     1      -1.407  -2.082   0.045  0.00  0.00    -0.166 NA
ENDROOT
BRANCH   2   6
ATOM      6  C   UNL     1      -2.976   1.214   0.262  0.00  0.00    +0.032 C 
ATOM      7  C   UNL     1      -4.271   1.574   0.464  0.00  0.00    +0.077 C 
ATOM      8  C   UNL     1      -4.858   2.916   0.627  0.00  0.00    +0.259 C 
ATOM      9  O   UNL     1      -4.173   3.922   0.592  0.00  0.00    -0.269 OA
ATOM     10  N   UNL     1      -6.167   2.973   0.812  0.00  0.00    -0.244 N 
ATOM     11  C   UNL     1      -6.922   1.856   0.850  0.00  0.00    +0.121 C 
ATOM     12  S   UNL     1      -8.613   1.724   1.078  0.00  0.00    -0.027 S 
ATOM     13  S   UNL     1      -5.730   0.550   0.598  0.00  0.00    -0.061 S 
BRANCH  10  14
ATOM     14  C   UNL     1      -6.809   4.279   0.980  0.00  0.00    +0.240 C 
BRANCH  14  15
ATOM     15  C   UNL     1      -7.225   4.811  -0.368  0.00  0.00    +0.373 C 
ATOM     16  O   UNL     1      -7.007   4.166  -1.366  0.00  0.00    -0.245 OA
ATOM     17  O   UNL     1      -7.838   6.002  -0.459  0.00  0.00    -0.245 OA
ENDBRANCH  14  15
ENDBRANCH  10  14
ENDBRANCH   2   6
BRANCH   1  24
ATOM     18  C   UNL     1       0.549  -1.768   2.248  0.00  0.00    +0.044 C 
ATOM     19  C   UNL     1       0.871  -0.521   1.465  0.00  0.00    -0.038 A 
ATOM     20  C   UNL     1       2.044   0.162   1.707  0.00  0.00    +0.049 A 
ATOM     21  C   UNL     1       2.342   1.311   0.987  0.00  0.00    +0.121 A 
ATOM     22  C   UNL     1       1.459   1.777   0.022  0.00  0.00    +0.046 A 
ATOM     23  C   UNL     1       0.284   1.099  -0.225  0.00  0.00    +0.014 A 
ATOM     24  C   UNL     1      -0.018  -0.056   0.496  0.00  0.00    +0.006 A 
BRANCH  21  25
ATOM     25  O   UNL     1       3.499   1.981   1.227  0.00  0.00    -0.488 OA
BRANCH  25  26
ATOM     26  C   UNL     1       3.742   3.156   0.450  0.00  0.00    +0.256 C 
BRANCH  26  27
ATOM     27  C   UNL     1       5.062   3.760   0.853  0.00  0.00    +0.006 C 
ATOM     28  C   UNL     1       5.905   4.164  -0.066  0.00  0.00    +0.007 C 
ENDBRANCH  26  27
ENDBRANCH  25  26
ENDBRANCH  21  25
ENDBRANCH   1  24
BRANCH   4  29
ATOM     29  C   UNL     1      -3.267  -3.666  -0.403  0.00  0.00    +0.065 A 
ATOM     30  C   UNL     1      -4.630  -3.845  -0.603  0.00  0.00    +0.028 A 
ATOM     31  C   UNL     1      -5.131  -5.110  -0.837  0.00  0.00    +0.002 A 
ATOM     32  C   UNL     1      -4.280  -6.200  -0.862  0.00  0.00    +0.000 A 
ATOM     33  C   UNL     1      -2.923  -6.025  -0.658  0.00  0.00    +0.002 A 
ATOM     34  C   UNL     1      -2.415  -4.762  -0.428  0.00  0.00    +0.028 A 
ENDBRANCH   4  29
TORSDOF 8
