REMARK  Name = ZINC32124673
REMARK  9 active torsions:
REMARK  status: ('A' for Active; 'I' for Inactive)
REMARK    1  A    between atoms: C_1  and  C_2
REMARK    2  A    between atoms: C_2  and  C_3
REMARK    3  A    between atoms: C_2  and  C_4
REMARK    4  A    between atoms: C_2  and  C_5
REMARK    5  A    between atoms: C_12  and  N_16
REMARK    6  A    between atoms: C_13  and  C_14
REMARK    7  A    between atoms: C_17  and  C_19
REMARK    8  A    between atoms: C_19  and  S_20
REMARK    9  A    between atoms: S_20  and  C_21
REMARK                            x       y       z     vdW  Elec       q    Type
REMARK                         _______ _______ _______ _____ _____    ______ ____
ROOT
ATOM      1  N   UNL     1      -0.288   1.272  -2.443  0.00  0.00    -0.278 N 
ATOM      2  C   UNL     1      -0.742   1.585  -1.213  0.00  0.00    +0.228 C 
ATOM      3  O   UNL     1      -1.736   2.268  -1.088  0.00  0.00    -0.275 OA
ATOM      4  H   UNL     1       0.614   0.653  -2.556  0.00  0.00    +0.155 HD
ENDROOT
BRANCH   1  11
ATOM      5  C   UNL     1      -3.136   3.682  -7.635  0.00  0.00    -0.000 C 
ATOM      6  C   UNL     1      -2.629   2.318  -8.111  0.00  0.00    +0.009 C 
ATOM      7  C   UNL     1      -1.319   1.973  -7.401  0.00  0.00    +0.037 C 
ATOM      8  C   UNL     1      -1.524   2.116  -5.898  0.00  0.00    -0.018 A 
ATOM      9  C   UNL     1      -2.559   2.829  -5.402  0.00  0.00    -0.004 A 
ATOM     10  S   UNL     1      -2.391   2.706  -3.644  0.00  0.00    -0.077 S 
ATOM     11  C   UNL     1      -0.960   1.732  -3.568  0.00  0.00    +0.090 A 
ATOM     12  C   UNL     1      -0.651   1.518  -4.903  0.00  0.00    +0.084 A 
ATOM     13  C   UNL     1      -3.613   3.553  -6.181  0.00  0.00    +0.047 C 
BRANCH   5  15
ATOM     14  C   UNL     1      -5.435   3.110  -8.430  0.00  0.00    +0.011 C 
ATOM     15  C   UNL     1      -4.301   4.133  -8.519  0.00  0.00    -0.035 C 
ATOM     16  C   UNL     1      -4.805   5.497  -8.041  0.00  0.00    +0.011 C 
ATOM     17  C   UNL     1      -3.827   4.245  -9.969  0.00  0.00    +0.011 C 
ENDBRANCH   5  15
BRANCH  12  18
ATOM     18  C   UNL     1       0.486   0.737  -5.286  0.00  0.00    +0.102 C 
ATOM     19  N   UNL     1       1.389   0.118  -5.590  0.00  0.00    -0.191 NA
ENDBRANCH  12  18
ENDBRANCH   1  11
BRANCH   2  20
ATOM     20  C   UNL     1      -0.013   1.086   0.008  0.00  0.00    +0.170 C 
BRANCH  20  21
ATOM     21  S   UNL     1      -0.862   1.671   1.500  0.00  0.00    -0.115 S 
BRANCH  21  22
ATOM     22  C   UNL     1       0.099   1.013   2.823  0.00  0.00    +0.016 A 
ATOM     23  C   UNL     1       1.215   0.246   2.558  0.00  0.00    +0.015 A 
ATOM     24  C   UNL     1       1.979  -0.278   3.596  0.00  0.00    +0.002 A 
ATOM     25  C   UNL     1       1.650  -0.050   4.897  0.00  0.00    +0.008 A 
ATOM     26  C   UNL     1       0.521   0.726   5.210  0.00  0.00    -0.017 A 
ATOM     27  C   UNL     1      -0.263   1.270   4.163  0.00  0.00    -0.004 A 
ATOM     28  C   UNL     1      -1.394   2.040   4.477  0.00  0.00    +0.009 A 
ATOM     29  C   UNL     1      -1.717   2.262   5.781  0.00  0.00    +0.001 A 
ATOM     30  C   UNL     1      -0.944   1.732   6.812  0.00  0.00    +0.001 A 
ATOM     31  C   UNL     1       0.157   0.976   6.545  0.00  0.00    +0.008 A 
ENDBRANCH  21  22
ENDBRANCH  20  21
ENDBRANCH   2  20
TORSDOF 6
