REMARK  Name = ZINC09360257
REMARK  9 active torsions:
REMARK  status: ('A' for Active; 'I' for Inactive)
REMARK    1  A    between atoms: C_1  and  C_2
REMARK    2  A    between atoms: C_2  and  C_3
REMARK    3  A    between atoms: C_2  and  O_4
REMARK    4  A    between atoms: O_4  and  C_5
REMARK    5  A    between atoms: C_8  and  C_11
REMARK    6  A    between atoms: C_11  and  C_13
REMARK    7  A    between atoms: N_17  and  C_27
REMARK    8  A    between atoms: C_18  and  C_20
REMARK    9  A    between atoms: C_27  and  C_28
REMARK                            x       y       z     vdW  Elec       q    Type
REMARK                         _______ _______ _______ _____ _____    ______ ____
ROOT
ATOM      1  C   UNL     1      -3.208   1.005   4.232  0.00  0.00    +0.076 C 
ATOM      2  C   UNL     1      -3.588   2.146   3.611  0.00  0.00    +0.249 C 
ATOM      3  C   UNL     1      -3.402   1.989   2.153  0.00  0.00    +0.288 C 
ATOM      4  O   UNL     1      -3.653   2.840   1.323  0.00  0.00    -0.266 OA
ATOM      5  N   UNL     1      -2.913   0.765   1.881  0.00  0.00    -0.279 N 
ATOM      6  C   UNL     1      -2.757   0.049   3.153  0.00  0.00    +0.145 C 
ATOM      7  O   UNL     1      -4.063   3.253   4.226  0.00  0.00    -0.282 OA
ENDROOT
BRANCH   6   8
ATOM      8  C   UNL     1      -3.617  -1.188   3.160  0.00  0.00    -0.022 A 
ATOM      9  C   UNL     1      -4.928  -1.121   2.724  0.00  0.00    +0.007 A 
ATOM     10  C   UNL     1      -5.716  -2.257   2.726  0.00  0.00    +0.015 A 
ATOM     11  C   UNL     1      -5.196  -3.458   3.174  0.00  0.00    +0.018 A 
ATOM     12  C   UNL     1      -3.886  -3.523   3.614  0.00  0.00    +0.015 A 
ATOM     13  C   UNL     1      -3.098  -2.388   3.607  0.00  0.00    +0.007 A 
ATOM     14 BR   UNL     1      -6.276  -5.011   3.183  0.00  0.00    -0.050 Br
ENDBRANCH   6   8
BRANCH   1  15
ATOM     15  C   UNL     1      -3.235   0.745   5.676  0.00  0.00    +0.195 C 
ATOM     16  O   UNL     1      -4.297   0.713   6.269  0.00  0.00    -0.287 OA
BRANCH  15  20
ATOM     17  C   UNL     1       0.396   0.106   7.785  0.00  0.00    +0.121 A 
ATOM     18  C   UNL     1      -0.822  -0.029   8.443  0.00  0.00    +0.046 A 
ATOM     19  C   UNL     1      -2.001   0.177   7.763  0.00  0.00    +0.015 A 
ATOM     20  C   UNL     1      -1.973   0.523   6.409  0.00  0.00    +0.022 A 
ATOM     21  C   UNL     1      -0.747   0.654   5.749  0.00  0.00    +0.015 A 
ATOM     22  C   UNL     1       0.428   0.451   6.438  0.00  0.00    +0.046 A 
BRANCH  17  23
ATOM     23  O   UNL     1       1.556  -0.099   8.459  0.00  0.00    -0.489 OA
BRANCH  23  25
ATOM     24  C   UNL     1       2.723  -1.301  10.200  0.00  0.00    +0.051 C 
ATOM     25  C   UNL     1       1.450  -0.547   9.811  0.00  0.00    +0.167 C 
ATOM     26  C   UNL     1       1.268   0.658  10.736  0.00  0.00    +0.051 C 
ENDBRANCH  23  25
ENDBRANCH  17  23
ENDBRANCH  15  20
ENDBRANCH   1  15
BRANCH   5  27
ATOM     27  C   UNL     1      -2.598   0.239   0.551  0.00  0.00    +0.145 C 
BRANCH  27  28
ATOM     28  C   UNL     1      -1.166   0.561   0.209  0.00  0.00    -0.012 A 
ATOM     29  C   UNL     1      -0.149  -0.321   0.542  0.00  0.00    +0.008 A 
ATOM     30  C   UNL     1       1.152   0.015   0.203  0.00  0.00    +0.020 A 
ATOM     31  C   UNL     1       1.392   1.212  -0.446  0.00  0.00    +0.111 A 
ATOM     32  N   UNL     1       0.400   2.029  -0.742  0.00  0.00    -0.263 NA
ATOM     33  C   UNL     1      -0.850   1.742  -0.434  0.00  0.00    +0.115 A 
ENDBRANCH  27  28
ENDBRANCH   5  27
TORSDOF 7
