REMARK  Name = ZINC39710305
REMARK  10 active torsions:
REMARK  status: ('A' for Active; 'I' for Inactive)
REMARK    1  A    between atoms: C_1  and  C_2
REMARK    2  A    between atoms: C_9  and  C_14
REMARK    3  A    between atoms: C_14  and  C_16
REMARK    4  A    between atoms: C_14  and  N_28
REMARK    5  A    between atoms: N_20  and  C_21
REMARK    6  A    between atoms: C_21  and  C_22
REMARK    7  A    between atoms: N_28  and  C_29
REMARK    8  A    between atoms: N_28  and  C_36
REMARK    9  A    between atoms: C_29  and  C_30
REMARK   10  A    between atoms: C_36  and  C_37
REMARK                            x       y       z     vdW  Elec       q    Type
REMARK                         _______ _______ _______ _____ _____    ______ ____
ROOT
ATOM      1  C   UNL     1       1.916  -5.715   3.165  0.00  0.00    +0.143 C 
ENDROOT
BRANCH   1  10
ATOM      2  C   UNL     1       3.069   1.135   1.505  0.00  0.00    +0.044 C 
ATOM      3  C   UNL     1       2.649  -0.276   1.182  0.00  0.00    -0.050 A 
ATOM      4  C   UNL     1       2.681  -0.711  -0.143  0.00  0.00    +0.005 A 
ATOM      5  C   UNL     1       2.318  -1.968  -0.510  0.00  0.00    +0.024 A 
ATOM      6  C   UNL     1       1.887  -2.897   0.454  0.00  0.00    +0.040 A 
ATOM      7  N   UNL     1       1.534  -4.128   0.082  0.00  0.00    -0.284 N 
ATOM      8  C   UNL     1       1.119  -5.049   0.936  0.00  0.00    +0.226 C 
ATOM      9  O   UNL     1       0.809  -6.156   0.537  0.00  0.00    -0.275 OA
ATOM     10  C   UNL     1       1.031  -4.721   2.409  0.00  0.00    +0.123 C 
ATOM     11  C   UNL     1       1.432  -3.323   2.837  0.00  0.00    -0.003 C 
ATOM     12  C   UNL     1       1.843  -2.464   1.861  0.00  0.00    -0.007 A 
ATOM     13  C   UNL     1       2.253  -1.098   2.188  0.00  0.00    +0.012 A 
ATOM     14  H   UNL     1       1.583  -4.358  -0.859  0.00  0.00    +0.155 HD
ENDBRANCH   1  10
BRANCH   1  15
ATOM     15  C   UNL     1       1.935  -5.359   4.629  0.00  0.00    +0.170 A 
ATOM     16  N   UNL     1       0.899  -5.059   5.374  0.00  0.00    -0.112 NA
ATOM     17  N   UNL     1       1.324  -4.816   6.566  0.00  0.00    -0.023 NA
ATOM     18  N   UNL     1       2.603  -4.953   6.600  0.00  0.00    -0.044 NA
ATOM     19  N   UNL     1       3.017  -5.293   5.426  0.00  0.00    -0.223 N 
BRANCH  19  20
ATOM     20  C   UNL     1       4.404  -5.554   5.034  0.00  0.00    +0.182 C 
BRANCH  20  21
ATOM     21  C   UNL     1       5.076  -4.255   4.671  0.00  0.00    -0.026 A 
ATOM     22  C   UNL     1       4.946  -3.742   3.394  0.00  0.00    +0.005 A 
ATOM     23  C   UNL     1       5.562  -2.551   3.061  0.00  0.00    +0.000 A 
ATOM     24  C   UNL     1       6.309  -1.872   4.005  0.00  0.00    +0.000 A 
ATOM     25  C   UNL     1       6.439  -2.384   5.283  0.00  0.00    +0.000 A 
ATOM     26  C   UNL     1       5.819  -3.573   5.617  0.00  0.00    +0.005 A 
ENDBRANCH  20  21
ENDBRANCH  19  20
ENDBRANCH   1  15
BRANCH   1  27
ATOM     27  N   UNL     1       1.381  -7.073   2.998  0.00  0.00    -0.283 NA
BRANCH  27  28
ATOM     28  C   UNL     1       2.032  -7.761   1.875  0.00  0.00    +0.120 C 
BRANCH  28  29
ATOM     29  C   UNL     1       3.337  -8.354   2.338  0.00  0.00    -0.033 A 
ATOM     30  C   UNL     1       4.521  -7.675   2.122  0.00  0.00    +0.005 A 
ATOM     31  C   UNL     1       5.718  -8.219   2.547  0.00  0.00    +0.000 A 
ATOM     32  C   UNL     1       5.732  -9.443   3.189  0.00  0.00    +0.000 A 
ATOM     33  C   UNL     1       4.548 -10.123   3.406  0.00  0.00    +0.000 A 
ATOM     34  C   UNL     1       3.350  -9.576   2.985  0.00  0.00    +0.005 A 
ENDBRANCH  28  29
ENDBRANCH  27  28
BRANCH  27  35
ATOM     35  C   UNL     1      -0.078  -7.046   2.824  0.00  0.00    +0.122 C 
BRANCH  35  36
ATOM     36  C   UNL     1      -0.735  -6.729   4.143  0.00  0.00    -0.015 A 
ATOM     37  C   UNL     1      -0.511  -7.534   5.250  0.00  0.00    +0.008 A 
ATOM     38  C   UNL     1      -1.137  -7.204   6.443  0.00  0.00    +0.020 A 
ATOM     39  C   UNL     1      -1.956  -6.091   6.488  0.00  0.00    +0.111 A 
ATOM     40  N   UNL     1      -2.146  -5.349   5.415  0.00  0.00    -0.263 NA
ATOM     41  C   UNL     1      -1.562  -5.629   4.266  0.00  0.00    +0.115 A 
ENDBRANCH  35  36
ENDBRANCH  27  35
ENDBRANCH   1  27
TORSDOF 9
