REMARK  Name = ZINC36270310
REMARK  5 active torsions:
REMARK  status: ('A' for Active; 'I' for Inactive)
REMARK    1  A    between atoms: C_1  and  C_2
REMARK    2  A    between atoms: C_2  and  C_32
REMARK    3  A    between atoms: C_6  and  C_7
REMARK    4  A    between atoms: C_7  and  C_9
REMARK    5  A    between atoms: C_20  and  C_22
REMARK                            x       y       z     vdW  Elec       q    Type
REMARK                         _______ _______ _______ _____ _____    ______ ____
ROOT
ATOM      1  C   UNL     1      -0.994   0.573  -0.652  0.00  0.00    +0.035 C 
ATOM      2  C   UNL     1       0.260  -0.227  -0.292  0.00  0.00    +0.073 C 
ATOM      3  C   UNL     1       0.061  -1.725  -0.611  0.00  0.00    +0.256 C 
ATOM      4  O   UNL     1       0.568  -2.376   0.571  0.00  0.00    -0.477 OA
ATOM      5  C   UNL     1       0.367  -1.522   1.599  0.00  0.00    +0.193 C 
ATOM      6  C   UNL     1       0.091  -1.898   2.883  0.00  0.00    +0.109 C 
ATOM      7  N   UNL     1       0.480  -0.221   1.168  0.00  0.00    -0.233 N 
ATOM      8  C   UNL     1       0.743   0.857   1.934  0.00  0.00    +0.229 C 
ATOM      9  O   UNL     1       0.684   1.970   1.456  0.00  0.00    -0.275 OA
ATOM     10  C   UNL     1       1.482   0.329  -1.025  0.00  0.00    +0.035 C 
ENDROOT
BRANCH   8  11
ATOM     11  C   UNL     1       1.112   0.678   3.384  0.00  0.00    +0.048 C 
ATOM     12  C   UNL     1       2.081  -0.497   3.523  0.00  0.00    +0.019 C 
ATOM     13  C   UNL     1       2.455  -0.678   4.996  0.00  0.00    -0.009 C 
ATOM     14  C   UNL     1       3.123   0.597   5.513  0.00  0.00    +0.007 C 
ATOM     15  C   UNL     1       2.154   1.773   5.374  0.00  0.00    -0.009 C 
ATOM     16  C   UNL     1       1.780   1.954   3.901  0.00  0.00    +0.019 C 
ATOM     17  C   UNL     1       0.891   1.492   6.190  0.00  0.00    +0.007 C 
ATOM     18  C   UNL     1       0.223   0.216   5.673  0.00  0.00    -0.009 C 
ATOM     19  C   UNL     1       1.192  -0.960   5.812  0.00  0.00    +0.007 C 
ATOM     20  C   UNL     1      -0.151   0.397   4.201  0.00  0.00    +0.019 C 
ENDBRANCH   8  11
BRANCH   6  21
ATOM     21  C   UNL     1      -0.585  -3.093   3.130  0.00  0.00    +0.167 C 
ATOM     22  O   UNL     1      -1.048  -3.732   2.204  0.00  0.00    -0.292 OA
BRANCH  21  23
ATOM     23  C   UNL     1      -0.742  -3.591   4.543  0.00  0.00    +0.034 C 
ATOM     24  C   UNL     1       0.621  -4.027   5.085  0.00  0.00    +0.018 C 
ATOM     25  C   UNL     1       0.461  -4.533   6.520  0.00  0.00    -0.010 C 
ATOM     26  C   UNL     1      -0.498  -5.725   6.536  0.00  0.00    +0.007 C 
ATOM     27  C   UNL     1      -1.861  -5.290   5.995  0.00  0.00    -0.010 C 
ATOM     28  C   UNL     1      -1.702  -4.783   4.560  0.00  0.00    +0.018 C 
ATOM     29  C   UNL     1      -2.425  -4.169   6.871  0.00  0.00    +0.007 C 
ATOM     30  C   UNL     1      -1.465  -2.978   6.855  0.00  0.00    -0.010 C 
ATOM     31  C   UNL     1      -0.102  -3.413   7.396  0.00  0.00    +0.007 C 
ATOM     32  C   UNL     1      -1.306  -2.471   5.420  0.00  0.00    +0.018 C 
ENDBRANCH  21  23
ENDBRANCH   6  21
TORSDOF 3
