REMARK  Name = ZINC09002349
REMARK  12 active torsions:
REMARK  status: ('A' for Active; 'I' for Inactive)
REMARK    1  A    between atoms: C_1  and  C_2
REMARK    2  A    between atoms: C_4  and  C_8
REMARK    3  A    between atoms: N_6  and  C_7
REMARK    4  A    between atoms: C_8  and  N_10
REMARK    5  A    between atoms: N_12  and  C_24
REMARK    6  A    between atoms: C_15  and  O_22
REMARK    7  A    between atoms: C_16  and  O_20
REMARK    8  A    between atoms: O_20  and  C_21
REMARK    9  A    between atoms: O_22  and  C_23
REMARK   10  A    between atoms: C_24  and  C_25
REMARK   11  A    between atoms: C_25  and  O_26
REMARK   12  A    between atoms: O_26  and  C_27
REMARK                            x       y       z     vdW  Elec       q    Type
REMARK                         _______ _______ _______ _____ _____    ______ ____
ROOT
ATOM      1  N   UNL     1      -3.535   3.084   4.605  0.00  0.00    -0.151 NA
ATOM      2  C   UNL     1      -4.683   3.403   5.193  0.00  0.00    +0.167 A 
ATOM      3  N   UNL     1      -4.891   3.796   6.478  0.00  0.00    -0.319 N 
ATOM      4  C   UNL     1      -6.172   4.090   6.915  0.00  0.00    +0.061 A 
ATOM      5  C   UNL     1      -6.580   4.507   8.192  0.00  0.00    +0.076 A 
ATOM      6  C   UNL     1      -7.908   4.760   8.460  0.00  0.00    +0.164 A 
ATOM      7  C   UNL     1      -8.882   4.609   7.474  0.00  0.00    +0.163 A 
ATOM      8  C   UNL     1      -8.500   4.198   6.206  0.00  0.00    +0.066 A 
ATOM      9  C   UNL     1      -7.173   3.947   5.944  0.00  0.00    +0.043 A 
ATOM     10  S   UNL     1      -6.274   3.426   4.504  0.00  0.00    -0.052 S 
ENDROOT
BRANCH   1  11
ATOM     11  C   UNL     1      -3.522   2.717   3.319  0.00  0.00    +0.290 C 
ATOM     12  O   UNL     1      -4.563   2.675   2.687  0.00  0.00    -0.266 OA
BRANCH  11  16
ATOM     13  C   UNL     1      -0.041   1.290  -0.081  0.00  0.00    +0.065 C 
ATOM     14  C   UNL     1      -0.742   1.740   1.175  0.00  0.00    +0.037 A 
ATOM     15  C   UNL     1      -2.070   1.962   1.318  0.00  0.00    +0.057 A 
ATOM     16  C   UNL     1      -2.243   2.362   2.664  0.00  0.00    +0.149 A 
ATOM     17  N   UNL     1      -1.050   2.363   3.221  0.00  0.00    -0.167 NA
ATOM     18  N   UNL     1      -0.162   2.003   2.366  0.00  0.00    -0.271 N 
ATOM     19  C   UNL     1       1.272   1.892   2.642  0.00  0.00    +0.172 C 
ENDBRANCH  11  16
ENDBRANCH   1  11
BRANCH   7  20
ATOM     20  O   UNL     1     -10.189   4.862   7.753  0.00  0.00    -0.491 OA
ATOM     21  C   UNL     1     -11.125   4.684   6.688  0.00  0.00    +0.277 C 
ENDBRANCH   7  20
BRANCH   6  22
ATOM     22  O   UNL     1      -8.274   5.162   9.707  0.00  0.00    -0.491 OA
ATOM     23  C   UNL     1      -7.233   5.300  10.676  0.00  0.00    +0.277 C 
ENDBRANCH   6  22
BRANCH   3  24
ATOM     24  C   UNL     1      -3.760   3.908   7.402  0.00  0.00    +0.152 C 
BRANCH  24  25
ATOM     25  C   UNL     1      -2.757   2.788   7.119  0.00  0.00    +0.181 C 
BRANCH  25  26
ATOM     26  O   UNL     1      -1.722   2.815   8.103  0.00  0.00    -0.381 OA
ATOM     27  C   UNL     1      -0.728   1.803   7.929  0.00  0.00    +0.194 C 
ENDBRANCH  25  26
ENDBRANCH  24  25
ENDBRANCH   3  24
TORSDOF 7
