REMARK  Name = ZINC38730733
REMARK  7 active torsions:
REMARK  status: ('A' for Active; 'I' for Inactive)
REMARK    1  A    between atoms: C_1  and  C_2
REMARK    2  A    between atoms: C_2  and  C_4
REMARK    3  A    between atoms: C_2  and  O_16
REMARK    4  A    between atoms: N_6  and  C_7
REMARK    5  A    between atoms: C_10  and  C_13
REMARK    6  A    between atoms: O_16  and  C_17
REMARK    7  A    between atoms: C_17  and  C_19
REMARK                            x       y       z     vdW  Elec       q    Type
REMARK                         _______ _______ _______ _____ _____    ______ ____
ROOT
ATOM      1  C   UNL     1      -0.008   1.520   0.023  0.00  0.00    +0.062 C 
ATOM      2  C   UNL     1       0.004  -0.009   0.005  0.00  0.00    +0.259 C 
ENDROOT
BRANCH   2   3
ATOM      3  C   UNL     1      -1.412  -0.523   0.012  0.00  0.00    +0.258 C 
ATOM      4  O   UNL     1      -1.839  -1.137  -0.943  0.00  0.00    -0.271 OA
ATOM      5  N   UNL     1      -2.204  -0.302   1.079  0.00  0.00    -0.282 N 
ATOM      6  H   UNL     1      -1.844   0.130   1.870  0.00  0.00    +0.155 HD
BRANCH   5   7
ATOM      7  C   UNL     1      -3.543  -0.693   1.048  0.00  0.00    +0.034 A 
ATOM      8  C   UNL     1      -3.910  -1.857   0.380  0.00  0.00    +0.024 A 
ATOM      9  C   UNL     1      -5.231  -2.245   0.347  0.00  0.00    +0.015 A 
ATOM     10  C   UNL     1      -6.202  -1.469   0.985  0.00  0.00    +0.037 A 
ATOM     11  C   UNL     1      -5.829  -0.301   1.655  0.00  0.00    +0.015 A 
ATOM     12  C   UNL     1      -4.507   0.080   1.689  0.00  0.00    +0.024 A 
BRANCH  10  13
ATOM     13  C   UNL     1      -7.619  -1.882   0.951  0.00  0.00    +0.242 C 
ATOM     14  O   UNL     1      -7.941  -2.899   0.367  0.00  0.00    -0.270 OA
ATOM     15  N   UNL     1      -8.554  -1.133   1.567  0.00  0.00    -0.325 N 
ATOM     16  H   UNL     1      -8.296  -0.322   2.033  0.00  0.00    +0.145 HD
ATOM     17  H   UNL     1      -9.485  -1.404   1.545  0.00  0.00    +0.145 HD
ENDBRANCH  10  13
ENDBRANCH   5   7
ENDBRANCH   2   3
BRANCH   2  18
ATOM     18  O   UNL     1       0.671  -0.467  -1.173  0.00  0.00    -0.449 OA
BRANCH  18  19
ATOM     19  C   UNL     1       2.004  -0.661  -1.086  0.00  0.00    +0.338 C 
ATOM     20  O   UNL     1       2.582  -0.448  -0.038  0.00  0.00    -0.245 OA
BRANCH  19  21
ATOM     21  C   UNL     1       2.753  -1.129  -2.254  0.00  0.00    +0.065 C 
ATOM     22  C   UNL     1       4.107  -1.381  -2.330  0.00  0.00    +0.010 A 
ATOM     23  C   UNL     1       5.159  -1.282  -1.385  0.00  0.00    +0.010 A 
ATOM     24  C   UNL     1       6.423  -1.600  -1.740  0.00  0.00    +0.001 A 
ATOM     25  C   UNL     1       6.757  -2.034  -3.032  0.00  0.00    +0.002 A 
ATOM     26  C   UNL     1       5.830  -2.162  -4.006  0.00  0.00    +0.026 A 
ATOM     27  C   UNL     1       4.426  -1.837  -3.705  0.00  0.00    +0.043 A 
ATOM     28  N   UNL     1       3.349  -1.868  -4.437  0.00  0.00    -0.380 N 
ATOM     29  C   UNL     1       2.202  -1.444  -3.628  0.00  0.00    +0.156 C 
ATOM     30  H   UNL     1       3.311  -2.134  -5.369  0.00  0.00    +0.160 HD
ENDBRANCH  19  21
ENDBRANCH  18  19
ENDBRANCH   2  18
TORSDOF 6
