REMARK  Name = ZINC09239822
REMARK  11 active torsions:
REMARK  status: ('A' for Active; 'I' for Inactive)
REMARK    1  A    between atoms: C_1  and  C_2
REMARK    2  A    between atoms: C_2  and  O_3
REMARK    3  A    between atoms: O_3  and  C_4
REMARK    4  A    between atoms: C_6  and  C_19
REMARK    5  A    between atoms: C_9  and  O_10
REMARK    6  A    between atoms: O_10  and  C_11
REMARK    7  A    between atoms: C_11  and  C_12
REMARK    8  A    between atoms: C_20  and  C_21
REMARK    9  A    between atoms: C_22  and  C_36
REMARK   10  A    between atoms: C_22  and  C_37
REMARK   11  A    between atoms: C_25  and  C_35
REMARK                            x       y       z     vdW  Elec       q    Type
REMARK                         _______ _______ _______ _____ _____    ______ ____
ROOT
ATOM      1  C   UNL     1      -0.212  -4.965   0.451  0.00  0.00    +0.007 C 
ATOM      2  C   UNL     1      -0.107  -6.276   0.288  0.00  0.00    +0.020 C 
ENDROOT
BRANCH   2   3
ATOM      3  C   UNL     1      -0.685  -7.212   1.318  0.00  0.00    +0.130 C 
ATOM      4  C   UNL     1       0.427  -8.047   1.969  0.00  0.00    +0.034 C 
ATOM      5  C   UNL     1       0.512  -7.516   3.372  0.00  0.00    -0.016 A 
ATOM      6  C   UNL     1       1.403  -7.840   4.379  0.00  0.00    +0.009 A 
ATOM      7  C   UNL     1       1.258  -7.176   5.591  0.00  0.00    -0.050 A 
ATOM      8  C   UNL     1       0.269  -6.233   5.781  0.00  0.00    +0.005 A 
ATOM      9  C   UNL     1      -0.631  -5.906   4.780  0.00  0.00    +0.024 A 
ATOM     10  C   UNL     1      -0.502  -6.571   3.556  0.00  0.00    +0.035 A 
ATOM     11  N   UNL     1      -1.286  -6.450   2.429  0.00  0.00    -0.304 N 
ATOM     12  C   UNL     1      -2.577  -5.759   2.276  0.00  0.00    +0.117 C 
ATOM     13  C   UNL     1      -3.607  -6.831   1.897  0.00  0.00    +0.115 C 
ATOM     14  C   UNL     1      -3.027  -7.828   0.942  0.00  0.00    +0.216 C 
ATOM     15  O   UNL     1      -3.809  -8.491   0.295  0.00  0.00    -0.276 OA
ATOM     16  N   UNL     1      -1.731  -8.037   0.725  0.00  0.00    -0.290 N 
ATOM     17  C   UNL     1       2.202  -7.492   6.722  0.00  0.00    +0.044 C 
ATOM     18  C   UNL     1       0.047  -9.529   1.980  0.00  0.00    +0.020 C 
ATOM     19  C   UNL     1       1.753  -7.837   1.235  0.00  0.00    +0.020 C 
ATOM     20  H   UNL     1      -1.473  -8.788   0.167  0.00  0.00    +0.151 HD
ENDBRANCH   2   3
BRANCH   1  23
ATOM     21  C   UNL     1       0.777  -1.811  -1.336  0.00  0.00    +0.162 A 
ATOM     22  C   UNL     1       0.244  -2.666  -0.389  0.00  0.00    +0.057 A 
ATOM     23  C   UNL     1       0.355  -4.047  -0.559  0.00  0.00    -0.022 A 
ATOM     24  C   UNL     1       1.002  -4.559  -1.684  0.00  0.00    +0.012 A 
ATOM     25  C   UNL     1       1.532  -3.701  -2.626  0.00  0.00    +0.050 A 
ATOM     26  C   UNL     1       1.417  -2.329  -2.460  0.00  0.00    +0.162 A 
BRANCH  21  27
ATOM     27  O   UNL     1       0.671  -0.465  -1.174  0.00  0.00    -0.489 OA
BRANCH  27  29
ATOM     28  C   UNL     1      -0.019   1.526   0.010  0.00  0.00    +0.048 C 
ATOM     29  C   UNL     1       0.002  -0.004   0.002  0.00  0.00    +0.226 C 
ENDBRANCH  27  29
ENDBRANCH  21  27
BRANCH  26  30
ATOM     30  O   UNL     1       1.935  -1.487  -3.393  0.00  0.00    -0.484 OA
BRANCH  30  31
ATOM     31  C   UNL     1       2.578  -2.085  -4.521  0.00  0.00    +0.264 C 
BRANCH  31  32
ATOM     32  C   UNL     1       3.086  -1.005  -5.441  0.00  0.00    -0.009 A 
ATOM     33  C   UNL     1       2.275  -0.517  -6.448  0.00  0.00    +0.007 A 
ATOM     34  C   UNL     1       2.740   0.474  -7.292  0.00  0.00    +0.002 A 
ATOM     35  C   UNL     1       4.018   0.976  -7.130  0.00  0.00    +0.020 A 
ATOM     36  C   UNL     1       4.830   0.488  -6.122  0.00  0.00    +0.041 A 
ATOM     37  C   UNL     1       4.362  -0.499  -5.274  0.00  0.00    +0.027 A 
ATOM     38 CL   UNL     1       6.435   1.119  -5.918  0.00  0.00    -0.084 Cl
ENDBRANCH  31  32
ENDBRANCH  30  31
ENDBRANCH  26  30
ENDBRANCH   1  23
TORSDOF 7
