REMARK  Name = ZINC63573477
REMARK  5 active torsions:
REMARK  status: ('A' for Active; 'I' for Inactive)
REMARK    1  A    between atoms: C_1  and  C_2
REMARK    2  A    between atoms: C_5  and  C_8
REMARK    3  A    between atoms: C_15  and  O_20
REMARK    4  A    between atoms: O_20  and  C_21
REMARK    5  A    between atoms: N_27  and  C_28
REMARK                            x       y       z     vdW  Elec       q    Type
REMARK                         _______ _______ _______ _____ _____    ______ ____
ROOT
ATOM      1  C   UNL     1      -0.458  -4.541   0.683  0.00  0.00    +0.134 C 
ATOM      2  C   UNL     1      -1.575  -5.419   1.257  0.00  0.00    +0.131 C 
ATOM      3  C   UNL     1      -1.076  -6.857   1.192  0.00  0.00    -0.035 C 
ATOM      4  C   UNL     1      -1.981  -7.537   0.499  0.00  0.00    +0.003 A 
ATOM      5  C   UNL     1      -2.091  -8.964   0.163  0.00  0.00    +0.055 A 
ATOM      6  C   UNL     1      -3.163  -9.334  -0.591  0.00  0.00    +0.121 A 
ATOM      7  C   UNL     1      -4.143  -8.441  -1.049  0.00  0.00    +0.047 A 
ATOM      8  C   UNL     1      -4.142  -7.108  -0.794  0.00  0.00    +0.029 A 
ATOM      9  C   UNL     1      -3.032  -6.588   0.017  0.00  0.00    +0.043 A 
ATOM     10  N   UNL     1      -2.787  -5.362   0.438  0.00  0.00    -0.375 N 
ATOM     11  C   UNL     1       0.250  -7.281   1.774  0.00  0.00    +0.052 C 
ATOM     12  C   UNL     1       1.307  -6.304   1.227  0.00  0.00    +0.114 C 
ATOM     13  N   UNL     1       0.803  -4.931   1.334  0.00  0.00    -0.276 N 
ATOM     14  C   UNL     1       1.501  -4.017   2.037  0.00  0.00    +0.307 C 
ATOM     15  O   UNL     1       1.029  -2.915   2.239  0.00  0.00    -0.252 OA
ATOM     16  N   UNL     1       2.723  -4.324   2.516  0.00  0.00    -0.267 N 
ATOM     17  H   UNL     1       3.135  -5.172   2.286  0.00  0.00    +0.156 HD
ATOM     18  H   UNL     1      -3.304  -4.564   0.243  0.00  0.00    +0.160 HD
ENDROOT
BRANCH  16  19
ATOM     19  C   UNL     1       3.398  -3.420   3.345  0.00  0.00    +0.073 A 
ATOM     20  C   UNL     1       3.142  -2.059   3.245  0.00  0.00    +0.064 A 
ATOM     21  C   UNL     1       3.810  -1.169   4.066  0.00  0.00    +0.125 A 
ATOM     22  C   UNL     1       4.734  -1.633   4.987  0.00  0.00    +0.041 A 
ATOM     23  C   UNL     1       4.991  -2.988   5.089  0.00  0.00    +0.043 A 
ATOM     24  C   UNL     1       4.322  -3.883   4.275  0.00  0.00    +0.145 A 
ATOM     25  F   UNL     1       4.571  -5.207   4.378  0.00  0.00    -0.204 F 
ATOM     26  F   UNL     1       3.561   0.156   3.968  0.00  0.00    -0.205 F 
ENDBRANCH  16  19
BRANCH   1  31
ATOM     27  C   UNL     1      -1.581   1.022   1.770  0.00  0.00    +0.044 C 
ATOM     28  C   UNL     1      -1.288  -0.429   1.486  0.00  0.00    -0.050 A 
ATOM     29  C   UNL     1      -1.624  -1.396   2.415  0.00  0.00    +0.004 A 
ATOM     30  C   UNL     1      -1.355  -2.727   2.155  0.00  0.00    +0.006 A 
ATOM     31  C   UNL     1      -0.751  -3.091   0.966  0.00  0.00    -0.025 A 
ATOM     32  C   UNL     1      -0.416  -2.123   0.037  0.00  0.00    +0.006 A 
ATOM     33  C   UNL     1      -0.689  -0.793   0.295  0.00  0.00    +0.004 A 
ENDBRANCH   1  31
BRANCH   6  34
ATOM     34  O   UNL     1      -3.292 -10.646  -0.918  0.00  0.00    -0.495 OA
ATOM     35  C   UNL     1      -4.425 -11.010  -1.709  0.00  0.00    +0.277 C 
ENDBRANCH   6  34
TORSDOF 3
