REMARK  Name = ZINC18455285
REMARK  13 active torsions:
REMARK  status: ('A' for Active; 'I' for Inactive)
REMARK    1  A    between atoms: C_1  and  C_2
REMARK    2  A    between atoms: C_5  and  O_34
REMARK    3  A    between atoms: C_6  and  N_8
REMARK    4  A    between atoms: C_9  and  C_11
REMARK    5  A    between atoms: C_11  and  C_13
REMARK    6  A    between atoms: C_11  and  O_14
REMARK    7  A    between atoms: O_14  and  C_15
REMARK    8  A    between atoms: C_15  and  C_17
REMARK    9  A    between atoms: C_20  and  S_23
REMARK   10  A    between atoms: S_23  and  N_26
REMARK   11  A    between atoms: N_26  and  C_27
REMARK   12  A    between atoms: N_26  and  C_28
REMARK   13  A    between atoms: O_34  and  C_35
REMARK                            x       y       z     vdW  Elec       q    Type
REMARK                         _______ _______ _______ _____ _____    ______ ____
ROOT
ATOM      1  C   UNL     1      -1.261  -0.771  -0.016  0.00  0.00    +0.340 C 
ATOM      2  O   UNL     1      -2.322  -0.180  -0.010  0.00  0.00    -0.245 OA
ENDROOT
BRANCH   1   3
ATOM      3  C   UNL     1       0.006  -0.012  -0.028  0.00  0.00    +0.059 A 
ATOM      4  C   UNL     1      -0.012   1.384  -0.031  0.00  0.00    +0.017 A 
ATOM      5  C   UNL     1       1.175   2.086  -0.041  0.00  0.00    +0.029 A 
ATOM      6  C   UNL     1       2.383   1.410  -0.048  0.00  0.00    +0.106 A 
ATOM      7  C   UNL     1       2.408   0.026  -0.044  0.00  0.00    +0.029 A 
ATOM      8  C   UNL     1       1.228  -0.688  -0.035  0.00  0.00    +0.017 A 
BRANCH   6   9
ATOM      9  S   UNL     1       3.894   2.315  -0.061  0.00  0.00    +0.061 S 
ATOM     10  O   UNL     1       3.607   3.593   0.489  0.00  0.00    -0.153 OA
ATOM     11  O   UNL     1       4.887   1.456   0.484  0.00  0.00    -0.153 OA
BRANCH   9  12
ATOM     12  N   UNL     1       4.303   2.562  -1.647  0.00  0.00    -0.177 NA
ATOM     13  C   UNL     1       3.832   3.761  -2.346  0.00  0.00    +0.132 C 
BRANCH  12  14
ATOM     14  C   UNL     1       5.135   1.583  -2.350  0.00  0.00    +0.080 C 
ATOM     15  C   UNL     1       6.420   2.259  -2.832  0.00  0.00    +0.020 C 
ATOM     16  C   UNL     1       7.289   1.236  -3.567  0.00  0.00    +0.002 C 
ATOM     17  C   UNL     1       6.521   0.685  -4.770  0.00  0.00    +0.000 C 
ATOM     18  C   UNL     1       5.236   0.009  -4.288  0.00  0.00    +0.002 C 
ATOM     19  C   UNL     1       4.367   1.032  -3.553  0.00  0.00    +0.020 C 
ENDBRANCH  12  14
ENDBRANCH   9  12
ENDBRANCH   6   9
ENDBRANCH   1   3
BRANCH   1  20
ATOM     20  O   UNL     1      -1.240  -2.118  -0.013  0.00  0.00    -0.449 OA
BRANCH  20  21
ATOM     21  C   UNL     1      -2.523  -2.797  -0.002  0.00  0.00    +0.259 C 
ATOM     22  C   UNL     1      -2.985  -3.039  -1.441  0.00  0.00    +0.062 C 
BRANCH  21  24
ATOM     23  N   UNL     1      -3.456  -4.926   0.844  0.00  0.00    -0.280 N 
ATOM     24  C   UNL     1      -2.386  -4.118   0.711  0.00  0.00    +0.258 C 
ATOM     25  O   UNL     1      -1.312  -4.454   1.164  0.00  0.00    -0.271 OA
ATOM     26  H   UNL     1      -4.331  -4.625   0.553  0.00  0.00    +0.155 HD
BRANCH  23  32
ATOM     27  C   UNL     1      -0.592  -8.794   1.850  0.00  0.00    +0.044 C 
ATOM     28  C   UNL     1      -1.929  -8.101   1.904  0.00  0.00    -0.048 A 
ATOM     29  C   UNL     1      -3.006  -8.726   2.506  0.00  0.00    +0.007 A 
ATOM     30  C   UNL     1      -4.235  -8.094   2.559  0.00  0.00    +0.048 A 
ATOM     31  C   UNL     1      -4.390  -6.832   2.008  0.00  0.00    +0.141 A 
ATOM     32  C   UNL     1      -3.305  -6.203   1.402  0.00  0.00    +0.076 A 
ATOM     33  C   UNL     1      -2.077  -6.845   1.347  0.00  0.00    +0.030 A 
BRANCH  31  34
ATOM     34  O   UNL     1      -5.598  -6.210   2.059  0.00  0.00    -0.493 OA
ATOM     35  C   UNL     1      -6.665  -6.916   2.696  0.00  0.00    +0.277 C 
ENDBRANCH  31  34
ENDBRANCH  23  32
ENDBRANCH  21  24
ENDBRANCH  20  21
ENDBRANCH   1  20
TORSDOF 9
