REMARK  Name = ZINC35842743
REMARK  16 active torsions:
REMARK  status: ('A' for Active; 'I' for Inactive)
REMARK    1  A    between atoms: C_1  and  C_2
REMARK    2  A    between atoms: C_2  and  C_3
REMARK    3  A    between atoms: C_2  and  N_4
REMARK    4  A    between atoms: N_4  and  C_5
REMARK    5  A    between atoms: N_4  and  C_13
REMARK    6  A    between atoms: C_5  and  C_6
REMARK    7  A    between atoms: C_13  and  C_14
REMARK    8  A    between atoms: N_16  and  C_17
REMARK    9  A    between atoms: N_16  and  C_29
REMARK   10  A    between atoms: C_17  and  C_18
REMARK   11  A    between atoms: C_18  and  C_19
REMARK   12  A    between atoms: C_29  and  C_30
REMARK   13  A    between atoms: C_33  and  C_36
REMARK   14  A    between atoms: C_36  and  C_37
REMARK   15  A    between atoms: C_36  and  C_38
REMARK   16  A    between atoms: C_36  and  C_39
REMARK                            x       y       z     vdW  Elec       q    Type
REMARK                         _______ _______ _______ _____ _____    ______ ____
ROOT
ATOM      1  C   UNL     1      -0.841  -2.451  -1.464  0.00  0.00    +0.199 C 
ATOM      2  O   UNL     1      -1.613  -1.598  -1.847  0.00  0.00    -0.278 OA
ATOM      3  N   UNL     1      -1.254  -3.728  -1.340  0.00  0.00    -0.298 N 
ENDROOT
BRANCH   1   4
ATOM      4  C   UNL     1       0.581  -2.083  -1.127  0.00  0.00    +0.020 C 
BRANCH   4   5
ATOM      5  N   UNL     1       0.737  -0.623  -1.189  0.00  0.00    +0.390 N 
ATOM      6  H   UNL     1       0.186  -0.258  -1.951  0.00  0.00    -0.080 HD
BRANCH   5   8
ATOM      7  C   UNL     1      -1.188  -0.389   0.307  0.00  0.00    -0.013 C 
ATOM      8  C   UNL     1       0.281  -0.028   0.074  0.00  0.00    -0.074 C 
ATOM      9  C   UNL     1       1.127  -0.569   1.228  0.00  0.00    -0.013 C 
ENDBRANCH   5   8
BRANCH   5  10
ATOM     10  C   UNL     1       2.152  -0.291  -1.404  0.00  0.00    -0.042 C 
BRANCH  10  11
ATOM     11  C   UNL     1       2.293   1.195  -1.610  0.00  0.00    -0.064 A 
ATOM     12  C   UNL     1       2.078   1.742  -2.862  0.00  0.00    +0.003 A 
ATOM     13  C   UNL     1       2.207   3.105  -3.052  0.00  0.00    +0.020 A 
ATOM     14  C   UNL     1       2.551   3.922  -1.990  0.00  0.00    +0.041 A 
ATOM     15  C   UNL     1       2.766   3.374  -0.738  0.00  0.00    +0.020 A 
ATOM     16  C   UNL     1       2.631   2.012  -0.547  0.00  0.00    +0.003 A 
ATOM     17 CL   UNL     1       2.714   5.634  -2.228  0.00  0.00    -0.084 Cl
ENDBRANCH  10  11
ENDBRANCH   5  10
ENDBRANCH   4   5
ENDBRANCH   1   4
BRANCH   3  18
ATOM     18  C   UNL     1      -0.321  -4.758  -0.877  0.00  0.00    +0.113 C 
BRANCH  18  19
ATOM     19  C   UNL     1      -0.386  -4.857   0.648  0.00  0.00    +0.056 C 
BRANCH  19  20
ATOM     20  C   UNL     1       0.574  -5.917   1.124  0.00  0.00    -0.021 A 
ATOM     21  C   UNL     1       0.283  -7.203   1.378  0.00  0.00    +0.087 A 
ATOM     22  N   UNL     1       1.407  -7.863   1.791  0.00  0.00    -0.360 N 
ATOM     23  H   UNL     1       1.445  -8.802   2.032  0.00  0.00    +0.165 HD
ATOM     24  C   UNL     1       2.477  -6.997   1.814  0.00  0.00    +0.047 A 
ATOM     25  C   UNL     1       2.004  -5.742   1.391  0.00  0.00    +0.003 A 
ATOM     26  C   UNL     1       2.880  -4.658   1.309  0.00  0.00    +0.010 A 
ATOM     27  C   UNL     1       4.196  -4.824   1.638  0.00  0.00    +0.001 A 
ATOM     28  C   UNL     1       4.669  -6.061   2.051  0.00  0.00    +0.002 A 
ATOM     29  C   UNL     1       3.820  -7.142   2.148  0.00  0.00    +0.026 A 
ENDBRANCH  19  20
ENDBRANCH  18  19
ENDBRANCH   3  18
BRANCH   3  30
ATOM     30  C   UNL     1      -2.636  -4.085  -1.667  0.00  0.00    +0.142 C 
BRANCH  30  31
ATOM     31  C   UNL     1      -2.726  -4.463  -3.123  0.00  0.00    -0.030 A 
ATOM     32  C   UNL     1      -2.990  -3.494  -4.073  0.00  0.00    +0.005 A 
ATOM     33  C   UNL     1      -3.072  -3.841  -5.409  0.00  0.00    +0.004 A 
ATOM     34  C   UNL     1      -2.890  -5.156  -5.795  0.00  0.00    -0.042 A 
ATOM     35  C   UNL     1      -2.625  -6.124  -4.844  0.00  0.00    +0.004 A 
ATOM     36  C   UNL     1      -2.539  -5.777  -3.509  0.00  0.00    +0.005 A 
BRANCH  34  37
ATOM     37  C   UNL     1      -2.981  -5.534  -7.251  0.00  0.00    -0.013 C 
ATOM     38  C   UNL     1      -1.922  -4.766  -8.044  0.00  0.00    +0.015 C 
ATOM     39  C   UNL     1      -2.742  -7.037  -7.403  0.00  0.00    +0.015 C 
ATOM     40  C   UNL     1      -4.372  -5.181  -7.783  0.00  0.00    +0.015 C 
ENDBRANCH  34  37
ENDBRANCH  30  31
ENDBRANCH   3  30
TORSDOF 11
