REMARK  Name = ZINC12198665
REMARK  4 active torsions:
REMARK  status: ('A' for Active; 'I' for Inactive)
REMARK    1  A    between atoms: C_15  and  C_17
REMARK    2  A    between atoms: C_17  and  C_18
REMARK    3  A    between atoms: C_25  and  C_26
REMARK    4  A    between atoms: C_25  and  N_56
REMARK                            x       y       z     vdW  Elec       q    Type
REMARK                         _______ _______ _______ _____ _____    ______ ____
ROOT
ATOM      1  C   UNL     1       5.398   2.989  -1.621  0.00  0.00    +0.028 C 
ATOM      2  C   UNL     1       4.329   1.947  -1.445  0.00  0.00    +0.200 C 
ATOM      3  O   UNL     1       3.238   2.145  -1.936  0.00  0.00    -0.278 OA
ATOM      4  N   UNL     1       4.531   0.812  -0.768  0.00  0.00    -0.318 N 
ATOM      5  C   UNL     1       5.794   0.494  -0.109  0.00  0.00    +0.085 C 
ATOM      6  C   UNL     1       6.914   1.372  -0.671  0.00  0.00    -0.058 C 
ATOM      7  H   UNL     1       3.805   0.170  -0.714  0.00  0.00    +0.149 HD
ATOM      8  N   UNL     1       6.462   2.777  -0.621  0.00  0.00    +0.391 N 
ATOM      9  H   UNL     1       6.088   2.976   0.314  0.00  0.00    -0.080 HD
ENDROOT
BRANCH   1  10
ATOM     10  C   UNL     1       4.792   4.378  -1.415  0.00  0.00    +0.090 C 
BRANCH  10  25
ATOM     11  C   UNL     1       5.631  11.261   3.215  0.00  0.00    +0.001 A 
ATOM     12  C   UNL     1       5.665  11.996   2.042  0.00  0.00    +0.002 A 
ATOM     13  C   UNL     1       5.309  11.453   0.820  0.00  0.00    +0.026 A 
ATOM     14  C   UNL     1       4.907  10.118   0.815  0.00  0.00    +0.047 A 
ATOM     15  C   UNL     1       4.875   9.370   2.019  0.00  0.00    +0.003 A 
ATOM     16  C   UNL     1       5.240   9.944   3.241  0.00  0.00    +0.010 A 
ATOM     17  C   UNL     1       4.421   8.043   1.655  0.00  0.00    -0.016 A 
ATOM     18  C   UNL     1       4.210   8.052   0.321  0.00  0.00    +0.038 A 
ATOM     19  N   UNL     1       4.500   9.289  -0.190  0.00  0.00    -0.356 N 
ATOM     20  H   UNL     1       4.427   9.538  -1.125  0.00  0.00    +0.166 HD
ATOM     21  C   UNL     1       3.728   6.850  -0.453  0.00  0.00    +0.161 C 
ATOM     22  N   UNL     1       3.805   5.682   0.442  0.00  0.00    -0.295 N 
ATOM     23  C   UNL     1       3.325   5.830   1.824  0.00  0.00    +0.113 C 
ATOM     24  C   UNL     1       4.210   6.850   2.551  0.00  0.00    +0.056 C 
ATOM     25  C   UNL     1       4.306   4.509   0.006  0.00  0.00    +0.215 C 
ATOM     26  O   UNL     1       4.366   3.559   0.757  0.00  0.00    -0.276 OA
ENDBRANCH  10  25
ENDBRANCH   1  10
BRANCH   8  27
ATOM     27  C   UNL     1       7.598   3.686  -0.890  0.00  0.00    -0.039 C 
BRANCH  27  28
ATOM     28  C   UNL     1       8.566   3.615   0.264  0.00  0.00    -0.026 A 
ATOM     29  C   UNL     1       8.464   4.516   1.308  0.00  0.00    +0.005 A 
ATOM     30  C   UNL     1       9.350   4.451   2.366  0.00  0.00    +0.003 A 
ATOM     31  C   UNL     1      10.339   3.486   2.384  0.00  0.00    +0.041 A 
ATOM     32  C   UNL     1      10.444   2.583   1.340  0.00  0.00    +0.159 A 
ATOM     33  C   UNL     1       9.555   2.648   0.278  0.00  0.00    +0.160 A 
ATOM     34  F   UNL     1       9.655   1.768  -0.742  0.00  0.00    -0.202 F 
ATOM     35  F   UNL     1      11.411   1.640   1.356  0.00  0.00    -0.202 F 
ENDBRANCH  27  28
ENDBRANCH   8  27
TORSDOF 4
