REMARK  Name = ZINC39595369
REMARK  7 active torsions:
REMARK  status: ('A' for Active; 'I' for Inactive)
REMARK    1  A    between atoms: C_1  and  C_2
REMARK    2  A    between atoms: C_2  and  C_4
REMARK    3  A    between atoms: C_2  and  O_29
REMARK    4  A    between atoms: C_4  and  N_5
REMARK    5  A    between atoms: C_6  and  C_8
REMARK    6  A    between atoms: C_19  and  C_21
REMARK    7  A    between atoms: O_29  and  C_30
REMARK                            x       y       z     vdW  Elec       q    Type
REMARK                         _______ _______ _______ _____ _____    ______ ____
ROOT
ATOM      1  C   UNL     1       1.432  -3.633  -3.459  0.00  0.00    +0.100 C 
ATOM      2  C   UNL     1       0.101  -4.410  -3.569  0.00  0.00    +0.121 C 
ATOM      3  N   UNL     1      -0.143  -4.530  -5.026  0.00  0.00    -0.296 N 
ATOM      4  C   UNL     1       1.197  -4.791  -5.604  0.00  0.00    +0.115 C 
ATOM      5  C   UNL     1       2.150  -3.889  -4.795  0.00  0.00    -0.004 C 
ATOM      6  C   UNL     1       3.476  -4.604  -4.554  0.00  0.00    -0.010 C 
ATOM      7  C   UNL     1       4.198  -4.795  -5.891  0.00  0.00    -0.082 C 
ATOM      8  N   UNL     1       4.431  -3.487  -6.515  0.00  0.00    +0.379 N 
ATOM      9  C   UNL     1       3.147  -2.846  -6.829  0.00  0.00    -0.082 C 
ATOM     10  C   UNL     1       2.381  -2.573  -5.531  0.00  0.00    -0.010 C 
ATOM     11  C   UNL     1      -1.318  -4.426  -5.677  0.00  0.00    +0.248 C 
ATOM     12  O   UNL     1      -2.326  -4.122  -5.069  0.00  0.00    -0.270 OA
ATOM     13  H   UNL     1       4.952  -2.900  -5.880  0.00  0.00    -0.086 HD
ATOM     14  H   UNL     1       4.960  -3.610  -7.365  0.00  0.00    -0.086 HD
ENDROOT
BRANCH  11  15
ATOM     15  C   UNL     1      -1.382  -4.681  -7.131  0.00  0.00    +0.055 A 
ATOM     16  C   UNL     1      -0.586  -5.676  -7.704  0.00  0.00    +0.016 A 
ATOM     17  C   UNL     1      -0.649  -5.909  -9.060  0.00  0.00    +0.021 A 
ATOM     18  C   UNL     1      -1.500  -5.160  -9.857  0.00  0.00    +0.042 A 
ATOM     19  C   UNL     1      -2.292  -4.173  -9.297  0.00  0.00    +0.040 A 
ATOM     20  C   UNL     1      -2.243  -3.933  -7.938  0.00  0.00    +0.054 A 
ATOM     21 CL   UNL     1      -3.242  -2.700  -7.235  0.00  0.00    -0.083 Cl
ATOM     22 CL   UNL     1      -1.573  -5.461 -11.565  0.00  0.00    -0.083 Cl
ENDBRANCH  11  15
BRANCH   1  24
ATOM     23  N   UNL     1       2.105  -1.371  -2.720  0.00  0.00    -0.312 N 
ATOM     24  C   UNL     1       1.168  -2.160  -3.280  0.00  0.00    +0.218 C 
ATOM     25  O   UNL     1       0.111  -1.686  -3.638  0.00  0.00    -0.275 OA
ATOM     26  H   UNL     1       2.951  -1.750  -2.433  0.00  0.00    +0.149 HD
BRANCH  23  27
ATOM     27  C   UNL     1       1.848   0.061  -2.545  0.00  0.00    +0.148 C 
BRANCH  27  29
ATOM     28  C   UNL     1       2.748   2.189  -1.596  0.00  0.00    +0.053 C 
ATOM     29  C   UNL     1       3.063   0.722  -1.892  0.00  0.00    +0.187 C 
BRANCH  29  30
ATOM     30  O   UNL     1       4.181   0.644  -2.779  0.00  0.00    -0.488 OA
BRANCH  30  31
ATOM     31  C   UNL     1       5.419   0.709  -2.219  0.00  0.00    +0.121 A 
ATOM     32  C   UNL     1       5.554   0.789  -0.841  0.00  0.00    +0.048 A 
ATOM     33  C   UNL     1       6.812   0.855  -0.274  0.00  0.00    +0.042 A 
ATOM     34  C   UNL     1       7.937   0.840  -1.080  0.00  0.00    +0.124 A 
ATOM     35  C   UNL     1       7.804   0.760  -2.456  0.00  0.00    +0.042 A 
ATOM     36  C   UNL     1       6.547   0.688  -3.026  0.00  0.00    +0.048 A 
ATOM     37  F   UNL     1       9.167   0.904  -0.524  0.00  0.00    -0.205 F 
ENDBRANCH  30  31
ENDBRANCH  29  30
ENDBRANCH  27  29
ENDBRANCH  23  27
ENDBRANCH   1  24
TORSDOF 6
