REMARK  Name = ZINC35486155
REMARK  12 active torsions:
REMARK  status: ('A' for Active; 'I' for Inactive)
REMARK    1  A    between atoms: C_1  and  C_2
REMARK    2  A    between atoms: C_2  and  N_3
REMARK    3  A    between atoms: N_3  and  C_4
REMARK    4  A    between atoms: N_3  and  C_6
REMARK    5  A    between atoms: C_4  and  C_5
REMARK    6  A    between atoms: C_6  and  C_7
REMARK    7  A    between atoms: C_7  and  N_8
REMARK    8  A    between atoms: C_9  and  C_25
REMARK    9  A    between atoms: C_16  and  C_24
REMARK   10  A    between atoms: C_28  and  O_33
REMARK   11  A    between atoms: C_29  and  O_31
REMARK   12  A    between atoms: O_31  and  C_32
REMARK                            x       y       z     vdW  Elec       q    Type
REMARK                         _______ _______ _______ _____ _____    ______ ____
ROOT
ATOM      1  N   UNL     1       1.516  -3.419   3.099  0.00  0.00    -0.285 N 
ATOM      2  C   UNL     1       0.484  -4.329   3.621  0.00  0.00    +0.145 C 
ATOM      3  C   UNL     1       1.083  -5.696   3.572  0.00  0.00    +0.072 A 
ATOM      4  C   UNL     1       0.544  -7.003   3.966  0.00  0.00    +0.199 A 
ATOM      5  O   UNL     1      -0.624  -7.180   4.263  0.00  0.00    -0.287 OA
ATOM      6  C   UNL     1       1.558  -8.087   3.968  0.00  0.00    +0.065 A 
ATOM      7  C   UNL     1       1.254  -9.337   4.507  0.00  0.00    +0.018 A 
ATOM      8  C   UNL     1       2.200 -10.324   4.506  0.00  0.00    -0.050 A 
ATOM      9  C   UNL     1       3.459 -10.085   3.972  0.00  0.00    +0.007 A 
ATOM     10  C   UNL     1       3.776  -8.858   3.434  0.00  0.00    +0.047 A 
ATOM     11  C   UNL     1       2.827  -7.835   3.421  0.00  0.00    +0.139 A 
ATOM     12  O   UNL     1       3.156  -6.640   2.880  0.00  0.00    -0.450 OA
ATOM     13  C   UNL     1       2.345  -5.580   3.061  0.00  0.00    +0.199 A 
ATOM     14  C   UNL     1       2.596  -4.157   2.770  0.00  0.00    +0.283 C 
ATOM     15  O   UNL     1       3.627  -3.714   2.304  0.00  0.00    -0.267 OA
ATOM     16  C   UNL     1       1.876 -11.676   5.087  0.00  0.00    +0.044 C 
ENDROOT
BRANCH   2  17
ATOM     17  C   UNL     1      -0.749  -4.269   2.756  0.00  0.00    -0.019 A 
ATOM     18  C   UNL     1      -0.623  -4.197   1.381  0.00  0.00    +0.009 A 
ATOM     19  C   UNL     1      -1.751  -4.142   0.583  0.00  0.00    +0.049 A 
ATOM     20  C   UNL     1      -3.010  -4.158   1.160  0.00  0.00    +0.158 A 
ATOM     21  C   UNL     1      -3.136  -4.231   2.544  0.00  0.00    +0.162 A 
ATOM     22  C   UNL     1      -2.002  -4.291   3.338  0.00  0.00    +0.055 A 
BRANCH  21  23
ATOM     23  O   UNL     1      -4.370  -4.247   3.116  0.00  0.00    -0.491 OA
ATOM     24  C   UNL     1      -4.423  -4.322   4.542  0.00  0.00    +0.277 C 
ENDBRANCH  21  23
BRANCH  20  25
ATOM     25  O   UNL     1      -4.120  -4.103   0.377  0.00  0.00    -0.503 OA
ATOM     26  H   UNL     1      -4.451  -4.969   0.103  0.00  0.00    +0.292 HD
ENDBRANCH  20  25
ENDBRANCH   2  17
BRANCH   1  27
ATOM     27  C   UNL     1       1.390  -1.967   2.955  0.00  0.00    +0.090 C 
BRANCH  27  28
ATOM     28  C   UNL     1       0.821  -1.638   1.573  0.00  0.00    -0.060 C 
BRANCH  28  29
ATOM     29  N   UNL     1       0.820  -0.183   1.377  0.00  0.00    +0.380 N 
ATOM     30  H   UNL     1       0.328   0.259   2.140  0.00  0.00    -0.082 HD
BRANCH  29  32
ATOM     31  C   UNL     1       2.202   1.835   1.259  0.00  0.00    -0.017 C 
ATOM     32  C   UNL     1       2.204   0.307   1.338  0.00  0.00    -0.082 C 
ENDBRANCH  29  32
BRANCH  29  33
ATOM     33  C   UNL     1       0.149   0.141   0.111  0.00  0.00    -0.082 C 
ATOM     34  C   UNL     1      -1.331  -0.236   0.206  0.00  0.00    -0.017 C 
ENDBRANCH  29  33
ENDBRANCH  28  29
ENDBRANCH  27  28
ENDBRANCH   1  27
TORSDOF 8
