REMARK  Name = ZINC03301909
REMARK  5 active torsions:
REMARK  status: ('A' for Active; 'I' for Inactive)
REMARK    1  A    between atoms: C_4  and  C_7
REMARK    2  A    between atoms: C_16  and  C_18
REMARK    3  A    between atoms: C_24  and  C_26
REMARK    4  A    between atoms: C_26  and  S_27
REMARK    5  A    between atoms: S_27  and  C_28
REMARK                            x       y       z     vdW  Elec       q    Type
REMARK                         _______ _______ _______ _____ _____    ______ ____
ROOT
ATOM      1  C   UNL     1      -1.099  -0.738   0.240  0.00  0.00    +0.013 C 
ATOM      2  C   UNL     1       0.031  -0.016   0.145  0.00  0.00    -0.024 C 
ATOM      3  C   UNL     1       1.403  -0.664   0.076  0.00  0.00    +0.037 C 
ATOM      4  C   UNL     1       2.355   0.128   0.980  0.00  0.00    +0.009 C 
ATOM      5  C   UNL     1       2.518   1.557   0.453  0.00  0.00    +0.035 C 
ATOM      6  C   UNL     1       1.159   2.170   0.242  0.00  0.00    -0.021 C 
ATOM      7  C   UNL     1       0.021   1.466   0.102  0.00  0.00    +0.049 C 
ATOM      8  N   UNL     1      -1.065   2.302  -0.082  0.00  0.00    -0.261 N 
ATOM      9  N   UNL     1      -0.657   3.645  -0.059  0.00  0.00    -0.210 N 
ATOM     10  C   UNL     1       0.802   3.629   0.148  0.00  0.00    +0.155 C 
ATOM     11  C   UNL     1      -1.442   4.731  -0.202  0.00  0.00    +0.243 C 
ATOM     12  O   UNL     1      -0.954   5.841  -0.166  0.00  0.00    -0.273 OA
ATOM     13  H   UNL     1      -1.980   2.003  -0.206  0.00  0.00    +0.170 HD
ENDROOT
BRANCH   1  17
ATOM     14  C   UNL     1      -0.955  -4.962  -0.130  0.00  0.00    +0.000 A 
ATOM     15  C   UNL     1      -0.059  -4.178  -0.836  0.00  0.00    +0.001 A 
ATOM     16  C   UNL     1      -0.100  -2.805  -0.721  0.00  0.00    +0.008 A 
ATOM     17  C   UNL     1      -1.049  -2.204   0.112  0.00  0.00    -0.025 A 
ATOM     18  C   UNL     1      -1.947  -3.003   0.826  0.00  0.00    +0.008 A 
ATOM     19  C   UNL     1      -1.898  -4.375   0.696  0.00  0.00    +0.001 A 
ENDBRANCH   1  17
BRANCH  10  20
ATOM     20  C   UNL     1       1.505   4.267  -1.023  0.00  0.00    -0.021 A 
ATOM     21  C   UNL     1       1.005   4.104  -2.301  0.00  0.00    +0.006 A 
ATOM     22  C   UNL     1       1.647   4.693  -3.374  0.00  0.00    +0.000 A 
ATOM     23  C   UNL     1       2.794   5.437  -3.170  0.00  0.00    +0.000 A 
ATOM     24  C   UNL     1       3.297   5.595  -1.892  0.00  0.00    +0.000 A 
ATOM     25  C   UNL     1       2.652   5.010  -0.818  0.00  0.00    +0.006 A 
ENDBRANCH  10  20
BRANCH  11  26
ATOM     26  C   UNL     1      -2.926   4.567  -0.406  0.00  0.00    +0.174 C 
BRANCH  26  27
ATOM     27  S   UNL     1      -3.697   6.197  -0.564  0.00  0.00    -0.078 S 
BRANCH  27  28
ATOM     28  C   UNL     1      -5.378   5.720  -0.787  0.00  0.00    +0.169 A 
ATOM     29  N   UNL     1      -6.331   6.680  -0.944  0.00  0.00    -0.302 N 
ATOM     30  H   UNL     1      -6.084   7.618  -0.933  0.00  0.00    +0.171 HD
ATOM     31  C   UNL     1      -7.621   6.322  -1.120  0.00  0.00    +0.252 A 
ATOM     32  O   UNL     1      -8.487   7.168  -1.268  0.00  0.00    -0.268 OA
ATOM     33  C   UNL     1      -7.948   4.954  -1.126  0.00  0.00    +0.090 A 
ATOM     34  C   UNL     1      -6.951   4.037  -0.958  0.00  0.00    +0.119 A 
ATOM     35  N   UNL     1      -5.693   4.439  -0.793  0.00  0.00    -0.232 NA
ENDBRANCH  27  28
ENDBRANCH  26  27
ENDBRANCH  11  26
TORSDOF 5
