REMARK  Name = ZINC04150008
REMARK  8 active torsions:
REMARK  status: ('A' for Active; 'I' for Inactive)
REMARK    1  A    between atoms: C_1  and  C_2
REMARK    2  A    between atoms: N_9  and  S_10
REMARK    3  A    between atoms: S_10  and  C_13
REMARK    4  A    between atoms: C_21  and  C_42
REMARK    5  A    between atoms: C_24  and  O_41
REMARK    6  A    between atoms: C_26  and  C_30
REMARK    7  A    between atoms: C_30  and  C_32
REMARK    8  A    between atoms: C_30  and  C_33
REMARK                            x       y       z     vdW  Elec       q    Type
REMARK                         _______ _______ _______ _____ _____    ______ ____
ROOT
ATOM      1  C   UNL     1       5.068  -1.448  -0.247  0.00  0.00    +0.014 C 
ATOM      2  C   UNL     1       4.564  -0.373   0.714  0.00  0.00    +0.042 C 
ATOM      3  C   UNL     1       3.048  -0.393   0.795  0.00  0.00    +0.057 A 
ATOM      4  C   UNL     1       2.323   0.731   0.562  0.00  0.00    +0.015 A 
ATOM      5  S   UNL     1       0.656   0.193   0.814  0.00  0.00    -0.056 S 
ATOM      6  C   UNL     1       1.025  -1.463   1.195  0.00  0.00    +0.178 A 
ATOM      7  N   UNL     1       2.339  -1.480   1.109  0.00  0.00    -0.228 NA
ATOM      8  N   UNL     1       0.158  -2.498   1.508  0.00  0.00    -0.194 N 
ATOM      9  C   UNL     1       2.857   2.068   0.176  0.00  0.00    +0.051 C 
ATOM     10  C   UNL     1       4.187   1.812  -0.562  0.00  0.00    -0.022 C 
ATOM     11  C   UNL     1       5.108   0.997   0.339  0.00  0.00    +0.033 C 
ATOM     12  C   UNL     1       5.423   1.776   1.621  0.00  0.00    +0.123 C 
ATOM     13  C   UNL     1       6.081   3.112   1.273  0.00  0.00    +0.029 C 
ATOM     14  C   UNL     1       5.128   3.934   0.404  0.00  0.00    +0.007 C 
ATOM     15  C   UNL     1       4.830   3.168  -0.882  0.00  0.00    +0.008 C 
ATOM     16  C   UNL     1       3.904   1.083  -1.886  0.00  0.00    +0.012 C 
ATOM     17  H   UNL     1       0.508  -3.382   1.701  0.00  0.00    +0.176 HD
ENDROOT
BRANCH   8  18
ATOM     18  S   UNL     1      -1.475  -2.225   1.552  0.00  0.00    +0.074 S 
ATOM     19  O   UNL     1      -2.085  -3.468   1.871  0.00  0.00    -0.150 OA
ATOM     20  O   UNL     1      -1.670  -1.057   2.337  0.00  0.00    -0.150 OA
BRANCH  18  21
ATOM     21  C   UNL     1      -1.980  -1.822  -0.086  0.00  0.00    +0.109 A 
ATOM     22  C   UNL     1      -1.984  -0.504  -0.503  0.00  0.00    +0.030 A 
ATOM     23  C   UNL     1      -2.376  -0.187  -1.790  0.00  0.00    +0.022 A 
ATOM     24  C   UNL     1      -2.774  -1.188  -2.658  0.00  0.00    +0.041 A 
ATOM     25  C   UNL     1      -2.775  -2.506  -2.239  0.00  0.00    +0.022 A 
ATOM     26  C   UNL     1      -2.378  -2.822  -0.953  0.00  0.00    +0.030 A 
ATOM     27 CL   UNL     1      -3.273  -0.790  -4.273  0.00  0.00    -0.084 Cl
ENDBRANCH  18  21
ENDBRANCH   8  18
BRANCH  13  28
ATOM     28  C   UNL     1       6.386   3.881   2.560  0.00  0.00    +0.078 C 
ATOM     29  C   UNL     1       5.080   4.179   3.298  0.00  0.00    +0.017 C 
BRANCH  28  30
ATOM     30  C   UNL     1       7.078   5.176   2.219  0.00  0.00    +0.219 C 
ATOM     31  O   UNL     1       6.434   6.200   2.124  0.00  0.00    -0.275 OA
ATOM     32  N   UNL     1       8.410   5.197   2.020  0.00  0.00    -0.300 N 
ATOM     33  C   UNL     1       9.165   3.942   2.046  0.00  0.00    +0.118 C 
ATOM     34  C   UNL     1       9.736   3.667   0.645  0.00  0.00    +0.088 C 
ATOM     35  S   UNL     1      10.767   5.080   0.151  0.00  0.00    -0.158 S 
ATOM     36  C   UNL     1       9.650   6.500   0.361  0.00  0.00    +0.088 C 
ATOM     37  C   UNL     1       9.087   6.473   1.787  0.00  0.00    +0.118 C 
ENDBRANCH  28  30
ENDBRANCH  13  28
BRANCH  12  38
ATOM     38  O   UNL     1       6.320   1.012   2.433  0.00  0.00    -0.391 OA
ATOM     39  H   UNL     1       6.490   1.399   3.302  0.00  0.00    +0.210 HD
ENDBRANCH  12  38
TORSDOF 5
