REMARK  Name = ZINC36753263
REMARK  3 active torsions:
REMARK  status: ('A' for Active; 'I' for Inactive)
REMARK    1  A    between atoms: C_1  and  C_2
REMARK    2  A    between atoms: C_5  and  C_7
REMARK    3  A    between atoms: C_10  and  C_12
REMARK                            x       y       z     vdW  Elec       q    Type
REMARK                         _______ _______ _______ _____ _____    ______ ____
ROOT
ATOM      1  C   UNL     1       1.320   0.160   2.233  0.00  0.00    +0.109 A 
ATOM      2  C   UNL     1       0.996   0.146   3.541  0.00  0.00    +0.046 A 
ATOM      3  C   UNL     1       1.809   1.105   4.177  0.00  0.00    +0.053 A 
ATOM      4  C   UNL     1       2.593   1.657   3.212  0.00  0.00    +0.173 A 
ATOM      5  O   UNL     1       2.289   1.069   2.039  0.00  0.00    -0.456 OA
ENDROOT
BRANCH   4   6
ATOM      6  C   UNL     1       3.606   2.713   3.417  0.00  0.00    +0.206 A 
ATOM      7  N   UNL     1       3.835   3.217   4.619  0.00  0.00    -0.201 NA
ATOM      8  C   UNL     1       4.756   4.158   4.724  0.00  0.00    +0.176 A 
ATOM      9  S   UNL     1       5.293   4.329   3.141  0.00  0.00    +0.049 S 
ATOM     10  N   UNL     1       4.316   3.181   2.408  0.00  0.00    -0.184 NA
ATOM     11  N   UNL     1       5.174   4.835   5.855  0.00  0.00    -0.336 N 
ATOM     12  H   UNL     1       4.774   4.635   6.715  0.00  0.00    +0.144 HD
ATOM     13  H   UNL     1       5.867   5.510   5.787  0.00  0.00    +0.144 HD
ENDBRANCH   4   6
BRANCH   1  17
ATOM     14  C   UNL     1      -0.019   1.526   0.010  0.00  0.00    +0.008 C 
ATOM     15  C   UNL     1       0.002  -0.004   0.002  0.00  0.00    -0.003 C 
ATOM     16  C   UNL     1       1.351  -0.691  -0.221  0.00  0.00    +0.015 C 
ATOM     17  C   UNL     1       0.703  -0.708   1.166  0.00  0.00    +0.058 C 
ENDBRANCH   1  17
TORSDOF 2
