REMARK  Name = ZINC39579518
REMARK  10 active torsions:
REMARK  status: ('A' for Active; 'I' for Inactive)
REMARK    1  A    between atoms: C_3  and  O_31
REMARK    2  A    between atoms: C_6  and  N_7
REMARK    3  A    between atoms: C_8  and  C_10
REMARK    4  A    between atoms: C_10  and  O_11
REMARK    5  A    between atoms: O_11  and  C_12
REMARK    6  A    between atoms: C_12  and  C_14
REMARK    7  A    between atoms: C_14  and  C_15
REMARK    8  A    between atoms: C_15  and  N_16
REMARK    9  A    between atoms: N_19  and  C_20
REMARK   10  A    between atoms: O_31  and  C_32
REMARK                            x       y       z     vdW  Elec       q    Type
REMARK                         _______ _______ _______ _____ _____    ______ ____
ROOT
ATOM      1  C   UNL     1      -3.260  -5.049  -0.410  0.00  0.00    +0.309 C 
ATOM      2  O   UNL     1      -4.381  -4.598  -0.411  0.00  0.00    -0.251 OA
ENDROOT
BRANCH   1   3
ATOM      3  O   UNL     1      -2.205  -4.225  -0.309  0.00  0.00    -0.455 OA
BRANCH   3   4
ATOM      4  C   UNL     1      -2.482  -2.827  -0.204  0.00  0.00    +0.328 C 
BRANCH   4   6
ATOM      5  N   UNL     1      -1.202  -0.721   0.010  0.00  0.00    -0.283 N 
ATOM      6  C   UNL     1      -1.186  -2.064  -0.099  0.00  0.00    +0.255 C 
ATOM      7  O   UNL     1      -0.130  -2.660  -0.113  0.00  0.00    -0.272 OA
ATOM      8  H   UNL     1      -2.046  -0.251   0.098  0.00  0.00    +0.155 HD
BRANCH   5  14
ATOM      9  C   UNL     1       1.070  -0.455  -0.766  0.00  0.00    +0.027 A 
ATOM     10  C   UNL     1       2.256   0.253  -0.780  0.00  0.00    +0.049 A 
ATOM     11  C   UNL     1       2.381   1.414  -0.033  0.00  0.00    +0.145 A 
ATOM     12  C   UNL     1       1.312   1.866   0.731  0.00  0.00    +0.084 A 
ATOM     13  C   UNL     1       0.126   1.159   0.746  0.00  0.00    +0.047 A 
ATOM     14  C   UNL     1       0.002  -0.004  -0.004  0.00  0.00    +0.035 A 
ATOM     15 CL   UNL     1       1.469   3.319   1.668  0.00  0.00    -0.080 Cl
BRANCH  11  16
ATOM     16  O   UNL     1       3.549   2.110  -0.046  0.00  0.00    -0.433 OA
BRANCH  16  17
ATOM     17  C   UNL     1       4.606   1.588  -0.854  0.00  0.00    +0.541 C 
ATOM     18  F   UNL     1       4.939   0.303  -0.411  0.00  0.00    -0.166 F 
ATOM     19  F   UNL     1       4.188   1.528  -2.188  0.00  0.00    -0.166 F 
ENDBRANCH  16  17
ENDBRANCH  11  16
ENDBRANCH   5  14
ENDBRANCH   4   6
ENDBRANCH   3   4
ENDBRANCH   1   3
BRANCH   1  20
ATOM     20  C   UNL     1      -3.046  -6.536  -0.525  0.00  0.00    +0.139 C 
BRANCH  20  21
ATOM     21  C   UNL     1      -4.400  -7.240  -0.627  0.00  0.00    +0.117 C 
BRANCH  21  22
ATOM     22  N   UNL     1      -4.192  -8.686  -0.738  0.00  0.00    -0.299 N 
ATOM     23  C   UNL     1      -5.251  -9.514  -0.840  0.00  0.00    +0.300 C 
ATOM     24  O   UNL     1      -6.379  -9.060  -0.840  0.00  0.00    -0.253 OA
ATOM     25  N   UNL     1      -5.059 -10.844  -0.942  0.00  0.00    -0.294 N 
ATOM     26  H   UNL     1      -3.292  -9.048  -0.738  0.00  0.00    +0.150 HD
ATOM     27  H   UNL     1      -4.159 -11.206  -0.942  0.00  0.00    +0.151 HD
BRANCH  25  28
ATOM     28  C   UNL     1      -6.210 -11.743  -1.054  0.00  0.00    +0.037 C 
ATOM     29  C   UNL     1      -7.097 -11.591   0.184  0.00  0.00    +0.029 C 
ATOM     30  C   UNL     1      -8.299 -12.531   0.068  0.00  0.00    -0.008 C 
ATOM     31  C   UNL     1      -7.809 -13.976  -0.034  0.00  0.00    +0.007 C 
ATOM     32  C   UNL     1      -6.922 -14.128  -1.272  0.00  0.00    -0.008 C 
ATOM     33  C   UNL     1      -5.720 -13.189  -1.155  0.00  0.00    +0.029 C 
ATOM     34  C   UNL     1      -7.727 -13.774  -2.523  0.00  0.00    +0.007 C 
ATOM     35  C   UNL     1      -8.218 -12.328  -2.421  0.00  0.00    -0.008 C 
ATOM     36  C   UNL     1      -9.105 -12.176  -1.184  0.00  0.00    +0.007 C 
ATOM     37  C   UNL     1      -7.016 -11.388  -2.305  0.00  0.00    +0.029 C 
ENDBRANCH  25  28
ENDBRANCH  21  22
ENDBRANCH  20  21
ENDBRANCH   1  20
TORSDOF 10
