REMARK  Name = ZINC16569892
REMARK  8 active torsions:
REMARK  status: ('A' for Active; 'I' for Inactive)
REMARK    1  A    between atoms: C_1  and  C_2
REMARK    2  A    between atoms: C_5  and  C_8
REMARK    3  A    between atoms: C_22  and  C_24
REMARK    4  A    between atoms: C_24  and  N_25
REMARK    5  A    between atoms: N_25  and  C_26
REMARK    6  A    between atoms: N_31  and  C_32
REMARK    7  A    between atoms: C_37  and  O_38
REMARK    8  A    between atoms: O_38  and  C_39
REMARK                            x       y       z     vdW  Elec       q    Type
REMARK                         _______ _______ _______ _____ _____    ______ ____
ROOT
ATOM      1  C   UNL     1      -1.809   0.838   5.083  0.00  0.00    +0.159 C 
ATOM      2  C   UNL     1      -2.923   1.104   6.073  0.00  0.00    +0.049 A 
ATOM      3  C   UNL     1      -2.869   1.659   7.288  0.00  0.00    +0.025 A 
ATOM      4  C   UNL     1      -4.182   1.666   7.808  0.00  0.00    +0.020 A 
ATOM      5  C   UNL     1      -4.991   1.110   6.878  0.00  0.00    +0.092 A 
ATOM      6  N   UNL     1      -4.232   0.765   5.810  0.00  0.00    -0.316 N 
ATOM      7  C   UNL     1      -4.599   0.166   4.596  0.00  0.00    +0.068 A 
ATOM      8  C   UNL     1      -5.835  -0.423   4.418  0.00  0.00    +0.028 A 
ATOM      9  C   UNL     1      -6.142  -1.024   3.209  0.00  0.00    +0.002 A 
ATOM     10  C   UNL     1      -5.214  -1.033   2.184  0.00  0.00    +0.002 A 
ATOM     11  C   UNL     1      -3.977  -0.441   2.354  0.00  0.00    +0.025 A 
ATOM     12  C   UNL     1      -3.660   0.166   3.559  0.00  0.00    +0.061 A 
ATOM     13  N   UNL     1      -2.413   0.778   3.742  0.00  0.00    -0.255 N 
ATOM     14  C   UNL     1      -1.762   1.309   2.687  0.00  0.00    +0.238 C 
ATOM     15  O   UNL     1      -2.285   1.315   1.593  0.00  0.00    -0.273 OA
ENDROOT
BRANCH   1  20
ATOM     16  C   UNL     1       0.757  -4.194   6.304  0.00  0.00    +0.044 C 
ATOM     17  C   UNL     1       0.088  -2.881   5.985  0.00  0.00    -0.050 A 
ATOM     18  C   UNL     1       0.690  -1.692   6.351  0.00  0.00    +0.004 A 
ATOM     19  C   UNL     1       0.076  -0.488   6.059  0.00  0.00    +0.006 A 
ATOM     20  C   UNL     1      -1.140  -0.474   5.401  0.00  0.00    -0.021 A 
ATOM     21  C   UNL     1      -1.744  -1.664   5.040  0.00  0.00    +0.006 A 
ATOM     22  C   UNL     1      -1.128  -2.867   5.327  0.00  0.00    +0.004 A 
ENDBRANCH   1  20
BRANCH  14  23
ATOM     23  C   UNL     1      -0.385   1.894   2.868  0.00  0.00    +0.205 C 
BRANCH  23  24
ATOM     24  N   UNL     1       0.065   2.482   1.604  0.00  0.00    -0.274 N 
ATOM     25  C   UNL     1       0.746   1.732   0.716  0.00  0.00    +0.307 C 
ATOM     26  O   UNL     1       0.910   0.545   0.922  0.00  0.00    -0.252 OA
ATOM     27  N   UNL     1       1.245   2.296  -0.402  0.00  0.00    -0.266 N 
ATOM     28  H   UNL     1       1.155   3.252  -0.544  0.00  0.00    +0.156 HD
BRANCH  27  29
ATOM     29  C   UNL     1       1.894   1.503  -1.358  0.00  0.00    +0.077 A 
ATOM     30  C   UNL     1       2.471   0.298  -0.986  0.00  0.00    +0.027 A 
ATOM     31  C   UNL     1       3.107  -0.484  -1.931  0.00  0.00    +0.002 A 
ATOM     32  C   UNL     1       3.178  -0.064  -3.247  0.00  0.00    +0.004 A 
ATOM     33  C   UNL     1       2.610   1.139  -3.624  0.00  0.00    +0.047 A 
ATOM     34  C   UNL     1       1.967   1.926  -2.683  0.00  0.00    +0.141 A 
BRANCH  34  35
ATOM     35  O   UNL     1       1.409   3.110  -3.052  0.00  0.00    -0.493 OA
ATOM     36  C   UNL     1       1.522   3.480  -4.428  0.00  0.00    +0.277 C 
ENDBRANCH  34  35
ENDBRANCH  27  29
BRANCH  24  37
ATOM     37  C   UNL     1      -0.226   3.887   1.305  0.00  0.00    +0.078 C 
ATOM     38  C   UNL     1      -1.232   4.607   2.204  0.00  0.00    +0.024 C 
ATOM     39  C   UNL     1       0.258   4.937   2.307  0.00  0.00    +0.024 C 
ENDBRANCH  24  37
ENDBRANCH  23  24
ENDBRANCH  14  23
TORSDOF 6
