REMARK  Name = ZINC33829797
REMARK  12 active torsions:
REMARK  status: ('A' for Active; 'I' for Inactive)
REMARK    1  A    between atoms: C_1  and  C_2
REMARK    2  A    between atoms: C_2  and  C_3
REMARK    3  A    between atoms: C_16  and  O_35
REMARK    4  A    between atoms: N_19  and  C_34
REMARK    5  A    between atoms: C_22  and  C_29
REMARK    6  A    between atoms: C_22  and  O_33
REMARK    7  A    between atoms: C_23  and  C_25
REMARK    8  A    between atoms: C_25  and  O_27
REMARK    9  A    between atoms: O_27  and  C_28
REMARK   10  A    between atoms: C_29  and  O_31
REMARK   11  A    between atoms: O_31  and  C_32
REMARK   12  A    between atoms: O_35  and  C_36
REMARK                            x       y       z     vdW  Elec       q    Type
REMARK                         _______ _______ _______ _____ _____    ______ ____
ROOT
ATOM      1  C   UNL     1       2.398   1.301  -0.239  0.00  0.00    -0.006 C 
ATOM      2  C   UNL     1       1.750   0.116   0.395  0.00  0.00    -0.027 C 
ATOM      3  C   UNL     1       0.582  -0.297  -0.005  0.00  0.00    -0.049 C 
ATOM      4  C   UNL     1      -0.120   0.426  -1.109  0.00  0.00    -0.051 C 
ATOM      5  N   UNL     1       0.149   1.841  -1.166  0.00  0.00    +0.385 N 
ATOM      6  C   UNL     1       1.468   2.336  -0.759  0.00  0.00    -0.045 C 
ATOM      7  C   UNL     1       2.005   3.155  -1.903  0.00  0.00    +0.006 C 
ATOM      8  C   UNL     1       1.264   2.611  -3.142  0.00  0.00    -0.007 C 
ATOM      9  C   UNL     1      -0.145   2.370  -2.524  0.00  0.00    -0.077 C 
ATOM     10  C   UNL     1       1.767   4.640  -1.880  0.00  0.00    -0.020 A 
ATOM     11  C   UNL     1       0.801   5.425  -1.304  0.00  0.00    +0.009 A 
ATOM     12  C   UNL     1       0.890   6.796  -1.514  0.00  0.00    +0.046 A 
ATOM     13  C   UNL     1       1.904   7.346  -2.281  0.00  0.00    +0.122 A 
ATOM     14  C   UNL     1       2.888   6.556  -2.873  0.00  0.00    +0.069 A 
ATOM     15  C   UNL     1       2.820   5.189  -2.653  0.00  0.00    +0.037 A 
ATOM     16  N   UNL     1       3.679   4.156  -3.094  0.00  0.00    -0.325 N 
ATOM     17  C   UNL     1       3.525   3.172  -2.006  0.00  0.00    +0.126 C 
ATOM     18  C   UNL     1       4.192   1.845  -2.037  0.00  0.00    +0.195 C 
ATOM     19  C   UNL     1       3.719   0.995  -0.855  0.00  0.00    +0.150 C 
ATOM     20  C   UNL     1       5.062   4.642  -3.177  0.00  0.00    +0.129 C 
ATOM     21  H   UNL     1      -0.523   2.191  -0.369  0.00  0.00    -0.081 HD
ENDROOT
BRANCH   1  23
ATOM     22  C   UNL     1       1.680   2.151   2.003  0.00  0.00    +0.004 C 
ATOM     23  C   UNL     1       2.865   1.996   1.048  0.00  0.00    +0.007 C 
ENDBRANCH   1  23
BRANCH  19  24
ATOM     24  C   UNL     1       3.722  -0.453  -1.293  0.00  0.00    +0.314 C 
ATOM     25  O   UNL     1       2.788  -0.897  -1.918  0.00  0.00    -0.250 OA
BRANCH  24  26
ATOM     26  O   UNL     1       4.761  -1.245  -0.987  0.00  0.00    -0.468 OA
ATOM     27  C   UNL     1       4.696  -2.623  -1.440  0.00  0.00    +0.280 C 
ENDBRANCH  24  26
ENDBRANCH  19  24
BRANCH  18  28
ATOM     28  C   UNL     1       4.019   1.106  -3.339  0.00  0.00    +0.342 C 
ATOM     29  O   UNL     1       3.315   1.567  -4.206  0.00  0.00    -0.247 OA
BRANCH  28  30
ATOM     30  O   UNL     1       4.647  -0.064  -3.536  0.00  0.00    -0.466 OA
ATOM     31  C   UNL     1       4.434  -0.719  -4.814  0.00  0.00    +0.280 C 
ENDBRANCH  28  30
ENDBRANCH  18  28
BRANCH  18  32
ATOM     32  O   UNL     1       5.623   2.044  -1.860  0.00  0.00    -0.375 OA
ATOM     33  H   UNL     1       6.301   1.178  -1.853  0.00  0.00    +0.211 HD
ENDBRANCH  18  32
BRANCH  13  34
ATOM     34  O   UNL     1       1.942   8.692  -2.464  0.00  0.00    -0.495 OA
ATOM     35  C   UNL     1       0.912   9.460  -1.838  0.00  0.00    +0.277 C 
ENDBRANCH  13  34
TORSDOF 7
