REMARK  Name = ZINC12297707
REMARK  11 active torsions:
REMARK  status: ('A' for Active; 'I' for Inactive)
REMARK    1  A    between atoms: C_1  and  N_60
REMARK    2  A    between atoms: C_2  and  C_3
REMARK    3  A    between atoms: C_2  and  N_60
REMARK    4  A    between atoms: C_8  and  O_9
REMARK    5  A    between atoms: O_9  and  C_10
REMARK    6  A    between atoms: C_10  and  C_11
REMARK    7  A    between atoms: C_11  and  C_13
REMARK    8  A    between atoms: C_11  and  O_19
REMARK    9  A    between atoms: C_13  and  N_62
REMARK   10  A    between atoms: C_20  and  C_21
REMARK   11  A    between atoms: C_20  and  N_60
REMARK                            x       y       z     vdW  Elec       q    Type
REMARK                         _______ _______ _______ _____ _____    ______ ____
ROOT
ATOM      1  C   UNL     1      -2.723   8.969  -4.940  0.00  0.00    -0.022 A 
ATOM      2  C   UNL     1      -3.129   9.591  -6.105  0.00  0.00    +0.005 A 
ATOM      3  C   UNL     1      -3.303   8.852  -7.260  0.00  0.00    +0.000 A 
ATOM      4  C   UNL     1      -3.071   7.489  -7.253  0.00  0.00    +0.004 A 
ATOM      5  C   UNL     1      -2.659   6.863  -6.093  0.00  0.00    +0.046 A 
ATOM      6  C   UNL     1      -2.490   7.601  -4.930  0.00  0.00    +0.122 A 
ENDROOT
BRANCH   1   7
ATOM      7  C   UNL     1      -2.533   9.775  -3.681  0.00  0.00    -0.039 C 
BRANCH   7   9
ATOM      8  C   UNL     1      -0.596  10.939  -4.550  0.00  0.00    -0.095 C 
ATOM      9  N   UNL     1      -1.090  10.033  -3.493  0.00  0.00    +0.384 N 
ATOM     10  H   UNL     1      -0.582   9.142  -3.553  0.00  0.00    -0.081 HD
BRANCH   9  11
ATOM     11  C   UNL     1      -0.853  10.632  -2.162  0.00  0.00    -0.025 C 
BRANCH  11  12
ATOM     12  C   UNL     1       0.632  10.680  -1.908  0.00  0.00    +0.000 A 
ATOM     13  C   UNL     1       1.418  11.744  -2.133  0.00  0.00    +0.029 A 
ATOM     14  C   UNL     1       2.779  11.360  -1.752  0.00  0.00    +0.003 A 
ATOM     15  C   UNL     1       4.010  12.019  -1.755  0.00  0.00    +0.048 A 
ATOM     16  C   UNL     1       5.139  11.358  -1.321  0.00  0.00    +0.124 A 
ATOM     17  C   UNL     1       5.056  10.042  -0.881  0.00  0.00    +0.040 A 
ATOM     18  C   UNL     1       3.848   9.380  -0.872  0.00  0.00    +0.029 A 
ATOM     19  C   UNL     1       2.697  10.028  -1.306  0.00  0.00    +0.047 A 
ATOM     20  N   UNL     1       1.377   9.647  -1.409  0.00  0.00    -0.360 N 
ATOM     21  H   UNL     1       1.028   8.775  -1.165  0.00  0.00    +0.166 HD
ATOM     22  F   UNL     1       6.332  11.993  -1.323  0.00  0.00    -0.205 F 
ENDBRANCH  11  12
ENDBRANCH   9  11
ENDBRANCH   7   9
ENDBRANCH   1   7
BRANCH   6  23
ATOM     23  O   UNL     1      -2.090   6.987  -3.786  0.00  0.00    -0.489 OA
BRANCH  23  24
ATOM     24  C   UNL     1      -1.869   5.577  -3.850  0.00  0.00    +0.258 C 
BRANCH  24  25
ATOM     25  C   UNL     1      -1.428   5.067  -2.476  0.00  0.00    +0.135 C 
BRANCH  25  26
ATOM     26  O   UNL     1      -2.493   5.240  -1.539  0.00  0.00    -0.390 OA
ATOM     27  H   UNL     1      -3.303   4.767  -1.773  0.00  0.00    +0.210 HD
ENDBRANCH  25  26
BRANCH  25  28
ATOM     28  C   UNL     1      -1.071   3.582  -2.574  0.00  0.00    -0.044 C 
BRANCH  28  34
ATOM     29  C   UNL     1      -1.580   2.962  -0.293  0.00  0.00    -0.068 C 
ATOM     30  C   UNL     1      -1.082   2.073   0.853  0.00  0.00    +0.050 C 
ATOM     31  S   UNL     1       0.339   2.894   1.640  0.00  0.00    -0.164 S 
ATOM     32  C   UNL     1       1.404   3.299   0.221  0.00  0.00    +0.050 C 
ATOM     33  C   UNL     1       0.552   4.013  -0.835  0.00  0.00    -0.068 C 
ATOM     34  N   UNL     1      -0.505   3.091  -1.305  0.00  0.00    +0.382 N 
ATOM     35  H   UNL     1      -0.089   2.166  -1.463  0.00  0.00    -0.082 HD
ENDBRANCH  28  34
ENDBRANCH  25  28
ENDBRANCH  24  25
ENDBRANCH  23  24
ENDBRANCH   6  23
TORSDOF 10
