REMARK  Name = ZINC37559900
REMARK  2 active torsions:
REMARK  status: ('A' for Active; 'I' for Inactive)
REMARK    1  A    between atoms: C_2  and  S_8
REMARK    2  A    between atoms: S_8  and  N_11
REMARK                            x       y       z     vdW  Elec       q    Type
REMARK                         _______ _______ _______ _____ _____    ______ ____
ROOT
ATOM      1  S   UNL     1       1.793   3.459   0.004  0.00  0.00    +0.066 S 
ATOM      2  O   UNL     1       2.759   3.584  -1.031  0.00  0.00    -0.153 OA
ATOM      3  O   UNL     1       0.616   4.254   0.047  0.00  0.00    -0.153 OA
ENDROOT
BRANCH   1   4
ATOM      4  N   UNL     1       2.592   3.718   1.431  0.00  0.00    -0.176 NA
ATOM      5  C   UNL     1       1.865   4.169   2.625  0.00  0.00    +0.110 C 
ATOM      6  C   UNL     1       2.541   5.433   3.165  0.00  0.00    +0.021 C 
ATOM      7  C   UNL     1       4.026   5.150   3.407  0.00  0.00    -0.005 C 
ATOM      8  C   UNL     1       4.695   6.410   3.965  0.00  0.00    +0.004 C 
ATOM      9  C   UNL     1       4.530   7.556   2.965  0.00  0.00    +0.000 C 
ATOM     10  C   UNL     1       5.189   7.176   1.637  0.00  0.00    +0.000 C 
ATOM     11  C   UNL     1       4.528   5.913   1.082  0.00  0.00    +0.005 C 
ATOM     12  C   UNL     1       4.694   4.761   2.085  0.00  0.00    +0.008 C 
ATOM     13  C   UNL     1       4.041   3.495   1.530  0.00  0.00    +0.113 C 
ENDBRANCH   1   4
BRANCH   1  15
ATOM     14  C   UNL     1      -0.016   1.345   0.009  0.00  0.00    +0.135 A 
ATOM     15  C   UNL     1       1.265   1.778  -0.001  0.00  0.00    +0.164 A 
ATOM     16  C   UNL     1       2.101   0.649  -0.015  0.00  0.00    +0.164 A 
ATOM     17  N   UNL     1       1.339  -0.420  -0.013  0.00  0.00    -0.157 NA
ATOM     18  N   UNL     1       0.002  -0.004   0.002  0.00  0.00    -0.281 N 
ATOM     19  H   UNL     1      -0.775  -0.585   0.007  0.00  0.00    +0.188 HD
ATOM     20  N   UNL     1       3.500   0.662  -0.029  0.00  0.00    -0.340 N 
ATOM     21  H   UNL     1       3.978   1.506  -0.029  0.00  0.00    +0.144 HD
ATOM     22  H   UNL     1       3.993  -0.174  -0.038  0.00  0.00    +0.144 HD
ENDBRANCH   1  15
TORSDOF 2
