REMARK  Name = ZINC20323622
REMARK  8 active torsions:
REMARK  status: ('A' for Active; 'I' for Inactive)
REMARK    1  A    between atoms: C_1  and  C_2
REMARK    2  A    between atoms: C_5  and  S_8
REMARK    3  A    between atoms: S_8  and  N_11
REMARK    4  A    between atoms: N_11  and  N_12
REMARK    5  A    between atoms: C_14  and  C_23
REMARK    6  A    between atoms: N_25  and  C_26
REMARK    7  A    between atoms: C_30  and  S_32
REMARK    8  A    between atoms: S_32  and  C_33
REMARK                            x       y       z     vdW  Elec       q    Type
REMARK                         _______ _______ _______ _____ _____    ______ ____
ROOT
ATOM      1  N   UNL     1      -4.030  -1.456   0.303  0.00  0.00    -0.260 N 
ATOM      2  C   UNL     1      -4.973  -0.928   1.031  0.00  0.00    +0.225 A 
ATOM      3  C   UNL     1      -5.255   0.525   0.977  0.00  0.00    +0.099 A 
ATOM      4  C   UNL     1      -6.534   0.929   1.280  0.00  0.00    +0.030 A 
ATOM      5  C   UNL     1      -7.508  -0.110   1.635  0.00  0.00    +0.018 A 
ATOM      6  C   UNL     1      -8.875   0.182   1.692  0.00  0.00    +0.011 A 
ATOM      7  C   UNL     1      -9.771  -0.811   2.024  0.00  0.00    +0.001 A 
ATOM      8  C   UNL     1      -9.325  -2.093   2.301  0.00  0.00    +0.004 A 
ATOM      9  C   UNL     1      -7.977  -2.395   2.251  0.00  0.00    +0.047 A 
ATOM     10  C   UNL     1      -7.060  -1.412   1.920  0.00  0.00    +0.137 A 
ATOM     11  O   UNL     1      -5.733  -1.693   1.871  0.00  0.00    -0.437 OA
ATOM     12  H   UNL     1      -3.328  -0.809  -0.243  0.00  0.00    +0.189 HD
ENDROOT
BRANCH   3  13
ATOM     13  C   UNL     1      -4.212   1.496   0.609  0.00  0.00    +0.253 C 
ATOM     14  O   UNL     1      -4.450   2.689   0.648  0.00  0.00    -0.270 OA
ATOM     15  N   UNL     1      -2.993   1.064   0.230  0.00  0.00    -0.281 N 
ATOM     16  H   UNL     1      -2.803  -0.013   0.114  0.00  0.00    +0.155 HD
BRANCH  15  17
ATOM     17  C   UNL     1      -1.970   1.985  -0.016  0.00  0.00    +0.035 A 
ATOM     18  C   UNL     1      -2.279   3.312  -0.288  0.00  0.00    +0.023 A 
ATOM     19  C   UNL     1      -1.270   4.222  -0.537  0.00  0.00    +0.003 A 
ATOM     20  C   UNL     1       0.051   3.817  -0.510  0.00  0.00    +0.015 A 
ATOM     21  C   UNL     1       0.368   2.493  -0.233  0.00  0.00    +0.009 A 
ATOM     22  C   UNL     1      -0.644   1.576   0.017  0.00  0.00    +0.038 A 
BRANCH  21  23
ATOM     23  S   UNL     1       2.053   1.977  -0.199  0.00  0.00    -0.129 S 
ATOM     24  C   UNL     1       2.982   3.489  -0.577  0.00  0.00    +0.090 C 
ENDBRANCH  21  23
ENDBRANCH  15  17
ENDBRANCH   3  13
BRANCH   1  25
ATOM     25  N   UNL     1      -3.909  -2.850   0.218  0.00  0.00    -0.157 N 
ATOM     26  H   UNL     1      -4.607  -3.420   0.576  0.00  0.00    +0.194 HD
BRANCH  25  27
ATOM     27  S   UNL     1      -2.574  -3.523  -0.495  0.00  0.00    +0.085 S 
ATOM     28  O   UNL     1      -2.684  -4.928  -0.317  0.00  0.00    -0.149 OA
ATOM     29  O   UNL     1      -2.453  -2.924  -1.778  0.00  0.00    -0.149 OA
BRANCH  27  34
ATOM     30  C   UNL     1       2.234  -1.753   2.692  0.00  0.00    +0.044 C 
ATOM     31  C   UNL     1       1.033  -2.195   1.897  0.00  0.00    -0.050 A 
ATOM     32  C   UNL     1       0.306  -3.299   2.299  0.00  0.00    +0.005 A 
ATOM     33  C   UNL     1      -0.796  -3.705   1.569  0.00  0.00    +0.029 A 
ATOM     34  C   UNL     1      -1.170  -3.006   0.436  0.00  0.00    +0.110 A 
ATOM     35  C   UNL     1      -0.439  -1.904   0.031  0.00  0.00    +0.029 A 
ATOM     36  C   UNL     1       0.659  -1.496   0.764  0.00  0.00    +0.005 A 
ENDBRANCH  27  34
ENDBRANCH  25  27
ENDBRANCH   1  25
TORSDOF 6
