REMARK  Name = ZINC60211208
REMARK  9 active torsions:
REMARK  status: ('A' for Active; 'I' for Inactive)
REMARK    1  A    between atoms: C_1  and  C_2
REMARK    2  A    between atoms: C_2  and  N_3
REMARK    3  A    between atoms: N_3  and  C_4
REMARK    4  A    between atoms: N_3  and  S_6
REMARK    5  A    between atoms: C_4  and  C_5
REMARK    6  A    between atoms: S_6  and  C_9
REMARK    7  A    between atoms: C_13  and  C_15
REMARK    8  A    between atoms: C_15  and  N_17
REMARK    9  A    between atoms: N_26  and  C_27
REMARK                            x       y       z     vdW  Elec       q    Type
REMARK                         _______ _______ _______ _____ _____    ______ ____
ROOT
ATOM      1  C   UNL     1      -0.343   0.575  -3.535  0.00  0.00    +0.106 A 
ATOM      2  C   UNL     1      -1.421   1.421  -3.346  0.00  0.00    +0.030 A 
ATOM      3  C   UNL     1      -1.553   2.565  -4.112  0.00  0.00    +0.022 A 
ATOM      4  C   UNL     1      -0.607   2.869  -5.072  0.00  0.00    +0.053 A 
ATOM      5  C   UNL     1       0.483   2.018  -5.267  0.00  0.00    +0.059 A 
ATOM      6  C   UNL     1       0.611   0.869  -4.486  0.00  0.00    +0.043 A 
ATOM      7 CL   UNL     1      -0.773   4.305  -6.034  0.00  0.00    -0.083 Cl
ENDROOT
BRANCH   1   8
ATOM      8  S   UNL     1      -0.186  -0.880  -2.554  0.00  0.00    +0.061 S 
ATOM      9  O   UNL     1       0.623  -1.784  -3.294  0.00  0.00    -0.153 OA
ATOM     10  O   UNL     1      -1.494  -1.215  -2.111  0.00  0.00    -0.153 OA
BRANCH   8  11
ATOM     11  N   UNL     1       0.679  -0.469  -1.203  0.00  0.00    -0.177 NA
BRANCH  11  13
ATOM     12  C   UNL     1      -0.049   1.533  -0.002  0.00  0.00    +0.022 C 
ATOM     13  C   UNL     1      -0.016   0.003  -0.003  0.00  0.00    +0.106 C 
ENDBRANCH  11  13
BRANCH  11  14
ATOM     14  C   UNL     1       2.141  -0.577  -1.208  0.00  0.00    +0.106 C 
ATOM     15  C   UNL     1       2.554  -1.925  -0.617  0.00  0.00    +0.022 C 
ENDBRANCH  11  14
ENDBRANCH   8  11
ENDBRANCH   1   8
BRANCH   5  16
ATOM     16  C   UNL     1       1.500   2.337  -6.294  0.00  0.00    +0.272 C 
ATOM     17  O   UNL     1       1.388   3.344  -6.971  0.00  0.00    -0.268 OA
BRANCH  16  18
ATOM     18  N   UNL     1       2.543   1.520  -6.479  0.00  0.00    -0.142 NA
ATOM     19  C   UNL     1       3.399   1.749  -7.467  0.00  0.00    +0.201 A 
ATOM     20  N   UNL     1       3.389   2.838  -8.282  0.00  0.00    -0.326 N 
ATOM     21  C   UNL     1       4.439   2.715  -9.188  0.00  0.00    +0.067 A 
ATOM     22  C   UNL     1       4.892   3.517 -10.226  0.00  0.00    +0.047 A 
ATOM     23  C   UNL     1       5.987   3.123 -10.971  0.00  0.00    +0.043 A 
ATOM     24  C   UNL     1       6.634   1.932 -10.686  0.00  0.00    +0.022 A 
ATOM     25  C   UNL     1       6.190   1.128  -9.655  0.00  0.00    +0.029 A 
ATOM     26  C   UNL     1       5.092   1.514  -8.900  0.00  0.00    +0.068 A 
ATOM     27  N   UNL     1       4.429   0.934  -7.823  0.00  0.00    -0.315 N 
ATOM     28  C   UNL     1       4.778  -0.337  -7.184  0.00  0.00    +0.152 C 
ATOM     29 CL   UNL     1       6.553   4.126 -12.270  0.00  0.00    -0.083 Cl
ATOM     30  H   UNL     1       2.759   3.574  -8.240  0.00  0.00    +0.169 HD
ENDBRANCH  16  18
ENDBRANCH   5  16
TORSDOF 6
