REMARK  Name = ZINC18054115
REMARK  1 active torsions:
REMARK  status: ('A' for Active; 'I' for Inactive)
REMARK    1  A    between atoms: C_10  and  N_11
REMARK                            x       y       z     vdW  Elec       q    Type
REMARK                         _______ _______ _______ _____ _____    ______ ____
ROOT
ATOM      1  N   UNL     1       4.858   0.099  -0.079  0.00  0.00    -0.327 N 
ATOM      2  C   UNL     1       6.055  -0.572   0.022  0.00  0.00    +0.180 C 
ATOM      3  N   UNL     1       6.076  -1.874   0.008  0.00  0.00    -0.371 N 
ATOM      4  N   UNL     1       7.235   0.136   0.137  0.00  0.00    -0.298 N 
ATOM      5  C   UNL     1       7.226   1.506   0.042  0.00  0.00    +0.212 A 
ATOM      6  N   UNL     1       6.076   2.142  -0.035  0.00  0.00    -0.175 NA
ATOM      7  C   UNL     1       6.039   3.478  -0.128  0.00  0.00    +0.278 A 
ATOM      8  O   UNL     1       4.967   4.060  -0.198  0.00  0.00    -0.265 OA
ATOM      9  C   UNL     1       7.253   4.214  -0.145  0.00  0.00    +0.038 A 
ATOM     10  C   UNL     1       8.422   3.546  -0.066  0.00  0.00    +0.027 A 
ATOM     11  N   UNL     1       8.404   2.182   0.034  0.00  0.00    -0.329 N 
ATOM     12  C   UNL     1       9.583   4.514  -0.101  0.00  0.00    +0.054 C 
ATOM     13  C   UNL     1       8.989   5.832  -0.644  0.00  0.00    +0.011 C 
ATOM     14  C   UNL     1       7.504   5.702  -0.242  0.00  0.00    +0.043 C 
ATOM     15  H   UNL     1       4.848   1.066  -0.157  0.00  0.00    +0.169 HD
ATOM     16  H   UNL     1       6.910  -2.347   0.153  0.00  0.00    +0.159 HD
ATOM     17  H   UNL     1       5.257  -2.370  -0.147  0.00  0.00    +0.159 HD
ATOM     18  H   UNL     1       8.070  -0.335   0.284  0.00  0.00    +0.172 HD
ATOM     19  H   UNL     1       9.239   1.693   0.096  0.00  0.00    +0.168 HD
ENDROOT
BRANCH   1  29
ATOM     20  C   UNL     1       2.424  -2.709   3.336  0.00  0.00    +0.001 A 
ATOM     21  C   UNL     1       3.627  -2.006   3.346  0.00  0.00    +0.001 A 
ATOM     22  C   UNL     1       4.045  -1.318   2.249  0.00  0.00    +0.010 A 
ATOM     23  C   UNL     1       3.256  -1.314   1.088  0.00  0.00    +0.006 A 
ATOM     24  C   UNL     1       2.032  -2.028   1.077  0.00  0.00    -0.016 A 
ATOM     25  C   UNL     1       1.633  -2.727   2.229  0.00  0.00    +0.008 A 
ATOM     26  C   UNL     1       1.241  -2.026  -0.085  0.00  0.00    +0.008 A 
ATOM     27  C   UNL     1       1.653  -1.340  -1.187  0.00  0.00    +0.003 A 
ATOM     28  C   UNL     1       2.852  -0.635  -1.187  0.00  0.00    +0.026 A 
ATOM     29  C   UNL     1       3.657  -0.612  -0.068  0.00  0.00    +0.050 A 
ENDBRANCH   1  29
TORSDOF 1
