REMARK  Name = ZINC13018606
REMARK  13 active torsions:
REMARK  status: ('A' for Active; 'I' for Inactive)
REMARK    1  A    between atoms: C_1  and  C_2
REMARK    2  A    between atoms: C_2  and  N_3
REMARK    3  A    between atoms: N_3  and  C_4
REMARK    4  A    between atoms: C_12  and  C_14
REMARK    5  A    between atoms: C_14  and  C_16
REMARK    6  A    between atoms: C_14  and  S_17
REMARK    7  A    between atoms: S_17  and  C_18
REMARK    8  A    between atoms: C_21  and  C_26
REMARK    9  A    between atoms: N_22  and  C_23
REMARK   10  A    between atoms: C_23  and  C_24
REMARK   11  A    between atoms: C_29  and  O_32
REMARK   12  A    between atoms: O_32  and  C_33
REMARK   13  A    between atoms: C_33  and  C_34
REMARK                            x       y       z     vdW  Elec       q    Type
REMARK                         _______ _______ _______ _____ _____    ______ ____
ROOT
ATOM      1  C   UNL     1      -1.216  -2.356  -0.766  0.00  0.00    +0.193 A 
ATOM      2  N   UNL     1      -0.046  -2.893  -0.503  0.00  0.00    -0.122 NA
ATOM      3  N   UNL     1      -0.121  -4.173  -0.576  0.00  0.00    -0.128 NA
ATOM      4  C   UNL     1      -1.344  -4.534  -0.888  0.00  0.00    +0.165 A 
ATOM      5  N   UNL     1      -2.085  -3.381  -1.015  0.00  0.00    -0.291 N 
ENDROOT
BRANCH   4   6
ATOM      6  C   UNL     1      -1.834  -5.917  -1.066  0.00  0.00    +0.020 A 
ATOM      7  C   UNL     1      -1.111  -6.989  -0.540  0.00  0.00    +0.015 A 
ATOM      8  C   UNL     1      -1.574  -8.277  -0.703  0.00  0.00    +0.046 A 
ATOM      9  C   UNL     1      -2.753  -8.510  -1.399  0.00  0.00    +0.121 A 
ATOM     10  C   UNL     1      -3.472  -7.447  -1.929  0.00  0.00    +0.046 A 
ATOM     11  C   UNL     1      -3.019  -6.155  -1.765  0.00  0.00    +0.015 A 
BRANCH   9  12
ATOM     12  O   UNL     1      -3.203  -9.781  -1.562  0.00  0.00    -0.492 OA
BRANCH  12  13
ATOM     13  C   UNL     1      -2.414 -10.827  -0.991  0.00  0.00    +0.225 C 
ATOM     14  C   UNL     1      -3.076 -12.178  -1.275  0.00  0.00    +0.048 C 
ENDBRANCH  12  13
ENDBRANCH   9  12
ENDBRANCH   4   6
BRANCH   1  15
ATOM     15  S   UNL     1      -1.597  -0.636  -0.785  0.00  0.00    -0.073 S 
BRANCH  15  16
ATOM     16  C   UNL     1       0.024   0.050  -0.362  0.00  0.00    +0.137 C 
ATOM     17  C   UNL     1       0.402  -0.375   1.058  0.00  0.00    +0.029 C 
BRANCH  16  19
ATOM     18  N   UNL     1       1.095   2.258  -0.667  0.00  0.00    -0.296 N 
ATOM     19  C   UNL     1      -0.031   1.554  -0.440  0.00  0.00    +0.229 C 
ATOM     20  O   UNL     1      -1.089   2.130  -0.302  0.00  0.00    -0.274 OA
BRANCH  18  21
ATOM     21  C   UNL     1       1.042   3.720  -0.742  0.00  0.00    +0.098 C 
ATOM     22  C   UNL     1       0.092   4.139  -1.877  0.00  0.00    +0.046 C 
ATOM     23  C   UNL     1      -0.189   5.662  -1.737  0.00  0.00    +0.168 C 
ATOM     24  S   UNL     1      -0.372   5.802   0.091  0.00  0.00    -0.029 S 
ATOM     25  O   UNL     1      -1.745   5.660   0.430  0.00  0.00    -0.174 OA
ATOM     26  O   UNL     1       0.345   6.943   0.541  0.00  0.00    -0.174 OA
ATOM     27  C   UNL     1       0.532   4.286   0.605  0.00  0.00    +0.188 C 
ENDBRANCH  18  21
BRANCH  18  29
ATOM     28  C   UNL     1       2.581   1.238  -2.321  0.00  0.00    +0.024 C 
ATOM     29  C   UNL     1       2.372   1.562  -0.840  0.00  0.00    +0.105 C 
ENDBRANCH  18  29
ENDBRANCH  16  19
ENDBRANCH  15  16
ENDBRANCH   1  15
BRANCH   5  30
ATOM     30  C   UNL     1      -3.507  -3.275  -1.349  0.00  0.00    +0.250 C 
BRANCH  30  31
ATOM     31  C   UNL     1      -3.664  -3.150  -2.843  0.00  0.00    +0.375 C 
ATOM     32  O   UNL     1      -2.687  -3.150  -3.555  0.00  0.00    -0.244 OA
ATOM     33  O   UNL     1      -4.888  -3.039  -3.383  0.00  0.00    -0.244 OA
ENDBRANCH  30  31
ENDBRANCH   5  30
TORSDOF 10
