REMARK  Name = ZINC21078264
REMARK  7 active torsions:
REMARK  status: ('A' for Active; 'I' for Inactive)
REMARK    1  A    between atoms: C_3  and  C_27
REMARK    2  A    between atoms: C_5  and  N_7
REMARK    3  A    between atoms: C_8  and  C_10
REMARK    4  A    between atoms: C_10  and  S_11
REMARK    5  A    between atoms: S_11  and  C_12
REMARK    6  A    between atoms: N_17  and  N_18
REMARK    7  A    between atoms: C_19  and  C_20
REMARK                            x       y       z     vdW  Elec       q    Type
REMARK                         _______ _______ _______ _____ _____    ______ ____
ROOT
ATOM      1  C   UNL     1       4.839   8.895  -0.457  0.00  0.00    +0.211 A 
ATOM      2  N   UNL     1       5.085  10.235  -0.565  0.00  0.00    -0.186 NA
ATOM      3  C   UNL     1       6.439  10.410  -0.647  0.00  0.00    +0.232 A 
ATOM      4  N   UNL     1       7.004   9.228  -0.591  0.00  0.00    -0.245 N 
ATOM      5  N   UNL     1       5.991   8.269  -0.465  0.00  0.00    -0.144 NA
ATOM      6  N   UNL     1       7.098  11.625  -0.767  0.00  0.00    -0.205 N 
ATOM      7  H   UNL     1       6.522  12.562  -0.804  0.00  0.00    +0.177 HD
ATOM      8  H   UNL     1       8.099   9.140  -0.644  0.00  0.00    +0.192 HD
ENDROOT
BRANCH   6   9
ATOM      9  N   UNL     1       8.496  11.659  -0.840  0.00  0.00    -0.188 NA
ATOM     10  C   UNL     1       9.113  12.796  -0.953  0.00  0.00    +0.138 C 
BRANCH  10  11
ATOM     11  C   UNL     1      10.585  12.831  -1.030  0.00  0.00    -0.005 A 
ATOM     12  C   UNL     1      11.320  11.644  -0.977  0.00  0.00    +0.010 A 
ATOM     13  C   UNL     1      12.696  11.684  -1.056  0.00  0.00    +0.016 A 
ATOM     14  C   UNL     1      13.351  12.898  -1.176  0.00  0.00    +0.018 A 
ATOM     15  C   UNL     1      12.629  14.079  -1.223  0.00  0.00    +0.016 A 
ATOM     16  C   UNL     1      11.252  14.053  -1.151  0.00  0.00    +0.010 A 
ATOM     17 BR   UNL     1      15.238  12.944  -1.274  0.00  0.00    -0.050 Br
ENDBRANCH  10  11
ENDBRANCH   6   9
BRANCH   1  18
ATOM     18  S   UNL     1       3.252   8.142  -0.322  0.00  0.00    -0.075 S 
BRANCH  18  19
ATOM     19  C   UNL     1       3.615   6.368  -0.213  0.00  0.00    +0.173 C 
BRANCH  19  21
ATOM     20  N   UNL     1       2.351   4.253   0.002  0.00  0.00    -0.285 N 
ATOM     21  C   UNL     1       2.326   5.597  -0.092  0.00  0.00    +0.227 C 
ATOM     22  O   UNL     1       1.266   6.187  -0.080  0.00  0.00    -0.275 OA
ATOM     23  H   UNL     1       3.313   3.725   0.079  0.00  0.00    +0.155 HD
BRANCH  20  28
ATOM     24  C   UNL     1      -0.131   1.639   0.749  0.00  0.00    +0.003 A 
ATOM     25  C   UNL     1      -1.217   2.082   0.022  0.00  0.00    +0.019 A 
ATOM     26  C   UNL     1      -1.122   3.255  -0.730  0.00  0.00    +0.054 A 
ATOM     27  C   UNL     1       0.070   3.981  -0.734  0.00  0.00    +0.042 A 
ATOM     28  C   UNL     1       1.153   3.530   0.004  0.00  0.00    +0.035 A 
ATOM     29  C   UNL     1       1.050   2.358   0.745  0.00  0.00    +0.023 A 
BRANCH  26  30
ATOM     30  C   UNL     1      -2.245   3.715  -1.490  0.00  0.00    +0.099 C 
ATOM     31  N   UNL     1      -3.136   4.079  -2.092  0.00  0.00    -0.191 NA
ENDBRANCH  26  30
ENDBRANCH  20  28
ENDBRANCH  19  21
ENDBRANCH  18  19
ENDBRANCH   1  18
TORSDOF 7
