REMARK  Name = ZINC40008595
REMARK  12 active torsions:
REMARK  status: ('A' for Active; 'I' for Inactive)
REMARK    1  A    between atoms: C_1  and  C_2
REMARK    2  A    between atoms: C_2  and  N_3
REMARK    3  A    between atoms: N_3  and  C_4
REMARK    4  A    between atoms: N_3  and  C_6
REMARK    5  A    between atoms: C_4  and  C_5
REMARK    6  A    between atoms: C_6  and  C_7
REMARK    7  A    between atoms: C_7  and  C_8
REMARK    8  A    between atoms: C_8  and  N_9
REMARK    9  A    between atoms: C_10  and  C_26
REMARK   10  A    between atoms: C_29  and  O_34
REMARK   11  A    between atoms: C_30  and  O_32
REMARK   12  A    between atoms: O_32  and  C_33
REMARK                            x       y       z     vdW  Elec       q    Type
REMARK                         _______ _______ _______ _____ _____    ______ ____
ROOT
ATOM      1  N   UNL     1      -2.831  -3.899  -1.943  0.00  0.00    -0.284 N 
ATOM      2  C   UNL     1      -3.734  -4.222  -0.826  0.00  0.00    +0.145 C 
ATOM      3  C   UNL     1      -5.087  -4.394  -1.434  0.00  0.00    +0.072 A 
ATOM      4  C   UNL     1      -6.381  -4.731  -0.831  0.00  0.00    +0.199 A 
ATOM      5  O   UNL     1      -6.570  -4.759   0.372  0.00  0.00    -0.287 OA
ATOM      6  C   UNL     1      -7.440  -5.033  -1.827  0.00  0.00    +0.065 A 
ATOM      7  C   UNL     1      -8.665  -5.561  -1.418  0.00  0.00    +0.030 A 
ATOM      8  C   UNL     1      -9.634  -5.840  -2.357  0.00  0.00    +0.019 A 
ATOM      9  C   UNL     1      -9.390  -5.596  -3.702  0.00  0.00    +0.019 A 
ATOM     10  C   UNL     1      -8.186  -5.073  -4.117  0.00  0.00    +0.048 A 
ATOM     11  C   UNL     1      -7.190  -4.780  -3.186  0.00  0.00    +0.140 A 
ATOM     12  O   UNL     1      -6.020  -4.258  -3.620  0.00  0.00    -0.450 OA
ATOM     13  C   UNL     1      -4.970  -4.184  -2.779  0.00  0.00    +0.199 A 
ATOM     14  C   UNL     1      -3.561  -3.874  -3.077  0.00  0.00    +0.283 C 
ATOM     15  O   UNL     1      -3.120  -3.633  -4.183  0.00  0.00    -0.267 OA
ATOM     16 BR   UNL     1     -11.297  -6.556  -1.813  0.00  0.00    -0.050 Br
ENDROOT
BRANCH   2  17
ATOM     17  C   UNL     1      -3.297  -5.499  -0.156  0.00  0.00    -0.019 A 
ATOM     18  C   UNL     1      -2.840  -6.557  -0.920  0.00  0.00    +0.009 A 
ATOM     19  C   UNL     1      -2.438  -7.731  -0.310  0.00  0.00    +0.049 A 
ATOM     20  C   UNL     1      -2.491  -7.848   1.069  0.00  0.00    +0.158 A 
ATOM     21  C   UNL     1      -2.950  -6.783   1.838  0.00  0.00    +0.162 A 
ATOM     22  C   UNL     1      -3.347  -5.607   1.221  0.00  0.00    +0.055 A 
BRANCH  21  23
ATOM     23  O   UNL     1      -3.003  -6.893   3.192  0.00  0.00    -0.491 OA
ATOM     24  C   UNL     1      -3.485  -5.759   3.917  0.00  0.00    +0.277 C 
ENDBRANCH  21  23
BRANCH  20  25
ATOM     25  O   UNL     1      -2.096  -9.002   1.671  0.00  0.00    -0.503 OA
ATOM     26  H   UNL     1      -1.157  -9.023   1.903  0.00  0.00    +0.292 HD
ENDBRANCH  20  25
ENDBRANCH   2  17
BRANCH   1  27
ATOM     27  C   UNL     1      -1.392  -3.644  -1.840  0.00  0.00    +0.107 C 
BRANCH  27  28
ATOM     28  C   UNL     1      -1.155  -2.151  -1.603  0.00  0.00    +0.000 C 
BRANCH  28  29
ATOM     29  C   UNL     1       0.348  -1.884  -1.496  0.00  0.00    -0.077 C 
BRANCH  29  30
ATOM     30  N   UNL     1       0.576  -0.451  -1.269  0.00  0.00    +0.379 N 
ATOM     31  H   UNL     1       0.124   0.081  -1.998  0.00  0.00    -0.082 HD
BRANCH  30  33
ATOM     32  C   UNL     1       0.128   1.449   0.210  0.00  0.00    -0.017 C 
ATOM     33  C   UNL     1       0.019  -0.067   0.035  0.00  0.00    -0.082 C 
ENDBRANCH  30  33
BRANCH  30  34
ATOM     34  C   UNL     1       2.019  -0.176  -1.285  0.00  0.00    -0.082 C 
ATOM     35  C   UNL     1       2.573  -0.440  -2.687  0.00  0.00    -0.017 C 
ENDBRANCH  30  34
ENDBRANCH  29  30
ENDBRANCH  28  29
ENDBRANCH  27  28
ENDBRANCH   1  27
TORSDOF 9
