REMARK  Name = ZINC58505593
REMARK  7 active torsions:
REMARK  status: ('A' for Active; 'I' for Inactive)
REMARK    1  A    between atoms: C_1  and  C_2
REMARK    2  A    between atoms: C_3  and  C_13
REMARK    3  A    between atoms: C_5  and  C_7
REMARK    4  A    between atoms: C_13  and  S_14
REMARK    5  A    between atoms: S_14  and  C_15
REMARK    6  A    between atoms: C_18  and  C_21
REMARK    7  A    between atoms: N_19  and  N_20
REMARK                            x       y       z     vdW  Elec       q    Type
REMARK                         _______ _______ _______ _____ _____    ______ ____
ROOT
ATOM      1  C   UNL     1      -4.757   0.388  -1.509  0.00  0.00    +0.209 A 
ATOM      2  N   UNL     1      -5.443   0.419  -0.388  0.00  0.00    -0.121 NA
ATOM      3  N   UNL     1      -6.665   0.734  -0.627  0.00  0.00    -0.127 NA
ATOM      4  C   UNL     1      -6.836   0.924  -1.915  0.00  0.00    +0.183 A 
ATOM      5  N   UNL     1      -5.617   0.713  -2.518  0.00  0.00    -0.224 N 
ENDROOT
BRANCH   4   6
ATOM      6  C   UNL     1      -8.097   1.298  -2.588  0.00  0.00    +0.035 A 
ATOM      7  C   UNL     1      -8.516   0.607  -3.726  0.00  0.00    +0.013 A 
ATOM      8  C   UNL     1      -9.694   0.961  -4.350  0.00  0.00    +0.001 A 
ATOM      9  C   UNL     1     -10.461   1.999  -3.850  0.00  0.00    +0.001 A 
ATOM     10  C   UNL     1     -10.053   2.688  -2.723  0.00  0.00    +0.016 A 
ATOM     11  C   UNL     1      -8.878   2.341  -2.086  0.00  0.00    +0.029 A 
ATOM     12 BR   UNL     1      -8.325   3.280  -0.540  0.00  0.00    -0.050 Br
ENDBRANCH   4   6
BRANCH   5  13
ATOM     13  N   UNL     1      -5.329   0.808  -3.850  0.00  0.00    -0.295 N 
ATOM     14  H   UNL     1      -5.548  -0.053  -4.329  0.00  0.00    +0.163 HD
ATOM     15  H   UNL     1      -5.811   1.588  -4.270  0.00  0.00    +0.163 HD
ENDBRANCH   5  13
BRANCH   1  16
ATOM     16  S   UNL     1      -3.046   0.005  -1.677  0.00  0.00    -0.078 S 
BRANCH  16  17
ATOM     17  C   UNL     1      -2.502  -0.330   0.021  0.00  0.00    +0.136 C 
BRANCH  17  20
ATOM     18  C   UNL     1      -0.131   1.687   0.317  0.00  0.00    +0.088 C 
ATOM     19  C   UNL     1      -0.016   0.194   0.148  0.00  0.00    +0.127 A 
ATOM     20  C   UNL     1      -1.035  -0.676   0.020  0.00  0.00    +0.093 A 
ATOM     21  N   UNL     1      -0.513  -1.905  -0.107  0.00  0.00    -0.213 NA
ATOM     22  C   UNL     1       0.795  -1.812  -0.062  0.00  0.00    +0.228 A 
ATOM     23  O   UNL     1       1.127  -0.518   0.090  0.00  0.00    -0.440 OA
BRANCH  22  24
ATOM     24  C   UNL     1       1.744  -2.940  -0.166  0.00  0.00    +0.037 A 
ATOM     25  C   UNL     1       1.270  -4.242  -0.335  0.00  0.00    +0.013 A 
ATOM     26  C   UNL     1       2.162  -5.290  -0.432  0.00  0.00    +0.001 A 
ATOM     27  C   UNL     1       3.523  -5.053  -0.363  0.00  0.00    +0.000 A 
ATOM     28  C   UNL     1       4.000  -3.765  -0.195  0.00  0.00    +0.001 A 
ATOM     29  C   UNL     1       3.119  -2.707  -0.102  0.00  0.00    +0.013 A 
ENDBRANCH  22  24
ENDBRANCH  17  20
ENDBRANCH  16  17
ENDBRANCH   1  16
TORSDOF 6
