REMARK  Name = ZINC38655963
REMARK  4 active torsions:
REMARK  status: ('A' for Active; 'I' for Inactive)
REMARK    1  A    between atoms: C_1  and  C_2
REMARK    2  A    between atoms: C_5  and  C_17
REMARK    3  A    between atoms: C_6  and  C_16
REMARK    4  A    between atoms: C_10  and  C_13
REMARK                            x       y       z     vdW  Elec       q    Type
REMARK                         _______ _______ _______ _____ _____    ______ ____
ROOT
ATOM      1  C   UNL     1      -0.025   1.524  -0.004  0.00  0.00    +0.012 C 
ATOM      2  C   UNL     1      -0.001  -0.006  -0.004  0.00  0.00    +0.017 C 
ATOM      3  C   UNL     1       0.718  -0.507  -1.257  0.00  0.00    +0.050 C 
ATOM      4  C   UNL     1       1.078  -1.961  -1.151  0.00  0.00    +0.044 C 
ATOM      5  C   UNL     1       1.445  -2.521   0.032  0.00  0.00    -0.037 C 
ATOM      6  C   UNL     1       1.400  -1.669   1.225  0.00  0.00    -0.044 C 
ATOM      7  C   UNL     1       0.736  -0.500   1.219  0.00  0.00    -0.062 C 
ATOM      8  C   UNL     1       0.847   0.179   2.558  0.00  0.00    +0.046 C 
ATOM      9  C   UNL     1       1.997  -0.554   3.287  0.00  0.00    +0.110 C 
ATOM     10  C   UNL     1       2.001  -1.931   2.577  0.00  0.00    +0.050 C 
ATOM     11  C   UNL     1       1.881  -3.961   0.114  0.00  0.00    +0.044 C 
ENDROOT
BRANCH   9  12
ATOM     12  C   UNL     1       1.696  -0.703   4.756  0.00  0.00    +0.360 C 
ATOM     13  O   UNL     1       2.138  -1.655   5.375  0.00  0.00    -0.246 OA
ATOM     14  O   UNL     1       1.012   0.130   5.325  0.00  0.00    -0.246 OA
ENDBRANCH   9  12
BRANCH   4  15
ATOM     15  C   UNL     1       1.034  -2.768  -2.310  0.00  0.00    +0.383 C 
ATOM     16  O   UNL     1       0.030  -3.425  -2.561  0.00  0.00    -0.241 OA
ATOM     17  O   UNL     1       1.998  -2.811  -3.064  0.00  0.00    -0.241 OA
ENDBRANCH   4  15
TORSDOF 2
