REMARK  Name = ZINC33809515
REMARK  7 active torsions:
REMARK  status: ('A' for Active; 'I' for Inactive)
REMARK    1  A    between atoms: C_4  and  C_7
REMARK    2  A    between atoms: C_8  and  C_35
REMARK    3  A    between atoms: C_9  and  N_18
REMARK    4  A    between atoms: C_11  and  C_12
REMARK    5  A    between atoms: C_19  and  C_21
REMARK    6  A    between atoms: C_24  and  C_26
REMARK    7  A    between atoms: C_30  and  N_32
REMARK                            x       y       z     vdW  Elec       q    Type
REMARK                         _______ _______ _______ _____ _____    ______ ____
ROOT
ATOM      1  C   UNL     1       5.532  10.773   0.081  0.00  0.00    +0.047 A 
ATOM      2  C   UNL     1       5.107   9.451  -0.067  0.00  0.00    +0.121 A 
ATOM      3  C   UNL     1       3.639   9.493  -0.085  0.00  0.00    +0.211 A 
ATOM      4  O   UNL     1       3.239  10.768   0.054  0.00  0.00    -0.439 OA
ATOM      5  C   UNL     1       4.298  11.589   0.158  0.00  0.00    +0.146 A 
ENDROOT
BRANCH   1   9
ATOM      6  C   UNL     1       9.534  12.164   0.282  0.00  0.00    +0.000 A 
ATOM      7  C   UNL     1       9.031  11.365   1.296  0.00  0.00    +0.001 A 
ATOM      8  C   UNL     1       7.733  10.909   1.239  0.00  0.00    +0.008 A 
ATOM      9  C   UNL     1       6.920  11.255   0.150  0.00  0.00    -0.013 A 
ATOM     10  C   UNL     1       7.439  12.059  -0.874  0.00  0.00    +0.008 A 
ATOM     11  C   UNL     1       8.738  12.512  -0.797  0.00  0.00    +0.001 A 
ENDBRANCH   1   9
BRANCH   5  12
ATOM     12  C   UNL     1       4.245  12.988   0.316  0.00  0.00    +0.018 A 
ATOM     13  C   UNL     1       5.035  13.625   1.298  0.00  0.00    +0.011 A 
ATOM     14  C   UNL     1       4.977  14.982   1.437  0.00  0.00    +0.001 A 
ATOM     15  C   UNL     1       4.138  15.733   0.625  0.00  0.00    +0.000 A 
ATOM     16  C   UNL     1       3.353  15.119  -0.341  0.00  0.00    +0.001 A 
ATOM     17  C   UNL     1       3.396  13.764  -0.504  0.00  0.00    +0.011 A 
ENDBRANCH   5  12
BRANCH   3  18
ATOM     18  N   UNL     1       2.828   8.430  -0.213  0.00  0.00    -0.249 N 
ATOM     19  C   UNL     1       1.491   8.598  -0.209  0.00  0.00    +0.286 C 
ATOM     20  O   UNL     1       1.018   9.713  -0.090  0.00  0.00    -0.266 OA
ATOM     21  H   UNL     1       3.256   7.422  -0.322  0.00  0.00    +0.158 HD
BRANCH  19  22
ATOM     22  C   UNL     1       0.608   7.440  -0.349  0.00  0.00    +0.190 A 
ATOM     23  C   UNL     1      -0.772   7.472  -0.361  0.00  0.00    +0.055 A 
ATOM     24  C   UNL     1      -1.206   6.153  -0.514  0.00  0.00    +0.050 A 
ATOM     25  C   UNL     1      -0.078   5.365  -0.590  0.00  0.00    +0.136 A 
ATOM     26  O   UNL     1       1.003   6.156  -0.483  0.00  0.00    -0.450 OA
BRANCH  25  27
ATOM     27  C   UNL     1      -0.061   3.899  -0.754  0.00  0.00    +0.019 A 
ATOM     28  C   UNL     1      -1.260   3.188  -0.847  0.00  0.00    +0.012 A 
ATOM     29  C   UNL     1      -1.236   1.819  -1.005  0.00  0.00    +0.003 A 
ATOM     30  C   UNL     1      -0.028   1.146  -1.061  0.00  0.00    +0.033 A 
ATOM     31  C   UNL     1       1.164   1.843  -0.970  0.00  0.00    +0.127 A 
ATOM     32  C   UNL     1       1.155   3.214  -0.817  0.00  0.00    +0.044 A 
BRANCH  31  33
ATOM     33  N   UNL     1       2.452   1.116  -1.038  0.00  0.00    +0.056 N 
ATOM     34  O   UNL     1       2.462  -0.193  -1.183  0.00  0.00    -0.126 OA
ATOM     35  O   UNL     1       3.587   1.778  -0.951  0.00  0.00    -0.126 OA
ENDBRANCH  31  33
ENDBRANCH  25  27
ENDBRANCH  19  22
ENDBRANCH   3  18
BRANCH   2  36
ATOM     36  C   UNL     1       5.936   8.288  -0.181  0.00  0.00    +0.105 C 
ATOM     37  N   UNL     1       6.593   7.366  -0.272  0.00  0.00    -0.191 NA
ENDBRANCH   2  36
TORSDOF 7
