REMARK  Name = ZINC54642291
REMARK  8 active torsions:
REMARK  status: ('A' for Active; 'I' for Inactive)
REMARK    1  A    between atoms: C_1  and  C_2
REMARK    2  A    between atoms: C_5  and  C_8
REMARK    3  A    between atoms: C_8  and  O_9
REMARK    4  A    between atoms: O_9  and  C_10
REMARK    5  A    between atoms: C_13  and  C_16
REMARK    6  A    between atoms: C_29  and  S_31
REMARK    7  A    between atoms: S_31  and  C_32
REMARK    8  A    between atoms: C_32  and  C_33
REMARK                            x       y       z     vdW  Elec       q    Type
REMARK                         _______ _______ _______ _____ _____    ______ ____
ROOT
ATOM      1  C   UNL     1       2.223 -10.308  -0.067  0.00  0.00    +0.175 C 
ATOM      2  C   UNL     1       2.997 -10.710   1.169  0.00  0.00    +0.041 C 
ATOM      3  C   UNL     1       4.297 -11.070   1.116  0.00  0.00    +0.020 C 
ATOM      4  C   UNL     1       5.045 -11.468   2.366  0.00  0.00    +0.052 C 
ATOM      5  C   UNL     1       4.474 -10.716   3.570  0.00  0.00    +0.014 C 
ATOM      6  C   UNL     1       2.983 -11.051   3.684  0.00  0.00    +0.080 C 
ATOM      7  C   UNL     1       2.302 -10.695   2.392  0.00  0.00    +0.163 C 
ATOM      8  O   UNL     1       1.127 -10.387   2.404  0.00  0.00    -0.292 OA
ATOM      9  N   UNL     1       4.993 -11.097  -0.069  0.00  0.00    -0.287 N 
ATOM     10  C   UNL     1       4.270 -11.045  -1.250  0.00  0.00    +0.219 A 
ATOM     11  N   UNL     1       2.967 -10.681  -1.263  0.00  0.00    -0.220 N 
ATOM     12  N   UNL     1       2.552 -10.745  -2.593  0.00  0.00    -0.141 NA
ATOM     13  C   UNL     1       3.596 -11.126  -3.297  0.00  0.00    +0.211 A 
ATOM     14  N   UNL     1       4.633 -11.305  -2.476  0.00  0.00    -0.187 NA
ATOM     15  H   UNL     1       5.962 -11.149  -0.079  0.00  0.00    +0.155 HD
ENDROOT
BRANCH   1  19
ATOM     16  C   UNL     1       1.608  -6.079  -0.040  0.00  0.00    +0.121 A 
ATOM     17  C   UNL     1       0.520  -6.939  -0.044  0.00  0.00    +0.046 A 
ATOM     18  C   UNL     1       0.721  -8.306  -0.053  0.00  0.00    +0.009 A 
ATOM     19  C   UNL     1       2.006  -8.817  -0.058  0.00  0.00    -0.018 A 
ATOM     20  C   UNL     1       3.092  -7.961  -0.053  0.00  0.00    +0.009 A 
ATOM     21  C   UNL     1       2.896  -6.594  -0.050  0.00  0.00    +0.046 A 
BRANCH  16  22
ATOM     22  O   UNL     1       1.413  -4.734  -0.032  0.00  0.00    -0.487 OA
BRANCH  22  23
ATOM     23  C   UNL     1       0.059  -4.275  -0.021  0.00  0.00    +0.264 C 
BRANCH  23  28
ATOM     24  C   UNL     1      -0.018   1.503   0.010  0.00  0.00    +0.044 C 
ATOM     25  C   UNL     1       0.002  -0.004   0.002  0.00  0.00    -0.050 A 
ATOM     26  C   UNL     1       0.006  -0.689  -1.199  0.00  0.00    +0.004 A 
ATOM     27  C   UNL     1       0.025  -2.071  -1.206  0.00  0.00    +0.007 A 
ATOM     28  C   UNL     1       0.040  -2.768  -0.013  0.00  0.00    -0.010 A 
ATOM     29  C   UNL     1       0.037  -2.084   1.188  0.00  0.00    +0.007 A 
ATOM     30  C   UNL     1       0.023  -0.702   1.195  0.00  0.00    +0.004 A 
ENDBRANCH  23  28
ENDBRANCH  22  23
ENDBRANCH  16  22
ENDBRANCH   1  19
BRANCH  13  31
ATOM     31  S   UNL     1       3.621 -11.363  -5.043  0.00  0.00    -0.080 S 
BRANCH  31  32
ATOM     32  C   UNL     1       5.325 -11.880  -5.391  0.00  0.00    +0.112 C 
BRANCH  32  33
ATOM     33  C   UNL     1       5.484 -12.120  -6.870  0.00  0.00    -0.037 A 
ATOM     34  C   UNL     1       5.236 -13.373  -7.398  0.00  0.00    +0.004 A 
ATOM     35  C   UNL     1       5.382 -13.593  -8.755  0.00  0.00    +0.000 A 
ATOM     36  C   UNL     1       5.777 -12.559  -9.584  0.00  0.00    +0.000 A 
ATOM     37  C   UNL     1       6.025 -11.306  -9.056  0.00  0.00    +0.000 A 
ATOM     38  C   UNL     1       5.874 -11.085  -7.700  0.00  0.00    +0.004 A 
ENDBRANCH  32  33
ENDBRANCH  31  32
ENDBRANCH  13  31
TORSDOF 7
