REMARK  Name = ZINC28424066
REMARK  7 active torsions:
REMARK  status: ('A' for Active; 'I' for Inactive)
REMARK    1  A    between atoms: C_1  and  C_2
REMARK    2  A    between atoms: C_4  and  C_30
REMARK    3  A    between atoms: C_6  and  N_8
REMARK    4  A    between atoms: N_10  and  C_27
REMARK    5  A    between atoms: C_13  and  C_16
REMARK    6  A    between atoms: C_16  and  C_17
REMARK    7  A    between atoms: N_19  and  C_20
REMARK                            x       y       z     vdW  Elec       q    Type
REMARK                         _______ _______ _______ _____ _____    ______ ____
ROOT
ATOM      1  N   UNL     1      -1.998   5.602   1.612  0.00  0.00    -0.226 NA
ATOM      2  C   UNL     1      -2.364   6.129   0.468  0.00  0.00    +0.164 C 
ATOM      3  N   UNL     1      -2.208   7.431   0.041  0.00  0.00    -0.247 N 
ATOM      4  C   UNL     1      -2.619   7.840  -1.147  0.00  0.00    +0.235 C 
ATOM      5  O   UNL     1      -2.474   8.985  -1.520  0.00  0.00    -0.274 OA
ATOM      6  C   UNL     1      -3.291   6.787  -2.014  0.00  0.00    +0.149 C 
ATOM      7  S   UNL     1      -3.190   5.330  -0.900  0.00  0.00    -0.077 S 
ENDROOT
BRANCH   1  13
ATOM      8  C   UNL     1      -0.429   1.277   3.288  0.00  0.00    +0.044 C 
ATOM      9  C   UNL     1      -1.502   2.144   2.682  0.00  0.00    -0.048 A 
ATOM     10  C   UNL     1      -2.740   1.603   2.382  0.00  0.00    +0.006 A 
ATOM     11  C   UNL     1      -3.729   2.392   1.821  0.00  0.00    -0.048 A 
ATOM     12  C   UNL     1      -3.490   3.726   1.566  0.00  0.00    +0.031 A 
ATOM     13  C   UNL     1      -2.243   4.279   1.867  0.00  0.00    +0.067 A 
ATOM     14  C   UNL     1      -1.248   3.476   2.428  0.00  0.00    +0.031 A 
ATOM     15  C   UNL     1      -5.072   1.792   1.492  0.00  0.00    +0.044 C 
ENDBRANCH   1  13
BRANCH   3  16
ATOM     16  C   UNL     1      -1.558   8.394   0.933  0.00  0.00    +0.084 C 
ATOM     17  C   UNL     1      -0.765   7.836   2.117  0.00  0.00    +0.025 C 
ATOM     18  C   UNL     1      -2.111   8.525   2.354  0.00  0.00    +0.025 C 
ENDBRANCH   3  16
BRANCH   6  19
ATOM     19  C   UNL     1      -4.745   7.158  -2.312  0.00  0.00    +0.120 C 
BRANCH  19  20
ATOM     20  C   UNL     1      -5.389   6.060  -3.118  0.00  0.00    +0.219 C 
ATOM     21  O   UNL     1      -4.747   5.077  -3.425  0.00  0.00    -0.275 OA
ATOM     22  N   UNL     1      -6.677   6.170  -3.499  0.00  0.00    -0.285 N 
ATOM     23  H   UNL     1      -7.231   7.100  -3.303  0.00  0.00    +0.155 HD
BRANCH  22  24
ATOM     24  C   UNL     1      -7.310   5.101  -4.143  0.00  0.00    +0.047 A 
ATOM     25  C   UNL     1      -6.813   3.812  -4.003  0.00  0.00    +0.024 A 
ATOM     26  C   UNL     1      -7.440   2.759  -4.641  0.00  0.00    +0.002 A 
ATOM     27  C   UNL     1      -8.561   2.987  -5.418  0.00  0.00    +0.001 A 
ATOM     28  C   UNL     1      -9.058   4.269  -5.560  0.00  0.00    +0.017 A 
ATOM     29  C   UNL     1      -8.440   5.327  -4.920  0.00  0.00    +0.039 A 
ATOM     30 BR   UNL     1      -9.125   7.079  -5.107  0.00  0.00    -0.048 Br
ENDBRANCH  22  24
ENDBRANCH  19  20
ENDBRANCH   6  19
TORSDOF 5
