REMARK  Name = ZINC63189355
REMARK  2 active torsions:
REMARK  status: ('A' for Active; 'I' for Inactive)
REMARK    1  A    between atoms: C_2  and  C_9
REMARK    2  A    between atoms: C_16  and  C_18
REMARK                            x       y       z     vdW  Elec       q    Type
REMARK                         _______ _______ _______ _____ _____    ______ ____
ROOT
ATOM      1  C   UNL     1       1.357  -0.994   1.263  0.00  0.00    +0.247 C 
ATOM      2  O   UNL     1       2.314  -0.271   1.072  0.00  0.00    -0.270 OA
ATOM      3  N   UNL     1       1.365  -2.260   0.802  0.00  0.00    -0.296 N 
ATOM      4  C   UNL     1       0.168  -3.104   0.911  0.00  0.00    +0.108 C 
ATOM      5  C   UNL     1       0.550  -4.413   1.611  0.00  0.00    +0.019 C 
ATOM      6  C   UNL     1       1.714  -5.066   0.862  0.00  0.00    +0.003 C 
ATOM      7  C   UNL     1       2.927  -4.133   0.888  0.00  0.00    +0.021 C 
ATOM      8  C   UNL     1       2.570  -2.820   0.175  0.00  0.00    +0.062 C 
ENDROOT
BRANCH   1  10
ATOM      9  C   UNL     1       0.178  -0.447   3.402  0.00  0.00    +0.083 A 
ATOM     10  C   UNL     1       0.177  -0.482   2.006  0.00  0.00    +0.047 A 
ATOM     11  C   UNL     1      -0.950  -0.027   1.320  0.00  0.00    +0.083 A 
ATOM     12  C   UNL     1      -2.041   0.447   2.036  0.00  0.00    +0.252 A 
ATOM     13  N   UNL     1      -2.017   0.471   3.388  0.00  0.00    -0.290 N 
ATOM     14  C   UNL     1      -0.938   0.030   4.074  0.00  0.00    +0.252 A 
ATOM     15  O   UNL     1      -0.943   0.065   5.413  0.00  0.00    -0.268 OA
ATOM     16  O   UNL     1      -3.125   0.885   1.383  0.00  0.00    -0.268 OA
ATOM     17  H   UNL     1      -2.787   0.805   3.873  0.00  0.00    +0.172 HD
ENDBRANCH   1  10
BRANCH   8  18
ATOM     18  C   UNL     1       3.728  -1.829   0.312  0.00  0.00    -0.051 C 
ATOM     19  C   UNL     1       5.082  -2.547   0.088  0.00  0.00    -0.016 C 
ATOM     20  C   UNL     1       5.991  -1.371  -0.357  0.00  0.00    -0.021 C 
ATOM     21  C   UNL     1       5.034  -0.487  -1.185  0.00  0.00    -0.082 C 
ATOM     22  N   UNL     1       3.659  -0.807  -0.754  0.00  0.00    +0.382 N 
ATOM     23  H   UNL     1       3.134  -1.167  -1.536  0.00  0.00    -0.085 HD
ATOM     24  H   UNL     1       3.211   0.025  -0.399  0.00  0.00    -0.085 HD
ENDBRANCH   8  18
TORSDOF 2
