REMARK  Name = ZINC63624914
REMARK  6 active torsions:
REMARK  status: ('A' for Active; 'I' for Inactive)
REMARK    1  A    between atoms: C_4  and  N_7
REMARK    2  A    between atoms: N_9  and  C_22
REMARK    3  A    between atoms: C_13  and  C_14
REMARK    4  A    between atoms: C_18  and  O_20
REMARK    5  A    between atoms: C_22  and  C_23
REMARK    6  A    between atoms: C_23  and  C_24
REMARK                            x       y       z     vdW  Elec       q    Type
REMARK                         _______ _______ _______ _____ _____    ______ ____
ROOT
ATOM      1  N   UNL     1       3.069  -1.633  -0.902  0.00  0.00    -0.225 NA
ATOM      2  C   UNL     1       3.380  -2.434   0.092  0.00  0.00    +0.168 C 
ATOM      3  N   UNL     1       4.521  -3.188   0.260  0.00  0.00    -0.246 N 
ATOM      4  C   UNL     1       4.675  -3.949   1.331  0.00  0.00    +0.259 C 
ATOM      5  O   UNL     1       5.676  -4.621   1.495  0.00  0.00    -0.269 OA
ATOM      6  C   UNL     1       3.576  -3.945   2.318  0.00  0.00    +0.078 C 
ATOM      7  C   UNL     1       3.469  -4.620   3.489  0.00  0.00    +0.028 C 
ATOM      8  S   UNL     1       2.429  -2.805   1.557  0.00  0.00    -0.049 S 
ENDROOT
BRANCH   1  12
ATOM      9  C   UNL     1      -0.528   0.411  -0.865  0.00  0.00    +0.000 A 
ATOM     10  C   UNL     1       0.636   1.073  -1.211  0.00  0.00    +0.002 A 
ATOM     11  C   UNL     1       1.839   0.398  -1.226  0.00  0.00    +0.028 A 
ATOM     12  C   UNL     1       1.880  -0.957  -0.889  0.00  0.00    +0.067 A 
ATOM     13  C   UNL     1       0.700  -1.619  -0.541  0.00  0.00    +0.028 A 
ATOM     14  C   UNL     1      -0.496  -0.931  -0.531  0.00  0.00    +0.002 A 
ENDBRANCH   1  12
BRANCH   7  15
ATOM     15  C   UNL     1       2.206  -4.594   4.240  0.00  0.00    -0.020 A 
ATOM     16  C   UNL     1       1.024  -4.183   3.613  0.00  0.00    +0.008 A 
ATOM     17  C   UNL     1      -0.159  -4.160   4.321  0.00  0.00    +0.004 A 
ATOM     18  C   UNL     1      -0.182  -4.542   5.651  0.00  0.00    +0.045 A 
ATOM     19  C   UNL     1       0.985  -4.953   6.282  0.00  0.00    +0.117 A 
ATOM     20  C   UNL     1       2.178  -4.986   5.582  0.00  0.00    +0.053 A 
BRANCH  19  21
ATOM     21  O   UNL     1       0.954  -5.327   7.589  0.00  0.00    -0.507 OA
ATOM     22  H   UNL     1       0.783  -6.269   7.724  0.00  0.00    +0.292 HD
ENDBRANCH  19  21
ENDBRANCH   7  15
BRANCH   3  23
ATOM     23  C   UNL     1       5.574  -3.147  -0.758  0.00  0.00    +0.120 C 
BRANCH  23  24
ATOM     24  C   UNL     1       6.566  -2.031  -0.421  0.00  0.00    +0.052 C 
BRANCH  24  25
ATOM     25  C   UNL     1       7.649  -1.989  -1.468  0.00  0.00    -0.040 C 
ATOM     26  C   UNL     1       7.691  -1.195  -2.562  0.00  0.00    -0.001 A 
ATOM     27  C   UNL     1       6.776  -0.173  -3.085  0.00  0.00    +0.010 A 
ATOM     28  C   UNL     1       7.096   0.469  -4.232  0.00  0.00    +0.001 A 
ATOM     29  C   UNL     1       8.276   0.183  -4.932  0.00  0.00    +0.002 A 
ATOM     30  C   UNL     1       9.166  -0.742  -4.514  0.00  0.00    +0.026 A 
ATOM     31  C   UNL     1       8.931  -1.477  -3.319  0.00  0.00    +0.043 A 
ATOM     32  N   UNL     1       9.628  -2.410  -2.717  0.00  0.00    -0.380 N 
ATOM     33  C   UNL     1       8.911  -2.820  -1.505  0.00  0.00    +0.144 C 
ATOM     34  H   UNL     1      10.478  -2.766  -3.020  0.00  0.00    +0.160 HD
ENDBRANCH  24  25
ENDBRANCH  23  24
ENDBRANCH   3  23
TORSDOF 6
