REMARK  Name = ZINC12629051
REMARK  9 active torsions:
REMARK  status: ('A' for Active; 'I' for Inactive)
REMARK    1  A    between atoms: C_1  and  C_2
REMARK    2  A    between atoms: C_2  and  C_4
REMARK    3  A    between atoms: C_2  and  N_56
REMARK    4  A    between atoms: C_7  and  N_10
REMARK    5  A    between atoms: C_15  and  C_17
REMARK    6  A    between atoms: C_15  and  C_23
REMARK    7  A    between atoms: C_15  and  N_56
REMARK    8  A    between atoms: N_25  and  C_26
REMARK    9  A    between atoms: C_31  and  C_32
REMARK                            x       y       z     vdW  Elec       q    Type
REMARK                         _______ _______ _______ _____ _____    ______ ____
ROOT
ATOM      1  C   UNL     1       3.221  -7.674  -1.465  0.00  0.00    +0.048 C 
ENDROOT
BRANCH   1   2
ATOM      2  C   UNL     1       3.996  -7.269  -2.693  0.00  0.00    -0.053 A 
ATOM      3  C   UNL     1       3.417  -6.435  -3.631  0.00  0.00    +0.002 A 
ATOM      4  C   UNL     1       4.129  -6.061  -4.755  0.00  0.00    +0.000 A 
ATOM      5  C   UNL     1       5.416  -6.527  -4.946  0.00  0.00    +0.000 A 
ATOM      6  C   UNL     1       5.993  -7.365  -4.010  0.00  0.00    +0.000 A 
ATOM      7  C   UNL     1       5.283  -7.737  -2.884  0.00  0.00    +0.002 A 
ENDBRANCH   1   2
BRANCH   1   8
ATOM      8  C   UNL     1       2.266  -8.786  -1.818  0.00  0.00    +0.207 C 
ATOM      9  O   UNL     1       1.073  -8.632  -1.663  0.00  0.00    -0.277 OA
ATOM     10  N   UNL     1       2.738  -9.951  -2.304  0.00  0.00    -0.286 N 
ATOM     11  H   UNL     1       3.685 -10.051  -2.489  0.00  0.00    +0.155 HD
BRANCH  10  12
ATOM     12  C   UNL     1       1.862 -11.016  -2.542  0.00  0.00    +0.045 A 
ATOM     13  C   UNL     1       0.569 -10.767  -2.985  0.00  0.00    +0.025 A 
ATOM     14  C   UNL     1      -0.294 -11.820  -3.220  0.00  0.00    +0.022 A 
ATOM     15  C   UNL     1       0.129 -13.121  -3.014  0.00  0.00    +0.042 A 
ATOM     16  C   UNL     1       1.416 -13.372  -2.573  0.00  0.00    +0.034 A 
ATOM     17  C   UNL     1       2.285 -12.323  -2.342  0.00  0.00    +0.077 A 
ATOM     18 CL   UNL     1      -0.958 -14.442  -3.309  0.00  0.00    -0.084 Cl
BRANCH  17  19
ATOM     19  C   UNL     1       3.689 -12.597  -1.868  0.00  0.00    +0.419 C 
ATOM     20  F   UNL     1       3.877 -13.977  -1.741  0.00  0.00    -0.166 F 
ATOM     21  F   UNL     1       4.603 -12.084  -2.795  0.00  0.00    -0.166 F 
ATOM     22  F   UNL     1       3.890 -11.983  -0.627  0.00  0.00    -0.166 F 
ENDBRANCH  17  19
ENDBRANCH  10  12
ENDBRANCH   1   8
BRANCH   1  23
ATOM     23  N   UNL     1       2.455  -6.518  -0.963  0.00  0.00    +0.394 N 
ATOM     24  H   UNL     1       2.135  -5.953  -1.758  0.00  0.00    -0.083 HD
ATOM     25  H   UNL     1       1.642  -6.855  -0.434  0.00  0.00    -0.083 HD
BRANCH  23  27
ATOM     26  C   UNL     1       3.262  -6.250   1.339  0.00  0.00    -0.009 C 
ATOM     27  C   UNL     1       3.298  -5.688  -0.083  0.00  0.00    -0.043 C 
BRANCH  27  28
ATOM     28  C   UNL     1       2.769  -4.277  -0.079  0.00  0.00    -0.061 A 
ATOM     29  C   UNL     1       3.649  -3.210  -0.093  0.00  0.00    +0.004 A 
ATOM     30  C   UNL     1       3.167  -1.915  -0.088  0.00  0.00    +0.026 A 
ATOM     31  C   UNL     1       1.798  -1.686  -0.070  0.00  0.00    +0.047 A 
ATOM     32  C   UNL     1       0.917  -2.759  -0.051  0.00  0.00    +0.026 A 
ATOM     33  C   UNL     1       1.405  -4.051  -0.061  0.00  0.00    +0.004 A 
BRANCH  31  34
ATOM     34  N   UNL     1       1.306  -0.373  -0.065  0.00  0.00    -0.306 N 
ATOM     35  C   UNL     1      -0.013   0.003  -0.047  0.00  0.00    +0.112 A 
ATOM     36  C   UNL     1      -0.034   1.350  -0.048  0.00  0.00    +0.130 A 
ATOM     37  N   UNL     1       1.233   1.789  -0.065  0.00  0.00    -0.244 NA
ATOM     38  C   UNL     1       2.045   0.767  -0.075  0.00  0.00    +0.204 A 
ENDBRANCH  31  34
ENDBRANCH  27  28
ENDBRANCH  23  27
ENDBRANCH   1  23
TORSDOF 8
