REMARK  Name = ZINC13264704
REMARK  11 active torsions:
REMARK  status: ('A' for Active; 'I' for Inactive)
REMARK    1  A    between atoms: C_6  and  C_7
REMARK    2  A    between atoms: C_8  and  C_16
REMARK    3  A    between atoms: N_10  and  C_12
REMARK    4  A    between atoms: C_12  and  C_13
REMARK    5  A    between atoms: C_13  and  C_14
REMARK    6  A    between atoms: N_20  and  C_24
REMARK    7  A    between atoms: C_24  and  C_25
REMARK    8  A    between atoms: C_25  and  C_26
REMARK    9  A    between atoms: C_26  and  C_27
REMARK   10  A    between atoms: C_27  and  C_28
REMARK   11  A    between atoms: C_28  and  C_29
REMARK                            x       y       z     vdW  Elec       q    Type
REMARK                         _______ _______ _______ _____ _____    ______ ____
ROOT
ATOM      1  C   UNL     1       0.223   0.188  -0.312  0.00  0.00    +0.100 A 
ATOM      2  C   UNL     1       1.430  -0.433   0.245  0.00  0.00    +0.022 A 
ATOM      3  C   UNL     1       2.006   0.510   1.076  0.00  0.00    +0.117 A 
ATOM      4  N   UNL     1       1.236   1.611   1.042  0.00  0.00    -0.269 N 
ATOM      5  N   UNL     1       0.149   1.400   0.190  0.00  0.00    -0.171 NA
ENDROOT
BRANCH   1  11
ATOM      6  C   UNL     1      -0.269  -1.307  -2.244  0.00  0.00    +0.014 A 
ATOM      7  C   UNL     1      -1.159  -1.890  -3.123  0.00  0.00    +0.050 A 
ATOM      8  C   UNL     1      -2.513  -1.601  -3.038  0.00  0.00    +0.166 A 
ATOM      9  C   UNL     1      -2.980  -0.724  -2.060  0.00  0.00    +0.167 A 
ATOM     10  C   UNL     1      -2.092  -0.142  -1.174  0.00  0.00    +0.059 A 
ATOM     11  C   UNL     1      -0.731  -0.434  -1.260  0.00  0.00    +0.006 A 
ATOM     12  O   UNL     1      -4.334  -0.609  -2.188  0.00  0.00    -0.453 OA
ATOM     13  C   UNL     1      -4.742  -1.735  -2.987  0.00  0.00    +0.466 C 
ATOM     14  O   UNL     1      -3.576  -2.034  -3.777  0.00  0.00    -0.453 OA
ENDBRANCH   1  11
BRANCH   2  15
ATOM     15  C   UNL     1       1.927  -1.787  -0.025  0.00  0.00    +0.032 C 
ATOM     16  C   UNL     1       3.263  -2.009  -0.142  0.00  0.00    +0.077 C 
ATOM     17  C   UNL     1       4.377  -1.045  -0.170  0.00  0.00    +0.258 C 
ATOM     18  O   UNL     1       4.186   0.154  -0.083  0.00  0.00    -0.269 OA
ATOM     19  N   UNL     1       5.594  -1.547  -0.293  0.00  0.00    -0.255 N 
ATOM     20  C   UNL     1       5.801  -2.876  -0.389  0.00  0.00    +0.121 C 
ATOM     21  S   UNL     1       7.286  -3.712  -0.552  0.00  0.00    -0.027 S 
ATOM     22  S   UNL     1       4.152  -3.553  -0.296  0.00  0.00    -0.061 S 
BRANCH  19  23
ATOM     23  C   UNL     1       6.743  -0.639  -0.327  0.00  0.00    +0.115 C 
BRANCH  23  24
ATOM     24  C   UNL     1       7.254  -0.409   1.096  0.00  0.00    +0.019 C 
BRANCH  24  25
ATOM     25  C   UNL     1       8.454   0.540   1.061  0.00  0.00    +0.002 C 
BRANCH  25  26
ATOM     26  C   UNL     1       8.964   0.769   2.485  0.00  0.00    +0.011 C 
BRANCH  26  27
ATOM     27  C   UNL     1      10.165   1.718   2.450  0.00  0.00    +0.125 C 
BRANCH  27  28
ATOM     28  C   UNL     1      10.667   1.944   3.852  0.00  0.00    +0.356 C 
ATOM     29  O   UNL     1      10.122   1.403   4.784  0.00  0.00    -0.246 OA
ATOM     30  O   UNL     1      11.721   2.748   4.066  0.00  0.00    -0.246 OA
ENDBRANCH  27  28
ENDBRANCH  26  27
ENDBRANCH  25  26
ENDBRANCH  24  25
ENDBRANCH  23  24
ENDBRANCH  19  23
ENDBRANCH   2  15
BRANCH   4  31
ATOM     31  C   UNL     1       1.497   2.846   1.787  0.00  0.00    +0.158 C 
BRANCH  31  32
ATOM     32  C   UNL     1       1.536   4.028   0.816  0.00  0.00    +0.141 C 
BRANCH  32  33
ATOM     33  C   UNL     1       1.798   5.268   1.564  0.00  0.00    +0.064 C 
ATOM     34  N   UNL     1       2.000   6.226   2.142  0.00  0.00    -0.197 NA
ENDBRANCH  32  33
ENDBRANCH  31  32
ENDBRANCH   4  31
TORSDOF 11
