REMARK  Name = ZINC39659207
REMARK  6 active torsions:
REMARK  status: ('A' for Active; 'I' for Inactive)
REMARK    1  A    between atoms: C_1  and  C_2
REMARK    2  A    between atoms: C_2  and  C_32
REMARK    3  A    between atoms: C_5  and  C_8
REMARK    4  A    between atoms: C_8  and  N_9
REMARK    5  A    between atoms: C_10  and  C_12
REMARK    6  A    between atoms: C_23  and  C_25
REMARK                            x       y       z     vdW  Elec       q    Type
REMARK                         _______ _______ _______ _____ _____    ______ ____
ROOT
ATOM      1  C   UNL     1       4.283  -1.510   4.817  0.00  0.00    +0.100 C 
ATOM      2  C   UNL     1       5.100  -0.220   5.054  0.00  0.00    +0.121 C 
ATOM      3  N   UNL     1       5.793  -0.447   6.343  0.00  0.00    -0.296 N 
ATOM      4  C   UNL     1       6.199  -1.873   6.298  0.00  0.00    +0.115 C 
ATOM      5  C   UNL     1       5.008  -2.592   5.634  0.00  0.00    -0.004 C 
ATOM      6  C   UNL     1       5.508  -3.702   4.715  0.00  0.00    -0.010 C 
ATOM      7  C   UNL     1       6.174  -4.795   5.556  0.00  0.00    -0.082 C 
ATOM      8  N   UNL     1       5.205  -5.330   6.520  0.00  0.00    +0.379 N 
ATOM      9  C   UNL     1       4.799  -4.277   7.460  0.00  0.00    -0.082 C 
ATOM     10  C   UNL     1       4.076  -3.163   6.699  0.00  0.00    -0.010 C 
ATOM     11  C   UNL     1       6.006   0.441   7.335  0.00  0.00    +0.247 C 
ATOM     12  O   UNL     1       5.499   1.544   7.282  0.00  0.00    -0.270 OA
ATOM     13  H   UNL     1       4.393  -5.670   6.027  0.00  0.00    -0.086 HD
ATOM     14  H   UNL     1       5.627  -6.091   7.032  0.00  0.00    -0.086 HD
ENDROOT
BRANCH  11  15
ATOM     15  C   UNL     1       6.857   0.073   8.486  0.00  0.00    +0.037 A 
ATOM     16  C   UNL     1       7.772  -0.976   8.375  0.00  0.00    +0.014 A 
ATOM     17  C   UNL     1       8.563  -1.314   9.453  0.00  0.00    +0.016 A 
ATOM     18  C   UNL     1       8.450  -0.617  10.644  0.00  0.00    +0.018 A 
ATOM     19  C   UNL     1       7.544   0.424  10.760  0.00  0.00    +0.016 A 
ATOM     20  C   UNL     1       6.752   0.776   9.688  0.00  0.00    +0.014 A 
ATOM     21 BR   UNL     1       9.538  -1.088  12.117  0.00  0.00    -0.050 Br
ENDBRANCH  11  15
BRANCH   1  23
ATOM     22  N   UNL     1       3.230  -2.521   2.819  0.00  0.00    -0.312 N 
ATOM     23  C   UNL     1       4.283  -1.869   3.353  0.00  0.00    +0.218 C 
ATOM     24  O   UNL     1       5.229  -1.573   2.656  0.00  0.00    -0.275 OA
ATOM     25  H   UNL     1       2.473  -2.758   3.377  0.00  0.00    +0.149 HD
BRANCH  22  26
ATOM     26  C   UNL     1       3.230  -2.870   1.397  0.00  0.00    +0.138 C 
BRANCH  26  31
ATOM     27  C   UNL     1      -0.417  -5.643   1.415  0.00  0.00    +0.074 C 
ATOM     28  C   UNL     1       1.007  -5.681   0.856  0.00  0.00    +0.165 C 
ATOM     29  O   UNL     1       1.019  -5.132  -0.469  0.00  0.00    -0.347 OA
ATOM     30  C   UNL     1       1.893  -3.985  -0.449  0.00  0.00    +0.196 C 
ATOM     31  C   UNL     1       1.930  -3.598   1.051  0.00  0.00    +0.164 C 
ATOM     32  O   UNL     1       1.875  -4.896   1.690  0.00  0.00    -0.342 OA
ATOM     33  C   UNL     1       1.504  -7.127   0.814  0.00  0.00    +0.074 C 
ENDBRANCH  26  31
ENDBRANCH  22  26
ENDBRANCH   1  23
TORSDOF 4
