REMARK  Name = ZINC33834361
REMARK  15 active torsions:
REMARK  status: ('A' for Active; 'I' for Inactive)
REMARK    1  A    between atoms: C_1  and  C_2
REMARK    2  A    between atoms: C_2  and  C_3
REMARK    3  A    between atoms: C_3  and  O_4
REMARK    4  A    between atoms: O_4  and  C_5
REMARK    5  A    between atoms: C_5  and  C_6
REMARK    6  A    between atoms: C_6  and  O_7
REMARK    7  A    between atoms: O_7  and  C_8
REMARK    8  A    between atoms: C_8  and  C_10
REMARK    9  A    between atoms: C_11  and  C_38
REMARK   10  A    between atoms: C_15  and  C_17
REMARK   11  A    between atoms: C_21  and  N_23
REMARK   12  A    between atoms: C_28  and  C_34
REMARK   13  A    between atoms: C_30  and  C_33
REMARK   14  A    between atoms: C_34  and  O_36
REMARK   15  A    between atoms: O_36  and  C_37
REMARK                            x       y       z     vdW  Elec       q    Type
REMARK                         _______ _______ _______ _____ _____    ______ ____
ROOT
ATOM      1  C   UNL     1      -0.998   5.742  -1.225  0.00  0.00    +0.065 C 
ATOM      2  C   UNL     1      -2.272   6.143  -1.078  0.00  0.00    +0.016 C 
ATOM      3  N   UNL     1      -2.860   6.140   0.155  0.00  0.00    -0.321 N 
ATOM      4  C   UNL     1      -2.097   6.123   1.292  0.00  0.00    +0.016 C 
ATOM      5  C   UNL     1      -0.810   5.718   1.247  0.00  0.00    +0.025 C 
ATOM      6  C   UNL     1      -0.187   5.274  -0.052  0.00  0.00    +0.092 C 
ATOM      7  C   UNL     1      -0.015   5.696   2.407  0.00  0.00    +0.176 C 
ATOM      8  O   UNL     1       1.144   5.340   2.329  0.00  0.00    -0.291 OA
ATOM      9  C   UNL     1      -0.575   6.105   3.742  0.00  0.00    +0.171 C 
ATOM     10  C   UNL     1      -2.081   5.825   3.758  0.00  0.00    +0.013 C 
ATOM     11  C   UNL     1      -2.726   6.572   2.588  0.00  0.00    +0.055 C 
ATOM     12  C   UNL     1      -2.326   4.322   3.606  0.00  0.00    +0.009 C 
ATOM     13  C   UNL     1      -3.057   6.598  -2.281  0.00  0.00    +0.061 C 
ATOM     14  H   UNL     1      -3.957   6.150   0.242  0.00  0.00    +0.152 HD
ENDROOT
BRANCH   6  15
ATOM     15  C   UNL     1      -0.109   3.769  -0.075  0.00  0.00    -0.033 A 
ATOM     16  C   UNL     1      -1.268   3.017  -0.122  0.00  0.00    +0.005 A 
ATOM     17  C   UNL     1      -1.196   1.637  -0.146  0.00  0.00    +0.003 A 
ATOM     18  C   UNL     1       0.035   1.008  -0.115  0.00  0.00    +0.033 A 
ATOM     19  C   UNL     1       1.194   1.760  -0.070  0.00  0.00    +0.126 A 
ATOM     20  C   UNL     1       1.122   3.140  -0.049  0.00  0.00    +0.037 A 
BRANCH  19  21
ATOM     21  N   UNL     1       2.511   1.087  -0.042  0.00  0.00    +0.056 N 
ATOM     22  O   UNL     1       2.574  -0.127   0.031  0.00  0.00    -0.126 OA
ATOM     23  O   UNL     1       3.534   1.747  -0.093  0.00  0.00    -0.126 OA
ENDBRANCH  19  21
ENDBRANCH   6  15
BRANCH   1  24
ATOM     24  C   UNL     1      -0.410   5.763  -2.511  0.00  0.00    +0.338 C 
ATOM     25  O   UNL     1      -1.016   6.245  -3.450  0.00  0.00    -0.245 OA
BRANCH  24  26
ATOM     26  O   UNL     1       0.824   5.248  -2.697  0.00  0.00    -0.459 OA
BRANCH  26  27
ATOM     27  C   UNL     1       1.325   5.233  -4.035  0.00  0.00    +0.260 C 
BRANCH  27  28
ATOM     28  C   UNL     1       2.665   4.496  -4.069  0.00  0.00    +0.201 C 
BRANCH  28  29
ATOM     29  O   UNL     1       2.458   3.117  -3.757  0.00  0.00    -0.376 OA
BRANCH  29  30
ATOM     30  C   UNL     1       3.664   2.354  -3.665  0.00  0.00    +0.159 C 
BRANCH  30  32
ATOM     31  C   UNL     1       4.605   0.078  -3.247  0.00  0.00    +0.006 C 
ATOM     32  C   UNL     1       3.319   0.877  -3.470  0.00  0.00    +0.025 C 
ENDBRANCH  30  32
ENDBRANCH  29  30
ENDBRANCH  28  29
ENDBRANCH  27  28
ENDBRANCH  26  27
ENDBRANCH  24  26
ENDBRANCH   1  24
BRANCH   9  33
ATOM     33  C   UNL     1       0.096   5.316   4.836  0.00  0.00    +0.318 C 
ATOM     34  O   UNL     1      -0.560   4.601   5.556  0.00  0.00    -0.250 OA
BRANCH  33  35
ATOM     35  O   UNL     1       1.424   5.406   5.011  0.00  0.00    -0.467 OA
ATOM     36  C   UNL     1       2.003   4.617   6.084  0.00  0.00    +0.280 C 
ENDBRANCH  33  35
ENDBRANCH   9  33
TORSDOF 11
