REMARK  Name = ZINC22214589
REMARK  14 active torsions:
REMARK  status: ('A' for Active; 'I' for Inactive)
REMARK    1  A    between atoms: C_1  and  C_2
REMARK    2  A    between atoms: C_2  and  C_4
REMARK    3  A    between atoms: C_2  and  S_14
REMARK    4  A    between atoms: N_6  and  C_7
REMARK    5  A    between atoms: S_14  and  C_15
REMARK    6  A    between atoms: N_25  and  C_26
REMARK    7  A    between atoms: C_26  and  C_27
REMARK    8  A    between atoms: C_27  and  N_28
REMARK    9  A    between atoms: N_28  and  C_29
REMARK   10  A    between atoms: N_28  and  C_32
REMARK   11  A    between atoms: C_29  and  C_30
REMARK   12  A    between atoms: C_29  and  C_31
REMARK   13  A    between atoms: C_32  and  C_33
REMARK   14  A    between atoms: C_32  and  C_34
REMARK                            x       y       z     vdW  Elec       q    Type
REMARK                         _______ _______ _______ _____ _____    ______ ____
ROOT
ATOM      1  C   UNL     1       3.788   0.957   2.301  0.00  0.00    +0.173 A 
ATOM      2  N   UNL     1       4.497   1.797   1.587  0.00  0.00    -0.223 NA
ATOM      3  C   UNL     1       5.834   1.893   1.732  0.00  0.00    +0.079 A 
ATOM      4  C   UNL     1       6.590   2.790   0.971  0.00  0.00    +0.028 A 
ATOM      5  C   UNL     1       7.943   2.855   1.150  0.00  0.00    +0.002 A 
ATOM      6  C   UNL     1       8.581   2.042   2.078  0.00  0.00    +0.001 A 
ATOM      7  C   UNL     1       7.869   1.156   2.838  0.00  0.00    +0.015 A 
ATOM      8  C   UNL     1       6.487   1.069   2.676  0.00  0.00    +0.065 A 
ATOM      9  C   UNL     1       5.671   0.135   3.464  0.00  0.00    +0.262 A 
ATOM     10  O   UNL     1       6.175  -0.600   4.293  0.00  0.00    -0.267 OA
ATOM     11  N   UNL     1       4.336   0.128   3.238  0.00  0.00    -0.289 N 
ENDROOT
BRANCH   1  12
ATOM     12  S   UNL     1       2.046   0.899   2.045  0.00  0.00    -0.075 S 
BRANCH  12  14
ATOM     13  C   UNL     1       2.102   3.523   1.275  0.00  0.00    +0.029 C 
ATOM     14  C   UNL     1       1.753   2.131   0.746  0.00  0.00    +0.137 C 
BRANCH  14  15
ATOM     15  C   UNL     1       0.302   2.097   0.340  0.00  0.00    +0.230 C 
ATOM     16  O   UNL     1      -0.537   1.695   1.119  0.00  0.00    -0.274 OA
ATOM     17  N   UNL     1      -0.065   2.514  -0.888  0.00  0.00    -0.282 N 
ATOM     18  H   UNL     1       0.597   2.891  -1.490  0.00  0.00    +0.155 HD
BRANCH  17  19
ATOM     19  C   UNL     1      -1.400   2.405  -1.296  0.00  0.00    +0.069 A 
ATOM     20  C   UNL     1      -2.424   2.534  -0.367  0.00  0.00    +0.026 A 
ATOM     21  C   UNL     1      -3.740   2.426  -0.772  0.00  0.00    +0.002 A 
ATOM     22  C   UNL     1      -4.040   2.189  -2.101  0.00  0.00    +0.003 A 
ATOM     23  C   UNL     1      -3.024   2.060  -3.030  0.00  0.00    +0.040 A 
ATOM     24  C   UNL     1      -1.704   2.173  -2.632  0.00  0.00    +0.144 A 
ATOM     25  F   UNL     1      -0.711   2.052  -3.541  0.00  0.00    -0.204 F 
ENDBRANCH  17  19
ENDBRANCH  14  15
ENDBRANCH  12  14
ENDBRANCH   1  12
BRANCH  11  26
ATOM     26  C   UNL     1       3.474  -0.779   4.000  0.00  0.00    +0.109 C 
BRANCH  26  27
ATOM     27  C   UNL     1       3.355  -2.112   3.260  0.00  0.00    -0.056 C 
BRANCH  27  28
ATOM     28  N   UNL     1       2.445  -3.001   3.995  0.00  0.00    +0.384 N 
ATOM     29  H   UNL     1       2.756  -3.084   4.951  0.00  0.00    -0.081 HD
BRANCH  28  30
ATOM     30  C   UNL     1       1.087  -2.442   3.968  0.00  0.00    -0.074 C 
ATOM     31  C   UNL     1       0.384  -2.870   2.679  0.00  0.00    -0.014 C 
ATOM     32  C   UNL     1       0.300  -2.957   5.174  0.00  0.00    -0.014 C 
ENDBRANCH  28  30
BRANCH  28  33
ATOM     33  C   UNL     1       2.441  -4.327   3.363  0.00  0.00    -0.074 C 
ATOM     34  C   UNL     1       3.878  -4.835   3.232  0.00  0.00    -0.014 C 
ATOM     35  C   UNL     1       1.633  -5.300   4.226  0.00  0.00    -0.014 C 
ENDBRANCH  28  33
ENDBRANCH  27  28
ENDBRANCH  26  27
ENDBRANCH  11  26
TORSDOF 9
