REMARK  Name = ZINC59719384
REMARK  8 active torsions:
REMARK  status: ('A' for Active; 'I' for Inactive)
REMARK    1  A    between atoms: C_1  and  C_2
REMARK    2  A    between atoms: C_2  and  C_4
REMARK    3  A    between atoms: N_6  and  C_28
REMARK    4  A    between atoms: C_7  and  C_12
REMARK    5  A    between atoms: N_10  and  C_11
REMARK    6  A    between atoms: C_15  and  O_18
REMARK    7  A    between atoms: O_18  and  C_19
REMARK    8  A    between atoms: C_19  and  C_20
REMARK                            x       y       z     vdW  Elec       q    Type
REMARK                         _______ _______ _______ _____ _____    ______ ____
ROOT
ATOM      1  C   UNL     1      -1.209  -0.727  -0.010  0.00  0.00    +0.195 C 
ATOM      2  N   UNL     1      -2.346  -0.085   0.099  0.00  0.00    -0.158 NA
ATOM      3  N   UNL     1      -3.548  -0.815   0.117  0.00  0.00    -0.200 N 
ATOM      4  C   UNL     1      -3.475  -2.265   0.356  0.00  0.00    +0.212 C 
ATOM      5  N   UNL     1      -2.345  -2.794  -0.431  0.00  0.00    -0.213 NA
ATOM      6  N   UNL     1      -1.196  -2.126  -0.104  0.00  0.00    -0.248 N 
ATOM      7  C   UNL     1       0.039  -2.870   0.152  0.00  0.00    +0.151 C 
ATOM      8  H   UNL     1      -2.239  -3.788  -0.289  0.00  0.00    +0.147 HD
ENDROOT
BRANCH   3   9
ATOM      9  C   UNL     1      -4.775  -0.182  -0.086  0.00  0.00    +0.054 A 
ATOM     10  C   UNL     1      -5.952  -0.921  -0.059  0.00  0.00    +0.026 A 
ATOM     11  C   UNL     1      -7.165  -0.292  -0.260  0.00  0.00    +0.022 A 
ATOM     12  C   UNL     1      -7.209   1.073  -0.489  0.00  0.00    +0.041 A 
ATOM     13  C   UNL     1      -6.039   1.811  -0.516  0.00  0.00    +0.022 A 
ATOM     14  C   UNL     1      -4.823   1.189  -0.310  0.00  0.00    +0.026 A 
ATOM     15 CL   UNL     1      -8.736   1.860  -0.741  0.00  0.00    -0.084 Cl
ENDBRANCH   3   9
BRANCH   4  16
ATOM     16  C   UNL     1      -3.247  -2.530   1.821  0.00  0.00    -0.009 A 
ATOM     17  C   UNL     1      -3.737  -1.649   2.767  0.00  0.00    +0.010 A 
ATOM     18  C   UNL     1      -3.529  -1.889   4.111  0.00  0.00    +0.046 A 
ATOM     19  C   UNL     1      -2.827  -3.016   4.512  0.00  0.00    +0.121 A 
ATOM     20  C   UNL     1      -2.336  -3.900   3.562  0.00  0.00    +0.046 A 
ATOM     21  C   UNL     1      -2.551  -3.657   2.219  0.00  0.00    +0.010 A 
BRANCH  19  22
ATOM     22  O   UNL     1      -2.620  -3.255   5.834  0.00  0.00    -0.487 OA
BRANCH  22  23
ATOM     23  C   UNL     1      -1.889  -4.435   6.174  0.00  0.00    +0.266 C 
BRANCH  23  24
ATOM     24  C   UNL     1      -1.760  -4.531   7.672  0.00  0.00    +0.008 A 
ATOM     25  C   UNL     1      -2.319  -3.557   8.478  0.00  0.00    +0.010 A 
ATOM     26  C   UNL     1      -2.201  -3.646   9.853  0.00  0.00    +0.020 A 
ATOM     27  C   UNL     1      -1.523  -4.709  10.422  0.00  0.00    +0.042 A 
ATOM     28  C   UNL     1      -0.964  -5.684   9.616  0.00  0.00    +0.040 A 
ATOM     29  C   UNL     1      -1.087  -5.598   8.241  0.00  0.00    +0.049 A 
ATOM     30 CL   UNL     1      -0.391  -6.824   7.229  0.00  0.00    -0.083 Cl
ATOM     31 CL   UNL     1      -1.375  -4.819  12.148  0.00  0.00    -0.083 Cl
ENDBRANCH  23  24
ENDBRANCH  22  23
ENDBRANCH  19  22
ENDBRANCH   4  16
BRANCH   1  33
ATOM     32  C   UNL     1       0.011   1.480   0.214  0.00  0.00    +0.095 C 
ATOM     33  C   UNL     1       0.009  -0.006  -0.038  0.00  0.00    +0.195 C 
ATOM     34  O   UNL     1       1.052  -0.586  -0.265  0.00  0.00    -0.289 OA
ENDBRANCH   1  33
TORSDOF 6
