REMARK  Name = ZINC16804997
REMARK  8 active torsions:
REMARK  status: ('A' for Active; 'I' for Inactive)
REMARK    1  A    between atoms: C_1  and  C_2
REMARK    2  A    between atoms: C_5  and  N_8
REMARK    3  A    between atoms: C_9  and  C_28
REMARK    4  A    between atoms: C_12  and  S_13
REMARK    5  A    between atoms: S_13  and  C_14
REMARK    6  A    between atoms: C_14  and  C_15
REMARK    7  A    between atoms: N_17  and  N_18
REMARK    8  A    between atoms: C_19  and  C_20
REMARK                            x       y       z     vdW  Elec       q    Type
REMARK                         _______ _______ _______ _____ _____    ______ ____
ROOT
ATOM      1  N   UNL     1      11.290   3.841  -0.076  0.00  0.00    -0.270 N 
ATOM      2  C   UNL     1      11.952   5.050  -0.081  0.00  0.00    +0.169 A 
ATOM      3  N   UNL     1      11.036   5.991  -0.067  0.00  0.00    -0.128 NA
ATOM      4  N   UNL     1       9.864   5.463  -0.059  0.00  0.00    -0.122 NA
ATOM      5  C   UNL     1       9.959   4.151  -0.067  0.00  0.00    +0.197 A 
ENDROOT
BRANCH   1  10
ATOM      6  C   UNL     1      13.606  -1.340  -0.097  0.00  0.00    +0.044 C 
ATOM      7  C   UNL     1      12.992   0.036  -0.092  0.00  0.00    -0.050 A 
ATOM      8  C   UNL     1      12.242   0.461  -1.173  0.00  0.00    +0.005 A 
ATOM      9  C   UNL     1      11.677   1.721  -1.171  0.00  0.00    +0.026 A 
ATOM     10  C   UNL     1      11.862   2.562  -0.081  0.00  0.00    +0.051 A 
ATOM     11  C   UNL     1      12.621   2.134   1.000  0.00  0.00    +0.026 A 
ATOM     12  C   UNL     1      13.178   0.871   0.995  0.00  0.00    +0.005 A 
ENDBRANCH   1  10
BRANCH   2  13
ATOM     13  C   UNL     1      13.416   5.250  -0.094  0.00  0.00    +0.022 A 
ATOM     14  C   UNL     1      14.283   4.197  -0.413  0.00  0.00    +0.031 A 
ATOM     15  C   UNL     1      15.642   4.430  -0.418  0.00  0.00    +0.111 A 
ATOM     16  N   UNL     1      16.128   5.620  -0.117  0.00  0.00    -0.263 NA
ATOM     17  C   UNL     1      15.346   6.637   0.194  0.00  0.00    +0.111 A 
ATOM     18  C   UNL     1      13.975   6.495   0.218  0.00  0.00    +0.031 A 
ENDBRANCH   2  13
BRANCH   5  19
ATOM     19  S   UNL     1       8.619   3.006  -0.061  0.00  0.00    -0.076 S 
BRANCH  19  20
ATOM     20  C   UNL     1       7.222   4.157  -0.042  0.00  0.00    +0.174 C 
BRANCH  20  21
ATOM     21  C   UNL     1       5.931   3.380  -0.035  0.00  0.00    +0.242 C 
ATOM     22  O   UNL     1       5.953   2.167  -0.041  0.00  0.00    -0.273 OA
ATOM     23  N   UNL     1       4.752   4.033  -0.020  0.00  0.00    -0.206 N 
ATOM     24  H   UNL     1       4.734   5.003  -0.015  0.00  0.00    +0.177 HD
BRANCH  23  25
ATOM     25  N   UNL     1       3.551   3.311  -0.013  0.00  0.00    -0.188 NA
ATOM     26  C   UNL     1       2.416   3.939   0.001  0.00  0.00    +0.139 C 
BRANCH  26  27
ATOM     27  C   UNL     1       1.153   3.179   0.008  0.00  0.00    +0.013 A 
ATOM     28  C   UNL     1      -0.071   3.852   0.023  0.00  0.00    +0.012 A 
ATOM     29  C   UNL     1      -1.249   3.135   0.031  0.00  0.00    +0.021 A 
ATOM     30  C   UNL     1      -1.222   1.750   0.017  0.00  0.00    +0.042 A 
ATOM     31  C   UNL     1      -0.013   1.076   0.008  0.00  0.00    +0.040 A 
ATOM     32  C   UNL     1       1.174   1.781   0.000  0.00  0.00    +0.051 A 
ATOM     33 CL   UNL     1       2.690   0.934  -0.018  0.00  0.00    -0.083 Cl
ATOM     34 CL   UNL     1      -2.710   0.856   0.020  0.00  0.00    -0.083 Cl
ENDBRANCH  26  27
ENDBRANCH  23  25
ENDBRANCH  20  21
ENDBRANCH  19  20
ENDBRANCH   5  19
TORSDOF 7
