REMARK  Name = ZINC35973795
REMARK  10 active torsions:
REMARK  status: ('A' for Active; 'I' for Inactive)
REMARK    1  A    between atoms: C_1  and  C_2
REMARK    2  A    between atoms: C_2  and  C_3
REMARK    3  A    between atoms: C_3  and  C_5
REMARK    4  A    between atoms: C_3  and  O_6
REMARK    5  A    between atoms: O_6  and  C_7
REMARK    6  A    between atoms: C_7  and  C_9
REMARK    7  A    between atoms: C_10  and  C_37
REMARK    8  A    between atoms: C_14  and  C_16
REMARK    9  A    between atoms: C_19  and  N_22
REMARK   10  A    between atoms: C_28  and  C_31
REMARK                            x       y       z     vdW  Elec       q    Type
REMARK                         _______ _______ _______ _____ _____    ______ ____
ROOT
ATOM      1  C   UNL     1      -0.031   0.348  -4.777  0.00  0.00    +0.065 C 
ATOM      2  C   UNL     1       0.680   0.791  -5.828  0.00  0.00    +0.016 C 
ATOM      3  N   UNL     1       0.046   1.293  -6.931  0.00  0.00    -0.321 N 
ATOM      4  C   UNL     1      -1.252   1.722  -6.855  0.00  0.00    +0.016 C 
ATOM      5  C   UNL     1      -2.048   1.321  -5.841  0.00  0.00    +0.024 C 
ATOM      6  C   UNL     1      -1.531   0.376  -4.783  0.00  0.00    +0.092 C 
ATOM      7  C   UNL     1      -3.377   1.768  -5.743  0.00  0.00    +0.162 C 
ATOM      8  O   UNL     1      -4.070   1.382  -4.822  0.00  0.00    -0.292 OA
ATOM      9  C   UNL     1      -3.958   2.715  -6.757  0.00  0.00    +0.088 C 
ATOM     10  C   UNL     1      -2.832   3.575  -7.340  0.00  0.00    +0.032 C 
ATOM     11  C   UNL     1      -1.768   2.647  -7.929  0.00  0.00    +0.059 C 
ATOM     12  C   UNL     1       2.185   0.736  -5.791  0.00  0.00    +0.061 C 
ATOM     13  H   UNL     1       0.521   1.345  -7.775  0.00  0.00    +0.152 HD
ENDROOT
BRANCH   6  14
ATOM     14  C   UNL     1      -2.051  -1.012  -5.056  0.00  0.00    -0.035 A 
ATOM     15  C   UNL     1      -1.714  -1.657  -6.231  0.00  0.00    +0.007 A 
ATOM     16  C   UNL     1      -2.191  -2.930  -6.482  0.00  0.00    +0.033 A 
ATOM     17  C   UNL     1      -3.004  -3.558  -5.556  0.00  0.00    +0.126 A 
ATOM     18  C   UNL     1      -3.340  -2.913  -4.381  0.00  0.00    +0.033 A 
ATOM     19  C   UNL     1      -2.859  -1.642  -4.129  0.00  0.00    +0.007 A 
BRANCH  17  20
ATOM     20  N   UNL     1      -3.515  -4.921  -5.825  0.00  0.00    +0.056 N 
ATOM     21  O   UNL     1      -3.222  -5.485  -6.853  0.00  0.00    -0.126 OA
ATOM     22  O   UNL     1      -4.226  -5.471  -5.016  0.00  0.00    -0.126 OA
ENDBRANCH  17  20
ENDBRANCH   6  14
BRANCH  10  23
ATOM     23  C   UNL     1      -3.385   4.469  -8.420  0.00  0.00    -0.044 A 
ATOM     24  C   UNL     1      -3.994   3.916  -9.530  0.00  0.00    +0.004 A 
ATOM     25  C   UNL     1      -4.501   4.736 -10.521  0.00  0.00    +0.000 A 
ATOM     26  C   UNL     1      -4.399   6.109 -10.401  0.00  0.00    +0.000 A 
ATOM     27  C   UNL     1      -3.790   6.662  -9.290  0.00  0.00    +0.000 A 
ATOM     28  C   UNL     1      -3.287   5.843  -8.297  0.00  0.00    +0.004 A 
ENDBRANCH  10  23
BRANCH   1  29
ATOM     29  C   UNL     1       0.648  -0.159  -3.644  0.00  0.00    +0.338 C 
ATOM     30  O   UNL     1       0.710   0.502  -2.625  0.00  0.00    -0.245 OA
BRANCH  29  31
ATOM     31  O   UNL     1       1.228  -1.377  -3.695  0.00  0.00    -0.458 OA
BRANCH  31  32
ATOM     32  C   UNL     1       1.897  -1.827  -2.515  0.00  0.00    +0.173 C 
ATOM     33  C   UNL     1       3.361  -1.384  -2.559  0.00  0.00    +0.052 C 
BRANCH  32  35
ATOM     34  C   UNL     1       0.371  -3.790  -2.271  0.00  0.00    +0.007 C 
ATOM     35  C   UNL     1       1.828  -3.353  -2.440  0.00  0.00    +0.041 C 
ENDBRANCH  32  35
ENDBRANCH  31  32
ENDBRANCH  29  31
ENDBRANCH   1  29
TORSDOF 7
