REMARK  Name = ZINC39749434
REMARK  8 active torsions:
REMARK  status: ('A' for Active; 'I' for Inactive)
REMARK    1  A    between atoms: C_1  and  C_2
REMARK    2  A    between atoms: C_2  and  C_38
REMARK    3  A    between atoms: C_6  and  C_28
REMARK    4  A    between atoms: C_12  and  S_16
REMARK    5  A    between atoms: S_16  and  C_17
REMARK    6  A    between atoms: C_17  and  C_18
REMARK    7  A    between atoms: C_21  and  N_24
REMARK    8  A    between atoms: C_31  and  O_34
REMARK                            x       y       z     vdW  Elec       q    Type
REMARK                         _______ _______ _______ _____ _____    ______ ____
ROOT
ATOM      1  C   UNL     1      -0.019   1.526   0.010  0.00  0.00    +0.011 C 
ATOM      2  C   UNL     1       0.002  -0.004   0.002  0.00  0.00    -0.023 C 
ATOM      3  C   UNL     1      -1.432  -0.538   0.036  0.00  0.00    +0.062 C 
ATOM      4  C   UNL     1      -1.407  -2.045   0.109  0.00  0.00    +0.051 C 
ATOM      5  C   UNL     1      -0.322  -2.703   0.698  0.00  0.00    +0.025 C 
ATOM      6  C   UNL     1      -0.283  -4.217   0.717  0.00  0.00    +0.073 C 
ATOM      7  C   UNL     1      -1.716  -4.734   0.790  0.00  0.00    +0.156 C 
ATOM      8  C   UNL     1      -2.558  -4.033  -0.239  0.00  0.00    +0.145 C 
ATOM      9  N   UNL     1      -3.398  -4.710  -0.993  0.00  0.00    -0.208 NA
ATOM     10  C   UNL     1      -3.466  -6.041  -0.960  0.00  0.00    +0.182 C 
ATOM     11  N   UNL     1      -2.653  -6.775  -0.208  0.00  0.00    -0.154 NA
ATOM     12  C   UNL     1      -1.784  -6.218   0.606  0.00  0.00    +0.250 C 
ATOM     13  O   UNL     1      -1.024  -6.933   1.229  0.00  0.00    -0.273 OA
ATOM     14  N   UNL     1      -2.402  -2.726  -0.427  0.00  0.00    -0.236 NA
ATOM     15  C   UNL     1       0.707  -2.019   1.250  0.00  0.00    +0.162 C 
ATOM     16  O   UNL     1       1.720  -2.699   1.817  0.00  0.00    -0.292 OA
ATOM     17  C   UNL     1       0.743  -0.515   1.242  0.00  0.00    +0.086 C 
ATOM     18  C   UNL     1       0.710  -0.501  -1.260  0.00  0.00    +0.011 C 
ENDROOT
BRANCH   6  19
ATOM     19  C   UNL     1       0.491  -4.690   1.920  0.00  0.00    -0.038 A 
ATOM     20  C   UNL     1       0.061  -4.359   3.191  0.00  0.00    +0.008 A 
ATOM     21  C   UNL     1       0.769  -4.791   4.296  0.00  0.00    +0.045 A 
ATOM     22  C   UNL     1       1.912  -5.558   4.129  0.00  0.00    +0.117 A 
ATOM     23  C   UNL     1       2.341  -5.890   2.852  0.00  0.00    +0.045 A 
ATOM     24  C   UNL     1       1.627  -5.460   1.750  0.00  0.00    +0.008 A 
BRANCH  22  25
ATOM     25  O   UNL     1       2.611  -5.984   5.214  0.00  0.00    -0.507 OA
ATOM     26  H   UNL     1       2.324  -6.843   5.554  0.00  0.00    +0.292 HD
ENDBRANCH  22  25
ENDBRANCH   6  19
BRANCH  10  27
ATOM     27  S   UNL     1      -4.676  -6.856  -1.947  0.00  0.00    -0.084 S 
BRANCH  27  28
ATOM     28  C   UNL     1      -4.414  -8.617  -1.599  0.00  0.00    +0.112 C 
BRANCH  28  29
ATOM     29  C   UNL     1      -5.399  -9.437  -2.392  0.00  0.00    -0.037 A 
ATOM     30  C   UNL     1      -6.633  -9.746  -1.852  0.00  0.00    +0.007 A 
ATOM     31  C   UNL     1      -7.536 -10.499  -2.579  0.00  0.00    +0.033 A 
ATOM     32  C   UNL     1      -7.205 -10.943  -3.845  0.00  0.00    +0.126 A 
ATOM     33  C   UNL     1      -5.971 -10.633  -4.386  0.00  0.00    +0.033 A 
ATOM     34  C   UNL     1      -5.070  -9.876  -3.660  0.00  0.00    +0.007 A 
BRANCH  32  35
ATOM     35  N   UNL     1      -8.172 -11.750  -4.623  0.00  0.00    +0.056 N 
ATOM     36  O   UNL     1      -9.251 -12.021  -4.150  0.00  0.00    -0.126 OA
ATOM     37  O   UNL     1      -7.883 -12.137  -5.731  0.00  0.00    -0.126 OA
ENDBRANCH  32  35
ENDBRANCH  28  29
ENDBRANCH  27  28
ENDBRANCH  10  27
TORSDOF 6
