REMARK  Name = ZINC39528348
REMARK  9 active torsions:
REMARK  status: ('A' for Active; 'I' for Inactive)
REMARK    1  A    between atoms: C_1  and  C_2
REMARK    2  A    between atoms: C_2  and  C_3
REMARK    3  A    between atoms: C_2  and  S_4
REMARK    4  A    between atoms: S_4  and  C_7
REMARK    5  A    between atoms: C_10  and  N_20
REMARK    6  A    between atoms: C_11  and  C_13
REMARK    7  A    between atoms: C_13  and  C_14
REMARK    8  A    between atoms: C_24  and  C_27
REMARK    9  A    between atoms: C_32  and  O_33
REMARK                            x       y       z     vdW  Elec       q    Type
REMARK                         _______ _______ _______ _____ _____    ______ ____
ROOT
ATOM      1  C   UNL     1      -1.112  -2.049   0.627  0.00  0.00    +0.089 A 
ATOM      2  C   UNL     1      -1.739  -2.756  -0.383  0.00  0.00    +0.029 A 
ATOM      3  C   UNL     1      -1.790  -4.135  -0.334  0.00  0.00    +0.025 A 
ATOM      4  C   UNL     1      -1.209  -4.812   0.731  0.00  0.00    +0.033 A 
ATOM      5  C   UNL     1      -0.580  -4.099   1.743  0.00  0.00    -0.020 A 
ATOM      6  C   UNL     1      -0.528  -2.720   1.685  0.00  0.00    +0.032 A 
ENDROOT
BRANCH   4   7
ATOM      7  N   UNL     1      -1.259  -6.207   0.784  0.00  0.00    -0.333 N 
ATOM      8  C   UNL     1      -0.327  -7.027  -0.005  0.00  0.00    +0.086 C 
ATOM      9  C   UNL     1      -1.135  -8.074  -0.779  0.00  0.00    -0.063 C 
ATOM     10  N   UNL     1      -1.970  -8.836   0.158  0.00  0.00    +0.386 N 
ATOM     11  C   UNL     1      -2.963  -7.950   0.779  0.00  0.00    -0.020 C 
ATOM     12  C   UNL     1      -2.241  -6.897   1.634  0.00  0.00    +0.094 C 
ATOM     13  H   UNL     1      -2.445  -9.574  -0.341  0.00  0.00    -0.085 HD
ATOM     14  H   UNL     1      -1.387  -9.240   0.875  0.00  0.00    -0.085 HD
BRANCH  11  15
ATOM     15  C   UNL     1      -3.883  -8.761   1.654  0.00  0.00    -0.018 A 
ATOM     16  C   UNL     1      -3.451  -9.959   2.189  0.00  0.00    +0.005 A 
ATOM     17  C   UNL     1      -4.295 -10.704   2.991  0.00  0.00    +0.000 A 
ATOM     18  C   UNL     1      -5.574 -10.252   3.261  0.00  0.00    +0.004 A 
ATOM     19  C   UNL     1      -6.011  -9.054   2.729  0.00  0.00    +0.045 A 
ATOM     20  C   UNL     1      -5.164  -8.302   1.927  0.00  0.00    +0.118 A 
BRANCH  20  21
ATOM     21  O   UNL     1      -5.589  -7.121   1.407  0.00  0.00    -0.507 OA
ATOM     22  H   UNL     1      -6.084  -7.211   0.581  0.00  0.00    +0.292 HD
ENDBRANCH  20  21
ENDBRANCH  11  15
ENDBRANCH   4   7
BRANCH   1  23
ATOM     23  S   UNL     1      -1.050  -0.289   0.560  0.00  0.00    -0.001 S 
ATOM     24  O   UNL     1      -0.930   0.121   1.916  0.00  0.00    -0.169 OA
ATOM     25  O   UNL     1      -2.182   0.085  -0.212  0.00  0.00    -0.169 OA
BRANCH  23  27
ATOM     26  C   UNL     1       0.700   1.603  -0.356  0.00  0.00    +0.032 C 
ATOM     27  C   UNL     1       0.476   0.090  -0.344  0.00  0.00    +0.130 C 
ATOM     28  C   UNL     1       1.659  -0.595   0.342  0.00  0.00    +0.032 C 
ENDBRANCH  23  27
ENDBRANCH   1  23
BRANCH   5  29
ATOM     29  C   UNL     1       0.050  -4.830   2.901  0.00  0.00    +0.072 C 
BRANCH  29  30
ATOM     30  C   UNL     1       1.536  -4.943   2.674  0.00  0.00    -0.043 A 
ATOM     31  C   UNL     1       2.063  -6.086   2.103  0.00  0.00    +0.004 A 
ATOM     32  C   UNL     1       3.426  -6.190   1.895  0.00  0.00    +0.000 A 
ATOM     33  C   UNL     1       4.261  -5.150   2.259  0.00  0.00    +0.000 A 
ATOM     34  C   UNL     1       3.734  -4.006   2.829  0.00  0.00    +0.000 A 
ATOM     35  C   UNL     1       2.371  -3.901   3.033  0.00  0.00    +0.004 A 
ENDBRANCH  29  30
ENDBRANCH   5  29
TORSDOF 7
