REMARK  Name = ZINC39875320
REMARK  7 active torsions:
REMARK  status: ('A' for Active; 'I' for Inactive)
REMARK    1  A    between atoms: C_1  and  C_2
REMARK    2  A    between atoms: C_5  and  N_9
REMARK    3  A    between atoms: C_7  and  C_8
REMARK    4  A    between atoms: C_10  and  C_26
REMARK    5  A    between atoms: C_29  and  O_34
REMARK    6  A    between atoms: C_30  and  O_32
REMARK    7  A    between atoms: O_32  and  C_33
REMARK                            x       y       z     vdW  Elec       q    Type
REMARK                         _______ _______ _______ _____ _____    ______ ____
ROOT
ATOM      1  N   UNL     1       0.057  -4.168  -0.021  0.00  0.00    -0.253 N 
ATOM      2  C   UNL     1       0.068  -5.027  -1.217  0.00  0.00    +0.150 C 
ATOM      3  C   UNL     1       0.084  -6.431  -0.710  0.00  0.00    +0.072 A 
ATOM      4  C   UNL     1       0.089  -7.715  -1.419  0.00  0.00    +0.199 A 
ATOM      5  O   UNL     1       0.259  -7.812  -2.622  0.00  0.00    -0.287 OA
ATOM      6  C   UNL     1      -0.130  -8.885  -0.532  0.00  0.00    +0.065 A 
ATOM      7  C   UNL     1      -0.350 -10.151  -1.075  0.00  0.00    +0.030 A 
ATOM      8  C   UNL     1      -0.557 -11.225  -0.237  0.00  0.00    +0.019 A 
ATOM      9  C   UNL     1      -0.547 -11.044   1.140  0.00  0.00    +0.019 A 
ATOM     10  C   UNL     1      -0.330  -9.800   1.687  0.00  0.00    +0.048 A 
ATOM     11  C   UNL     1      -0.115  -8.698   0.860  0.00  0.00    +0.140 A 
ATOM     12  O   UNL     1       0.107  -7.488   1.424  0.00  0.00    -0.450 OA
ATOM     13  C   UNL     1       0.087  -6.381   0.656  0.00  0.00    +0.199 A 
ATOM     14  C   UNL     1       0.073  -4.967   1.066  0.00  0.00    +0.287 C 
ATOM     15  O   UNL     1       0.074  -4.576   2.217  0.00  0.00    -0.266 OA
ATOM     16 BR   UNL     1      -0.855 -12.945  -0.962  0.00  0.00    -0.050 Br
ENDROOT
BRANCH   1  21
ATOM     17  C   UNL     1      -0.018   1.503   0.010  0.00  0.00    +0.044 C 
ATOM     18  C   UNL     1       0.002  -0.004   0.002  0.00  0.00    -0.047 A 
ATOM     19  C   UNL     1       0.006  -0.688  -1.200  0.00  0.00    +0.005 A 
ATOM     20  C   UNL     1       0.024  -2.068  -1.212  0.00  0.00    +0.024 A 
ATOM     21  C   UNL     1       0.039  -2.771  -0.013  0.00  0.00    +0.038 A 
ATOM     22  C   UNL     1       0.036  -2.081   1.193  0.00  0.00    +0.027 A 
ATOM     23  C   UNL     1       0.023  -0.700   1.196  0.00  0.00    -0.046 A 
ATOM     24  C   UNL     1       0.026   0.049   2.504  0.00  0.00    +0.044 C 
ENDBRANCH   1  21
BRANCH   2  25
ATOM     25  C   UNL     1       1.301  -4.756  -2.040  0.00  0.00    -0.018 A 
ATOM     26  C   UNL     1       2.516  -4.549  -1.414  0.00  0.00    +0.009 A 
ATOM     27  C   UNL     1       3.650  -4.300  -2.165  0.00  0.00    +0.049 A 
ATOM     28  C   UNL     1       3.571  -4.258  -3.547  0.00  0.00    +0.158 A 
ATOM     29  C   UNL     1       2.347  -4.467  -4.177  0.00  0.00    +0.162 A 
ATOM     30  C   UNL     1       1.216  -4.721  -3.419  0.00  0.00    +0.055 A 
BRANCH  29  31
ATOM     31  O   UNL     1       2.264  -4.427  -5.534  0.00  0.00    -0.491 OA
ATOM     32  C   UNL     1       0.976  -4.650  -6.112  0.00  0.00    +0.277 C 
ENDBRANCH  29  31
BRANCH  28  33
ATOM     33  O   UNL     1       4.685  -4.013  -4.287  0.00  0.00    -0.503 OA
ATOM     34  H   UNL     1       5.174  -4.809  -4.537  0.00  0.00    +0.292 HD
ENDBRANCH  28  33
ENDBRANCH   2  25
TORSDOF 4
