REMARK  Name = ZINC20131120
REMARK  12 active torsions:
REMARK  status: ('A' for Active; 'I' for Inactive)
REMARK    1  A    between atoms: C_1  and  C_2
REMARK    2  A    between atoms: C_2  and  O_3
REMARK    3  A    between atoms: O_3  and  C_4
REMARK    4  A    between atoms: C_4  and  C_6
REMARK    5  A    between atoms: C_7  and  N_36
REMARK    6  A    between atoms: C_9  and  C_27
REMARK    7  A    between atoms: C_10  and  C_16
REMARK    8  A    between atoms: C_11  and  C_15
REMARK    9  A    between atoms: N_18  and  C_19
REMARK   10  A    between atoms: C_22  and  C_26
REMARK   11  A    between atoms: C_24  and  C_25
REMARK   12  A    between atoms: C_31  and  N_33
REMARK                            x       y       z     vdW  Elec       q    Type
REMARK                         _______ _______ _______ _____ _____    ______ ____
ROOT
ATOM      1  C   UNL     1      -1.375   6.449  -3.437  0.00  0.00    +0.119 A 
ATOM      2  C   UNL     1      -1.024   5.496  -2.503  0.00  0.00    +0.056 A 
ATOM      3  C   UNL     1      -0.590   5.945  -1.190  0.00  0.00    +0.038 A 
ATOM      4  C   UNL     1      -0.182   5.159  -0.074  0.00  0.00    +0.008 A 
ATOM      5  C   UNL     1       0.195   5.814   1.108  0.00  0.00    +0.066 A 
ATOM      6  C   UNL     1       0.173   7.212   1.167  0.00  0.00    +0.052 A 
ATOM      7  N   UNL     1      -0.207   7.916   0.123  0.00  0.00    -0.244 NA
ATOM      8  C   UNL     1      -0.575   7.347  -1.008  0.00  0.00    +0.112 A 
ATOM      9  S   UNL     1      -1.130   7.986  -2.570  0.00  0.00    -0.060 S 
ATOM     10  C   UNL     1       0.584   7.914   2.435  0.00  0.00    +0.066 C 
ENDROOT
BRANCH   4  11
ATOM     11  C   UNL     1      -0.161   3.682  -0.159  0.00  0.00    -0.014 A 
ATOM     12  C   UNL     1       1.051   3.005  -0.307  0.00  0.00    +0.009 A 
ATOM     13  C   UNL     1       1.064   1.628  -0.380  0.00  0.00    +0.003 A 
ATOM     14  C   UNL     1      -0.122   0.918  -0.318  0.00  0.00    +0.033 A 
ATOM     15  C   UNL     1      -1.327   1.582  -0.171  0.00  0.00    +0.127 A 
ATOM     16  C   UNL     1      -1.353   2.959  -0.091  0.00  0.00    +0.041 A 
BRANCH  15  17
ATOM     17  N   UNL     1      -2.590   0.814  -0.099  0.00  0.00    +0.056 N 
ATOM     18  O   UNL     1      -2.568  -0.402  -0.169  0.00  0.00    -0.126 OA
ATOM     19  O   UNL     1      -3.651   1.398   0.031  0.00  0.00    -0.126 OA
ENDBRANCH  15  17
ENDBRANCH   4  11
BRANCH   5  20
ATOM     20  C   UNL     1       0.616   5.032   2.283  0.00  0.00    +0.251 C 
ATOM     21  O   UNL     1       1.788   4.742   2.432  0.00  0.00    -0.270 OA
ATOM     22  N   UNL     1      -0.296   4.637   3.193  0.00  0.00    -0.281 N 
ATOM     23  H   UNL     1      -1.365   4.834   3.021  0.00  0.00    +0.155 HD
BRANCH  22  24
ATOM     24  C   UNL     1       0.115   3.978   4.355  0.00  0.00    +0.037 A 
ATOM     25  C   UNL     1       1.213   3.127   4.322  0.00  0.00    +0.024 A 
ATOM     26  C   UNL     1       1.617   2.478   5.471  0.00  0.00    +0.005 A 
ATOM     27  C   UNL     1       0.930   2.674   6.656  0.00  0.00    -0.050 A 
ATOM     28  C   UNL     1      -0.163   3.520   6.693  0.00  0.00    +0.008 A 
ATOM     29  C   UNL     1      -0.570   4.176   5.547  0.00  0.00    -0.029 A 
ATOM     30  C   UNL     1      -1.758   5.102   5.590  0.00  0.00    +0.045 C 
ATOM     31  C   UNL     1       1.374   1.964   7.909  0.00  0.00    +0.044 C 
ENDBRANCH  22  24
ENDBRANCH   5  20
BRANCH   2  32
ATOM     32  N   UNL     1      -1.084   4.145  -2.808  0.00  0.00    -0.356 N 
ATOM     33  H   UNL     1      -0.800   3.397  -2.053  0.00  0.00    +0.142 HD
ATOM     34  H   UNL     1      -1.414   3.821  -3.806  0.00  0.00    +0.142 HD
ENDBRANCH   2  32
BRANCH   1  35
ATOM     35  C   UNL     1      -1.822   6.253  -4.764  0.00  0.00    +0.348 C 
ATOM     36  O   UNL     1      -1.936   5.125  -5.207  0.00  0.00    -0.244 OA
BRANCH  35  37
ATOM     37  O   UNL     1      -2.123   7.316  -5.539  0.00  0.00    -0.461 OA
BRANCH  37  39
ATOM     38  C   UNL     1      -2.859   8.362  -7.590  0.00  0.00    +0.048 C 
ATOM     39  C   UNL     1      -2.569   7.044  -6.870  0.00  0.00    +0.229 C 
ENDBRANCH  37  39
ENDBRANCH  35  37
ENDBRANCH   1  35
TORSDOF 8
