REMARK  Name = ZINC23632404
REMARK  8 active torsions:
REMARK  status: ('A' for Active; 'I' for Inactive)
REMARK    1  A    between atoms: C_1  and  C_2
REMARK    2  A    between atoms: C_5  and  N_9
REMARK    3  A    between atoms: C_6  and  C_8
REMARK    4  A    between atoms: C_10  and  S_14
REMARK    5  A    between atoms: S_14  and  C_15
REMARK    6  A    between atoms: C_15  and  C_16
REMARK    7  A    between atoms: N_21  and  C_22
REMARK    8  A    between atoms: C_28  and  C_30
REMARK                            x       y       z     vdW  Elec       q    Type
REMARK                         _______ _______ _______ _____ _____    ______ ____
ROOT
ATOM      1  C   UNL     1       1.734   2.549   0.911  0.00  0.00    +0.173 C 
ENDROOT
BRANCH   1   2
ATOM      2  C   UNL     1       0.373   1.931   1.100  0.00  0.00    +0.231 C 
ATOM      3  O   UNL     1       0.241   0.727   1.053  0.00  0.00    -0.274 OA
ATOM      4  N   UNL     1      -0.700   2.718   1.316  0.00  0.00    -0.239 N 
ATOM      5  C   UNL     1      -1.919   2.166   1.479  0.00  0.00    +0.306 C 
ATOM      6  O   UNL     1      -2.050   0.959   1.432  0.00  0.00    -0.252 OA
ATOM      7  N   UNL     1      -2.992   2.953   1.694  0.00  0.00    -0.296 N 
ATOM      8  H   UNL     1      -0.581   3.811   1.359  0.00  0.00    +0.159 HD
ATOM      9  H   UNL     1      -2.873   4.046   1.737  0.00  0.00    +0.151 HD
BRANCH   7  10
ATOM     10  C   UNL     1      -4.316   2.353   1.872  0.00  0.00    +0.077 C 
ATOM     11  C   UNL     1      -4.954   2.110   0.502  0.00  0.00    +0.022 C 
ATOM     12  C   UNL     1      -5.092   3.441  -0.240  0.00  0.00    +0.002 C 
ATOM     13  C   UNL     1      -5.976   4.388   0.573  0.00  0.00    +0.000 C 
ATOM     14  C   UNL     1      -5.339   4.631   1.943  0.00  0.00    +0.005 C 
ATOM     15  C   UNL     1      -5.201   3.300   2.685  0.00  0.00    +0.006 C 
ATOM     16  C   UNL     1      -4.564   3.544   4.054  0.00  0.00    +0.009 C 
ENDBRANCH   7  10
ENDBRANCH   1   2
BRANCH   1  17
ATOM     17  S   UNL     1       2.956   1.242   0.636  0.00  0.00    -0.075 S 
BRANCH  17  19
ATOM     18  N   UNL     1       5.668   1.759   0.225  0.00  0.00    -0.187 N 
ATOM     19  C   UNL     1       4.412   2.219   0.453  0.00  0.00    +0.214 A 
ATOM     20  N   UNL     1       4.487   3.531   0.515  0.00  0.00    -0.101 NA
ATOM     21  N   UNL     1       5.697   3.921   0.339  0.00  0.00    -0.022 NA
ATOM     22  N   UNL     1       6.474   2.909   0.154  0.00  0.00    -0.038 NA
BRANCH  18  27
ATOM     23  C   UNL     1       7.317  -3.644  -0.326  0.00  0.00    +0.044 C 
ATOM     24  C   UNL     1       6.879  -2.210  -0.179  0.00  0.00    -0.050 A 
ATOM     25  C   UNL     1       6.062  -1.841   0.874  0.00  0.00    +0.005 A 
ATOM     26  C   UNL     1       5.659  -0.527   1.011  0.00  0.00    +0.028 A 
ATOM     27  C   UNL     1       6.075   0.424   0.089  0.00  0.00    +0.073 A 
ATOM     28  C   UNL     1       6.890   0.050  -0.971  0.00  0.00    -0.025 A 
ATOM     29  C   UNL     1       7.294  -1.264  -1.099  0.00  0.00    +0.008 A 
ATOM     30  C   UNL     1       7.338   1.079  -1.977  0.00  0.00    +0.046 C 
ENDBRANCH  18  27
ENDBRANCH  17  19
ENDBRANCH   1  17
TORSDOF 5
