REMARK  Name = ZINC09311994
REMARK  17 active torsions:
REMARK  status: ('A' for Active; 'I' for Inactive)
REMARK    1  A    between atoms: C_1  and  C_2
REMARK    2  A    between atoms: C_2  and  N_76
REMARK    3  A    between atoms: C_3  and  C_4
REMARK    4  A    between atoms: C_3  and  N_76
REMARK    5  A    between atoms: C_5  and  C_6
REMARK    6  A    between atoms: C_5  and  N_76
REMARK    7  A    between atoms: C_6  and  N_7
REMARK    8  A    between atoms: C_8  and  C_28
REMARK    9  A    between atoms: C_11  and  C_12
REMARK   10  A    between atoms: C_11  and  O_23
REMARK   11  A    between atoms: C_19  and  C_22
REMARK   12  A    between atoms: C_31  and  O_37
REMARK   13  A    between atoms: C_32  and  O_34
REMARK   14  A    between atoms: O_34  and  C_35
REMARK   15  A    between atoms: C_35  and  C_36
REMARK   16  A    between atoms: O_37  and  C_38
REMARK   17  A    between atoms: C_38  and  C_39
REMARK                            x       y       z     vdW  Elec       q    Type
REMARK                         _______ _______ _______ _____ _____    ______ ____
ROOT
ATOM      1  N   UNL     1      -3.832   3.734   1.057  0.00  0.00    -0.285 N 
ATOM      2  C   UNL     1      -2.701   3.968   0.155  0.00  0.00    +0.144 C 
ATOM      3  C   UNL     1      -3.283   4.185  -1.223  0.00  0.00    +0.071 C 
ATOM      4  C   UNL     1      -2.586   4.442  -2.388  0.00  0.00    +0.133 C 
ATOM      5  C   UNL     1      -4.675   4.074  -1.079  0.00  0.00    +0.249 C 
ATOM      6  O   UNL     1      -5.496   4.187  -1.971  0.00  0.00    -0.282 OA
ATOM      7  C   UNL     1      -4.973   3.794   0.351  0.00  0.00    +0.288 C 
ATOM      8  O   UNL     1      -6.086   3.641   0.813  0.00  0.00    -0.266 OA
ENDROOT
BRANCH   4   9
ATOM      9  C   UNL     1      -3.294   4.480  -3.676  0.00  0.00    +0.017 A 
ATOM     10  C   UNL     1      -4.137   3.426  -4.050  0.00  0.00    +0.015 A 
ATOM     11  C   UNL     1      -4.805   3.469  -5.250  0.00  0.00    +0.046 A 
ATOM     12  C   UNL     1      -4.643   4.555  -6.112  0.00  0.00    +0.124 A 
ATOM     13  C   UNL     1      -3.794   5.595  -5.741  0.00  0.00    -0.002 A 
ATOM     14  C   UNL     1      -3.128   5.569  -4.542  0.00  0.00    +0.019 A 
ATOM     15  C   UNL     1      -3.805   6.603  -6.875  0.00  0.00    +0.083 C 
ATOM     16  C   UNL     1      -4.433   5.781  -8.026  0.00  0.00    +0.175 C 
ATOM     17  O   UNL     1      -5.207   4.793  -7.327  0.00  0.00    -0.488 OA
ATOM     18  C   UNL     1      -3.345   5.117  -8.873  0.00  0.00    +0.052 C 
ENDBRANCH   4   9
BRANCH   2  19
ATOM     19  C   UNL     1      -1.790   2.767   0.146  0.00  0.00    -0.019 A 
ATOM     20  C   UNL     1      -2.328   1.493   0.167  0.00  0.00    +0.009 A 
ATOM     21  C   UNL     1      -1.496   0.389   0.165  0.00  0.00    +0.050 A 
ATOM     22  C   UNL     1      -0.121   0.556   0.131  0.00  0.00    +0.162 A 
ATOM     23  C   UNL     1       0.420   1.838   0.104  0.00  0.00    +0.162 A 
ATOM     24  C   UNL     1      -0.419   2.941   0.112  0.00  0.00    +0.055 A 
BRANCH  23  25
ATOM     25  O   UNL     1       1.768   2.008   0.070  0.00  0.00    -0.489 OA
BRANCH  25  26
ATOM     26  C   UNL     1       2.253   3.352   0.044  0.00  0.00    +0.226 C 
ATOM     27  C   UNL     1       3.782   3.343   0.008  0.00  0.00    +0.048 C 
ENDBRANCH  25  26
ENDBRANCH  23  25
BRANCH  22  28
ATOM     28  O   UNL     1       0.698  -0.529   0.122  0.00  0.00    -0.489 OA
BRANCH  28  29
ATOM     29  C   UNL     1       0.072  -1.814   0.151  0.00  0.00    +0.226 C 
ATOM     30  C   UNL     1       1.146  -2.904   0.137  0.00  0.00    +0.048 C 
ENDBRANCH  28  29
ENDBRANCH  22  28
ENDBRANCH   2  19
BRANCH   4  31
ATOM     31  O   UNL     1      -1.254   4.658  -2.343  0.00  0.00    -0.506 OA
ATOM     32  H   UNL     1      -0.912   4.827  -3.268  0.00  0.00    +0.292 HD
ENDBRANCH   4  31
BRANCH   1  33
ATOM     33  C   UNL     1      -3.733   3.477   2.496  0.00  0.00    +0.090 C 
BRANCH  33  34
ATOM     34  C   UNL     1      -3.786   4.804   3.256  0.00  0.00    -0.060 C 
BRANCH  34  35
ATOM     35  N   UNL     1      -3.829   4.519   4.705  0.00  0.00    +0.380 N 
ATOM     36  H   UNL     1      -4.470   3.734   4.872  0.00  0.00    -0.082 HD
BRANCH  35  38
ATOM     37  C   UNL     1      -2.595   3.646   6.628  0.00  0.00    -0.017 C 
ATOM     38  C   UNL     1      -2.482   4.149   5.188  0.00  0.00    -0.082 C 
ENDBRANCH  35  38
BRANCH  35  39
ATOM     39  C   UNL     1      -4.321   5.704   5.439  0.00  0.00    -0.082 C 
ATOM     40  C   UNL     1      -5.839   5.788   5.273  0.00  0.00    -0.017 C 
ENDBRANCH  35  39
ENDBRANCH  34  35
ENDBRANCH  33  34
ENDBRANCH   1  33
TORSDOF 12
