REMARK  Name = ZINC39984390
REMARK  7 active torsions:
REMARK  status: ('A' for Active; 'I' for Inactive)
REMARK    1  A    between atoms: C_1  and  C_2
REMARK    2  A    between atoms: C_5  and  S_8
REMARK    3  A    between atoms: S_8  and  N_11
REMARK    4  A    between atoms: C_13  and  N_23
REMARK    5  A    between atoms: N_23  and  C_24
REMARK    6  A    between atoms: C_27  and  C_31
REMARK    7  A    between atoms: C_28  and  O_30
REMARK                            x       y       z     vdW  Elec       q    Type
REMARK                         _______ _______ _______ _____ _____    ______ ____
ROOT
ATOM      1  N   UNL     1       1.677  -4.668   0.339  0.00  0.00    -0.110 NA
ATOM      2  C   UNL     1       1.890  -5.927   0.093  0.00  0.00    +0.192 C 
ATOM      3  C   UNL     1       3.299  -6.447  -0.082  0.00  0.00    +0.237 C 
ATOM      4  N   UNL     1       3.473  -7.882  -0.358  0.00  0.00    -0.359 N 
ATOM      5  C   UNL     1       2.410  -8.633  -0.438  0.00  0.00    +0.063 A 
ATOM      6  C   UNL     1       2.530 -10.073  -0.712  0.00  0.00    +0.027 A 
ATOM      7  C   UNL     1       1.406 -10.819  -0.787  0.00  0.00    +0.002 A 
ATOM      8  C   UNL     1       0.131 -10.255  -0.610  0.00  0.00    +0.002 A 
ATOM      9  C   UNL     1      -0.057  -8.941  -0.356  0.00  0.00    +0.030 A 
ATOM     10  C   UNL     1       1.052  -8.064  -0.256  0.00  0.00    +0.089 A 
ATOM     11  N   UNL     1       0.863  -6.786  -0.003  0.00  0.00    -0.226 NA
ATOM     12  H   UNL     1       4.358  -8.260  -0.478  0.00  0.00    +0.162 HD
ENDROOT
BRANCH   1  13
ATOM     13  S   UNL     1       0.129  -4.113   0.536  0.00  0.00    +0.100 S 
ATOM     14  O   UNL     1      -0.369  -4.713   1.724  0.00  0.00    -0.146 OA
ATOM     15  O   UNL     1      -0.518  -4.260  -0.721  0.00  0.00    -0.146 OA
BRANCH  13  20
ATOM     16  C   UNL     1       0.478   1.813   1.612  0.00  0.00    +0.044 C 
ATOM     17  C   UNL     1       0.391   0.333   1.343  0.00  0.00    -0.050 A 
ATOM     18  C   UNL     1       0.281  -0.128   0.045  0.00  0.00    +0.005 A 
ATOM     19  C   UNL     1       0.201  -1.486  -0.202  0.00  0.00    +0.029 A 
ATOM     20  C   UNL     1       0.232  -2.383   0.850  0.00  0.00    +0.113 A 
ATOM     21  C   UNL     1       0.344  -1.921   2.148  0.00  0.00    +0.029 A 
ATOM     22  C   UNL     1       0.428  -0.564   2.395  0.00  0.00    +0.005 A 
ENDBRANCH  13  20
ENDBRANCH   1  13
BRANCH   3  23
ATOM     23  N   UNL     1       4.046  -6.133   1.138  0.00  0.00    -0.318 N 
ATOM     24  H   UNL     1       3.639  -6.277   2.007  0.00  0.00    +0.148 HD
BRANCH  23  25
ATOM     25  C   UNL     1       5.339  -5.630   1.052  0.00  0.00    +0.032 A 
ATOM     26  C   UNL     1       5.979  -5.569  -0.186  0.00  0.00    +0.024 A 
ATOM     27  C   UNL     1       7.247  -5.077  -0.283  0.00  0.00    +0.020 A 
ATOM     28  C   UNL     1       7.916  -4.629   0.863  0.00  0.00    +0.105 A 
ATOM     29  C   UNL     1       7.275  -4.689   2.113  0.00  0.00    +0.133 A 
ATOM     30  C   UNL     1       5.986  -5.185   2.198  0.00  0.00    +0.069 A 
BRANCH  28  31
ATOM     31  C   UNL     1       9.281  -4.099   0.760  0.00  0.00    +0.390 C 
ATOM     32  O   UNL     1       9.837  -4.049  -0.329  0.00  0.00    -0.240 OA
ATOM     33  O   UNL     1       9.863  -3.708   1.763  0.00  0.00    -0.240 OA
ENDBRANCH  28  31
BRANCH  29  34
ATOM     34  O   UNL     1       7.914  -4.258   3.228  0.00  0.00    -0.506 OA
ATOM     35  H   UNL     1       7.775  -3.321   3.424  0.00  0.00    +0.292 HD
ENDBRANCH  29  34
ENDBRANCH  23  25
ENDBRANCH   3  23
TORSDOF 6
