REMARK  Name = ZINC13064726
REMARK  13 active torsions:
REMARK  status: ('A' for Active; 'I' for Inactive)
REMARK    1  A    between atoms: C_1  and  C_2
REMARK    2  A    between atoms: C_2  and  C_3
REMARK    3  A    between atoms: C_3  and  C_5
REMARK    4  A    between atoms: C_3  and  N_73
REMARK    5  A    between atoms: N_9  and  C_10
REMARK    6  A    between atoms: C_10  and  C_11
REMARK    7  A    between atoms: C_11  and  C_12
REMARK    8  A    between atoms: C_18  and  C_19
REMARK    9  A    between atoms: C_18  and  N_73
REMARK   10  A    between atoms: C_23  and  C_32
REMARK   11  A    between atoms: C_24  and  C_31
REMARK   12  A    between atoms: C_33  and  C_34
REMARK   13  A    between atoms: C_33  and  N_73
REMARK                            x       y       z     vdW  Elec       q    Type
REMARK                         _______ _______ _______ _____ _____    ______ ____
ROOT
ATOM      1  N   UNL     1       3.031   0.865  -1.550  0.00  0.00    +0.391 N 
ATOM      2  H   UNL     1       2.345   0.459  -2.197  0.00  0.00    -0.080 HD
ENDROOT
BRANCH   1   3
ATOM      3  C   UNL     1       4.227  -0.003  -1.511  0.00  0.00    +0.003 C 
BRANCH   3   4
ATOM      4  C   UNL     1       5.159   0.431  -0.409  0.00  0.00    +0.138 A 
ATOM      5  N   UNL     1       4.842   0.645   0.845  0.00  0.00    -0.115 NA
ATOM      6  N   UNL     1       5.911   1.000   1.470  0.00  0.00    -0.023 NA
ATOM      7  N   UNL     1       6.902   1.018   0.648  0.00  0.00    -0.044 NA
ATOM      8  N   UNL     1       6.479   0.668  -0.520  0.00  0.00    -0.231 N 
BRANCH   8   9
ATOM      9  C   UNL     1       7.284   0.554  -1.739  0.00  0.00    +0.152 C 
BRANCH   9  10
ATOM     10  C   UNL     1       7.290   1.896  -2.474  0.00  0.00    +0.058 C 
BRANCH  10  11
ATOM     11  C   UNL     1       8.118   1.778  -3.727  0.00  0.00    -0.046 A 
ATOM     12  C   UNL     1       9.470   2.061  -3.691  0.00  0.00    +0.004 A 
ATOM     13  C   UNL     1      10.231   1.949  -4.840  0.00  0.00    +0.000 A 
ATOM     14  C   UNL     1       9.637   1.563  -6.027  0.00  0.00    +0.000 A 
ATOM     15  C   UNL     1       8.283   1.285  -6.064  0.00  0.00    +0.000 A 
ATOM     16  C   UNL     1       7.524   1.393  -4.915  0.00  0.00    +0.004 A 
ENDBRANCH  10  11
ENDBRANCH   9  10
ENDBRANCH   8   9
ENDBRANCH   3   4
BRANCH   3  18
ATOM     17  C   UNL     1       2.939  -1.929  -2.446  0.00  0.00    +0.002 C 
ATOM     18  C   UNL     1       3.780  -1.445  -1.263  0.00  0.00    -0.011 C 
ENDBRANCH   3  18
ENDBRANCH   1   3
BRANCH   1  19
ATOM     19  C   UNL     1       2.427   0.955  -0.204  0.00  0.00    -0.036 C 
BRANCH  19  20
ATOM     20  C   UNL     1       0.997   1.408  -0.345  0.00  0.00    +0.001 A 
ATOM     21  C   UNL     1       0.000   0.491  -0.403  0.00  0.00    +0.017 A 
ATOM     22  C   UNL     1      -1.378   0.963  -0.546  0.00  0.00    -0.001 A 
ATOM     23  C   UNL     1      -2.447   0.065  -0.617  0.00  0.00    +0.013 A 
ATOM     24  C   UNL     1      -3.722   0.538  -0.750  0.00  0.00    -0.047 A 
ATOM     25  C   UNL     1      -3.965   1.903  -0.816  0.00  0.00    -0.046 A 
ATOM     26  C   UNL     1      -2.928   2.807  -0.738  0.00  0.00    +0.030 A 
ATOM     27  C   UNL     1      -1.621   2.349  -0.608  0.00  0.00    +0.049 A 
ATOM     28  N   UNL     1      -0.563   3.230  -0.544  0.00  0.00    -0.322 N 
ATOM     29  H   UNL     1      -0.732   4.184  -0.590  0.00  0.00    +0.169 HD
ATOM     30  C   UNL     1       0.700   2.786  -0.417  0.00  0.00    +0.251 A 
ATOM     31  O   UNL     1       1.611   3.594  -0.363  0.00  0.00    -0.268 OA
ATOM     32  C   UNL     1      -5.380   2.402  -0.963  0.00  0.00    +0.044 C 
ATOM     33  C   UNL     1      -4.874  -0.430  -0.826  0.00  0.00    +0.044 C 
ENDBRANCH  19  20
ENDBRANCH   1  19
BRANCH   1  34
ATOM     34  C   UNL     1       3.402   2.214  -2.028  0.00  0.00    -0.045 C 
BRANCH  34  35
ATOM     35  C   UNL     1       3.801   2.123  -3.502  0.00  0.00    +0.102 C 
ATOM     36  C   UNL     1       4.182   3.519  -4.043  0.00  0.00    +0.032 C 
ATOM     37  C   UNL     1       3.635   3.523  -5.488  0.00  0.00    +0.030 C 
ATOM     38  C   UNL     1       2.989   2.129  -5.649  0.00  0.00    +0.160 C 
ATOM     39  O   UNL     1       2.672   1.712  -4.303  0.00  0.00    -0.378 OA
ENDBRANCH  34  35
ENDBRANCH   1  34
TORSDOF 10
