REMARK  Name = ZINC02926360
REMARK  10 active torsions:
REMARK  status: ('A' for Active; 'I' for Inactive)
REMARK    1  A    between atoms: C_1  and  C_2
REMARK    2  A    between atoms: C_2  and  S_3
REMARK    3  A    between atoms: S_3  and  C_4
REMARK    4  A    between atoms: C_4  and  C_5
REMARK    5  A    between atoms: C_5  and  O_6
REMARK    6  A    between atoms: O_6  and  C_7
REMARK    7  A    between atoms: C_7  and  C_9
REMARK    8  A    between atoms: C_10  and  C_35
REMARK    9  A    between atoms: C_14  and  C_16
REMARK   10  A    between atoms: C_26  and  C_29
REMARK                            x       y       z     vdW  Elec       q    Type
REMARK                         _______ _______ _______ _____ _____    ______ ____
ROOT
ATOM      1  C   UNL     1      -0.752   6.635   1.290  0.00  0.00    +0.065 C 
ATOM      2  C   UNL     1      -2.018   7.085   1.277  0.00  0.00    +0.016 C 
ATOM      3  N   UNL     1      -2.726   7.127   0.108  0.00  0.00    -0.321 N 
ATOM      4  C   UNL     1      -2.080   7.104  -1.099  0.00  0.00    +0.016 C 
ATOM      5  C   UNL     1      -0.812   6.650  -1.189  0.00  0.00    +0.024 C 
ATOM      6  C   UNL     1      -0.082   6.158   0.036  0.00  0.00    +0.092 C 
ATOM      7  C   UNL     1      -0.137   6.620  -2.422  0.00  0.00    +0.162 C 
ATOM      8  O   UNL     1       1.009   6.219  -2.466  0.00  0.00    -0.292 OA
ATOM      9  C   UNL     1      -0.809   7.076  -3.688  0.00  0.00    +0.088 C 
ATOM     10  C   UNL     1      -2.320   6.854  -3.558  0.00  0.00    +0.032 C 
ATOM     11  C   UNL     1      -2.816   7.601  -2.319  0.00  0.00    +0.059 C 
ATOM     12  C   UNL     1      -2.663   7.546   2.559  0.00  0.00    +0.061 C 
ATOM     13  H   UNL     1      -3.824   7.180   0.131  0.00  0.00    +0.152 HD
ENDROOT
BRANCH   6  14
ATOM     14  C   UNL     1      -0.061   4.651   0.027  0.00  0.00    -0.035 A 
ATOM     15  C   UNL     1       1.145   3.977   0.013  0.00  0.00    +0.005 A 
ATOM     16  C   UNL     1       1.165   2.595   0.005  0.00  0.00    +0.015 A 
ATOM     17  C   UNL     1      -0.024   1.887   0.012  0.00  0.00    +0.018 A 
ATOM     18  C   UNL     1      -1.231   2.562   0.022  0.00  0.00    +0.015 A 
ATOM     19  C   UNL     1      -1.249   3.944   0.035  0.00  0.00    +0.005 A 
ATOM     20 BR   UNL     1       0.002  -0.004   0.002  0.00  0.00    -0.050 Br
ENDBRANCH   6  14
BRANCH  10  21
ATOM     21  C   UNL     1      -3.017   7.386  -4.784  0.00  0.00    -0.044 A 
ATOM     22  C   UNL     1      -2.912   8.724  -5.112  0.00  0.00    +0.004 A 
ATOM     23  C   UNL     1      -3.548   9.212  -6.239  0.00  0.00    +0.000 A 
ATOM     24  C   UNL     1      -4.298   8.363  -7.031  0.00  0.00    +0.000 A 
ATOM     25  C   UNL     1      -4.408   7.025  -6.699  0.00  0.00    +0.000 A 
ATOM     26  C   UNL     1      -3.768   6.537  -5.575  0.00  0.00    +0.004 A 
ENDBRANCH  10  21
BRANCH   1  27
ATOM     27  C   UNL     1      -0.038   6.609   2.511  0.00  0.00    +0.338 C 
ATOM     28  O   UNL     1      -0.571   6.993   3.536  0.00  0.00    -0.245 OA
BRANCH  27  29
ATOM     29  O   UNL     1       1.234   6.159   2.540  0.00  0.00    -0.460 OA
BRANCH  29  30
ATOM     30  C   UNL     1       1.895   6.161   3.807  0.00  0.00    +0.243 C 
BRANCH  30  31
ATOM     31  C   UNL     1       3.316   5.620   3.641  0.00  0.00    +0.110 C 
BRANCH  31  32
ATOM     32  S   UNL     1       4.155   5.622   5.250  0.00  0.00    -0.158 S 
BRANCH  32  34
ATOM     33  C   UNL     1       6.629   4.910   6.173  0.00  0.00    +0.015 C 
ATOM     34  C   UNL     1       5.805   4.963   4.885  0.00  0.00    +0.066 C 
ENDBRANCH  32  34
ENDBRANCH  31  32
ENDBRANCH  30  31
ENDBRANCH  29  30
ENDBRANCH  27  29
ENDBRANCH   1  27
TORSDOF 8
