REMARK  Name = ZINC39456387
REMARK  9 active torsions:
REMARK  status: ('A' for Active; 'I' for Inactive)
REMARK    1  A    between atoms: C_1  and  C_2
REMARK    2  A    between atoms: C_2  and  O_3
REMARK    3  A    between atoms: O_3  and  N_4
REMARK    4  A    between atoms: C_13  and  C_19
REMARK    5  A    between atoms: C_19  and  C_20
REMARK    6  A    between atoms: C_27  and  S_32
REMARK    7  A    between atoms: S_32  and  C_35
REMARK    8  A    between atoms: C_35  and  C_36
REMARK    9  A    between atoms: C_35  and  C_37
REMARK                            x       y       z     vdW  Elec       q    Type
REMARK                         _______ _______ _______ _____ _____    ______ ____
ROOT
ATOM      1  N   UNL     1      -1.431  -1.912   0.005  0.00  0.00    -0.138 N 
ATOM      2  C   UNL     1      -1.481  -2.576  -1.216  0.00  0.00    +0.150 A 
ATOM      3  C   UNL     1      -1.566  -3.952  -1.273  0.00  0.00    +0.086 A 
ATOM      4  C   UNL     1      -1.612  -4.738  -0.027  0.00  0.00    +0.100 A 
ATOM      5  C   UNL     1      -1.561  -4.034   1.205  0.00  0.00    +0.070 A 
ATOM      6  C   UNL     1      -1.462  -2.566   1.180  0.00  0.00    +0.293 A 
ATOM      7  O   UNL     1      -1.413  -1.942   2.224  0.00  0.00    -0.264 OA
ATOM      8  C   UNL     1      -1.598  -4.724   2.408  0.00  0.00    +0.025 A 
ATOM      9  C   UNL     1      -1.687  -6.124   2.356  0.00  0.00    +0.005 A 
ATOM     10  C   UNL     1      -1.727  -6.909   3.520  0.00  0.00    -0.034 A 
ATOM     11  C   UNL     1      -1.814  -8.263   3.411  0.00  0.00    +0.004 A 
ATOM     12  C   UNL     1      -1.864  -8.892   2.169  0.00  0.00    +0.002 A 
ATOM     13  C   UNL     1      -1.828  -8.187   1.006  0.00  0.00    +0.028 A 
ATOM     14  C   UNL     1      -1.738  -6.783   1.048  0.00  0.00    +0.072 A 
ATOM     15  N   UNL     1      -1.698  -6.055  -0.067  0.00  0.00    -0.245 NA
ATOM     16  N   UNL     1      -1.601  -4.590  -2.498  0.00  0.00    -0.319 N 
ATOM     17  C   UNL     1      -0.977  -3.922  -3.650  0.00  0.00    +0.222 C 
ATOM     18  C   UNL     1      -1.552  -2.505  -3.751  0.00  0.00    +0.127 C 
ATOM     19  C   UNL     1      -1.440  -1.824  -2.412  0.00  0.00    +0.188 C 
ATOM     20  O   UNL     1      -1.313  -0.617  -2.360  0.00  0.00    -0.290 OA
ATOM     21  H   UNL     1      -2.025  -5.457  -2.595  0.00  0.00    +0.148 HD
ENDROOT
BRANCH  17  22
ATOM     22  S   UNL     1       0.819  -3.839  -3.412  0.00  0.00    -0.010 S 
ATOM     23  O   UNL     1       1.405  -3.303  -4.590  0.00  0.00    -0.172 OA
ATOM     24  O   UNL     1       1.078  -3.210  -2.164  0.00  0.00    -0.172 OA
BRANCH  22  25
ATOM     25  C   UNL     1       1.287  -5.587  -3.282  0.00  0.00    +0.126 C 
ATOM     26  C   UNL     1       0.895  -6.317  -4.568  0.00  0.00    +0.031 C 
ATOM     27  C   UNL     1       2.799  -5.696  -3.074  0.00  0.00    +0.031 C 
ENDBRANCH  22  25
ENDBRANCH  17  22
BRANCH   1  28
ATOM     28  O   UNL     1      -1.339  -0.499   0.012  0.00  0.00    -0.408 OA
BRANCH  28  30
ATOM     29  C   UNL     1      -0.019   1.526   0.010  0.00  0.00    +0.051 C 
ATOM     30  C   UNL     1       0.002  -0.004   0.002  0.00  0.00    +0.257 C 
ENDBRANCH  28  30
ENDBRANCH   1  28
BRANCH  10  31
ATOM     31  C   UNL     1      -1.674  -6.258   4.878  0.00  0.00    +0.071 C 
BRANCH  31  32
ATOM     32  C   UNL     1      -3.062  -5.839   5.289  0.00  0.00    -0.043 A 
ATOM     33  C   UNL     1      -3.532  -4.583   4.955  0.00  0.00    +0.004 A 
ATOM     34  C   UNL     1      -4.806  -4.199   5.332  0.00  0.00    +0.000 A 
ATOM     35  C   UNL     1      -5.609  -5.071   6.043  0.00  0.00    +0.000 A 
ATOM     36  C   UNL     1      -5.138  -6.328   6.376  0.00  0.00    +0.000 A 
ATOM     37  C   UNL     1      -3.867  -6.713   5.995  0.00  0.00    +0.004 A 
ENDBRANCH  31  32
ENDBRANCH  10  31
TORSDOF 6
