REMARK  Name = ZINC37064024
REMARK  7 active torsions:
REMARK  status: ('A' for Active; 'I' for Inactive)
REMARK    1  A    between atoms: C_1  and  N_2
REMARK    2  A    between atoms: N_2  and  C_3
REMARK    3  A    between atoms: N_2  and  S_7
REMARK    4  A    between atoms: C_3  and  C_4
REMARK    5  A    between atoms: C_4  and  C_5
REMARK    6  A    between atoms: S_7  and  C_10
REMARK    7  A    between atoms: C_11  and  N_18
REMARK                            x       y       z     vdW  Elec       q    Type
REMARK                         _______ _______ _______ _____ _____    ______ ____
ROOT
ATOM      1  C   UNL     1       1.625  -1.206  -2.147  0.00  0.00    +0.140 A 
ATOM      2  C   UNL     1       2.296  -0.158  -2.765  0.00  0.00    +0.053 A 
ATOM      3  C   UNL     1       3.679  -0.200  -2.890  0.00  0.00    +0.040 A 
ATOM      4  C   UNL     1       4.383  -1.283  -2.399  0.00  0.00    +0.021 A 
ATOM      5  C   UNL     1       3.713  -2.325  -1.784  0.00  0.00    +0.032 A 
ATOM      6  C   UNL     1       2.336  -2.284  -1.654  0.00  0.00    +0.047 A 
ATOM      7 BR   UNL     1       1.424  -3.707  -0.806  0.00  0.00    -0.048 Br
ATOM      8 BR   UNL     1       6.266  -1.341  -2.568  0.00  0.00    -0.050 Br
ENDROOT
BRANCH   1   9
ATOM      9  S   UNL     1      -0.129  -1.157  -1.987  0.00  0.00    +0.063 S 
ATOM     10  O   UNL     1      -0.554  -2.497  -1.777  0.00  0.00    -0.153 OA
ATOM     11  O   UNL     1      -0.613  -0.363  -3.061  0.00  0.00    -0.153 OA
BRANCH   9  13
ATOM     12  C   UNL     1      -0.651   1.124  -0.632  0.00  0.00    +0.131 C 
ATOM     13  N   UNL     1      -0.470  -0.329  -0.594  0.00  0.00    -0.179 NA
BRANCH  13  14
ATOM     14  C   UNL     1      -0.591  -1.049   0.676  0.00  0.00    +0.124 C 
BRANCH  14  15
ATOM     15  C   UNL     1      -2.063  -1.373   0.940  0.00  0.00    +0.135 C 
BRANCH  15  16
ATOM     16  C   UNL     1      -2.185  -2.096   2.216  0.00  0.00    +0.064 C 
ATOM     17  N   UNL     1      -2.279  -2.655   3.201  0.00  0.00    -0.197 NA
ENDBRANCH  15  16
ENDBRANCH  14  15
ENDBRANCH  13  14
ENDBRANCH   9  13
ENDBRANCH   1   9
BRANCH   2  18
ATOM     18  N   UNL     1       1.582   0.935  -3.261  0.00  0.00    -0.356 N 
ATOM     19  H   UNL     1       0.680   1.106  -2.949  0.00  0.00    +0.142 HD
ATOM     20  H   UNL     1       1.988   1.522  -3.917  0.00  0.00    +0.142 HD
ENDBRANCH   2  18
TORSDOF 6
