REMARK  Name = ZINC35319165
REMARK  9 active torsions:
REMARK  status: ('A' for Active; 'I' for Inactive)
REMARK    1  A    between atoms: C_1  and  C_2
REMARK    2  A    between atoms: C_2  and  C_3
REMARK    3  A    between atoms: C_2  and  C_4
REMARK    4  A    between atoms: C_8  and  C_31
REMARK    5  A    between atoms: C_9  and  N_10
REMARK    6  A    between atoms: C_17  and  C_19
REMARK    7  A    between atoms: C_21  and  C_24
REMARK    8  A    between atoms: C_31  and  C_32
REMARK    9  A    between atoms: C_31  and  C_33
REMARK                            x       y       z     vdW  Elec       q    Type
REMARK                         _______ _______ _______ _____ _____    ______ ____
ROOT
ATOM      1  N   UNL     1       2.499  -0.174   0.353  0.00  0.00    -0.269 N 
ATOM      2  C   UNL     1       3.274  -1.079   0.983  0.00  0.00    +0.307 C 
ATOM      3  O   UNL     1       3.504  -2.152   0.460  0.00  0.00    -0.252 OA
ATOM      4  N   UNL     1       3.793  -0.795   2.194  0.00  0.00    -0.274 N 
ATOM      5  C   UNL     1       3.591   0.459   2.943  0.00  0.00    +0.110 C 
ATOM      6  C   UNL     1       3.824   0.076   4.426  0.00  0.00    +0.021 C 
ATOM      7  C   UNL     1       4.981  -0.950   4.305  0.00  0.00    +0.034 C 
ATOM      8  C   UNL     1       4.651  -1.685   2.989  0.00  0.00    +0.166 C 
ATOM      9  H   UNL     1       2.378   0.710   0.734  0.00  0.00    +0.156 HD
ENDROOT
BRANCH   1  15
ATOM     10  C   UNL     1       0.481  -0.489  -0.937  0.00  0.00    -0.023 A 
ATOM     11  C   UNL     1      -0.139  -0.816  -2.127  0.00  0.00    +0.006 A 
ATOM     12  C   UNL     1       0.619  -1.169  -3.229  0.00  0.00    +0.001 A 
ATOM     13  C   UNL     1       1.999  -1.197  -3.143  0.00  0.00    +0.006 A 
ATOM     14  C   UNL     1       2.625  -0.872  -1.956  0.00  0.00    -0.023 A 
ATOM     15  C   UNL     1       1.867  -0.510  -0.850  0.00  0.00    +0.042 A 
BRANCH  10  17
ATOM     16  C   UNL     1      -1.187   1.129  -0.072  0.00  0.00    +0.012 C 
ATOM     17  C   UNL     1      -0.345  -0.104   0.263  0.00  0.00    +0.015 C 
ATOM     18  C   UNL     1      -1.268  -1.265   0.640  0.00  0.00    +0.012 C 
ENDBRANCH  10  17
BRANCH  14  19
ATOM     19  C   UNL     1       4.128  -0.903  -1.863  0.00  0.00    +0.015 C 
ATOM     20  C   UNL     1       4.682  -1.895  -2.888  0.00  0.00    +0.012 C 
ATOM     21  C   UNL     1       4.687   0.492  -2.149  0.00  0.00    +0.012 C 
ENDBRANCH  14  19
ENDBRANCH   1  15
BRANCH   8  22
ATOM     22  C   UNL     1       5.923  -1.978   2.236  0.00  0.00    +0.248 A 
ATOM     23  N   UNL     1       6.489  -3.146   2.122  0.00  0.00    -0.190 NA
ATOM     24  C   UNL     1       7.608  -3.046   1.383  0.00  0.00    +0.202 A 
ATOM     25  N   UNL     1       7.759  -1.796   1.020  0.00  0.00    -0.056 NA
ATOM     26  O   UNL     1       6.660  -1.083   1.566  0.00  0.00    -0.336 OA
BRANCH  24  27
ATOM     27  C   UNL     1       8.520  -4.164   1.036  0.00  0.00    +0.023 A 
ATOM     28  C   UNL     1       8.243  -5.455   1.482  0.00  0.00    +0.013 A 
ATOM     29  C   UNL     1       9.094  -6.492   1.157  0.00  0.00    +0.016 A 
ATOM     30  C   UNL     1      10.221  -6.251   0.391  0.00  0.00    +0.018 A 
ATOM     31  C   UNL     1      10.501  -4.970  -0.054  0.00  0.00    +0.016 A 
ATOM     32  C   UNL     1       9.652  -3.928   0.260  0.00  0.00    +0.013 A 
ATOM     33 BR   UNL     1      11.383  -7.676  -0.050  0.00  0.00    -0.050 Br
ENDBRANCH  24  27
ENDBRANCH   8  22
TORSDOF 5
