REMARK  Name = ZINC58541975
REMARK  11 active torsions:
REMARK  status: ('A' for Active; 'I' for Inactive)
REMARK    1  A    between atoms: C_1  and  C_2
REMARK    2  A    between atoms: C_2  and  C_3
REMARK    3  A    between atoms: C_3  and  C_5
REMARK    4  A    between atoms: C_3  and  C_6
REMARK    5  A    between atoms: C_9  and  C_12
REMARK    6  A    between atoms: C_12  and  C_14
REMARK    7  A    between atoms: C_12  and  N_17
REMARK    8  A    between atoms: C_14  and  C_15
REMARK    9  A    between atoms: C_14  and  C_16
REMARK   10  A    between atoms: N_23  and  C_26
REMARK   11  A    between atoms: C_26  and  C_27
REMARK                            x       y       z     vdW  Elec       q    Type
REMARK                         _______ _______ _______ _____ _____    ______ ____
ROOT
ATOM      1  N   UNL     1       2.347  -6.618   0.093  0.00  0.00    -0.292 N 
ATOM      2  C   UNL     1       2.363  -7.816  -0.524  0.00  0.00    +0.303 C 
ATOM      3  O   UNL     1       1.500  -8.637  -0.279  0.00  0.00    -0.253 OA
ATOM      4  N   UNL     1       3.334  -8.104  -1.413  0.00  0.00    -0.283 N 
ATOM      5  C   UNL     1       4.450  -7.173  -1.639  0.00  0.00    +0.124 C 
ATOM      6  C   UNL     1       4.578  -6.922  -3.145  0.00  0.00    +0.104 C 
ATOM      7  N   UNL     1       4.691  -8.209  -3.844  0.00  0.00    -0.292 NA
ATOM      8  C   UNL     1       3.479  -9.020  -3.667  0.00  0.00    +0.104 C 
ATOM      9  C   UNL     1       3.310  -9.360  -2.177  0.00  0.00    +0.124 C 
ATOM     10  H   UNL     1       3.070  -5.987  -0.053  0.00  0.00    +0.151 HD
ENDROOT
BRANCH   1  11
ATOM     11  C   UNL     1       1.238  -6.267   0.985  0.00  0.00    +0.107 C 
BRANCH  11  15
ATOM     12  C   UNL     1       0.859  -2.017   1.184  0.00  0.00    -0.045 A 
ATOM     13  C   UNL     1      -0.272  -2.811   1.130  0.00  0.00    +0.004 A 
ATOM     14  C   UNL     1      -0.149  -4.186   1.066  0.00  0.00    +0.006 A 
ATOM     15  C   UNL     1       1.105  -4.768   1.054  0.00  0.00    -0.027 A 
ATOM     16  C   UNL     1       2.235  -3.975   1.107  0.00  0.00    +0.006 A 
ATOM     17  C   UNL     1       2.112  -2.599   1.167  0.00  0.00    +0.004 A 
BRANCH  12  18
ATOM     18  C   UNL     1       0.725  -0.518   1.254  0.00  0.00    +0.016 C 
ATOM     19  C   UNL     1      -0.050  -0.134   2.517  0.00  0.00    +0.012 C 
BRANCH  18  21
ATOM     20  C   UNL     1      -0.056   1.515   0.029  0.00  0.00    +0.004 C 
ATOM     21  C   UNL     1      -0.028  -0.015   0.021  0.00  0.00    +0.004 C 
ENDBRANCH  18  21
ENDBRANCH  12  18
ENDBRANCH  11  15
BRANCH  11  22
ATOM     22  C   UNL     1       1.515  -6.820   2.384  0.00  0.00    +0.008 C 
ATOM     23  C   UNL     1       0.358  -6.454   3.315  0.00  0.00    +0.009 C 
ATOM     24  C   UNL     1       1.651  -8.342   2.313  0.00  0.00    +0.009 C 
ENDBRANCH  11  22
ENDBRANCH   1  11
BRANCH   7  25
ATOM     25  C   UNL     1       4.987  -8.009  -5.269  0.00  0.00    +0.158 C 
BRANCH  25  26
ATOM     26  C   UNL     1       5.337  -9.333  -5.900  0.00  0.00    +0.124 A 
ATOM     27  N   UNL     1       5.649  -9.354  -7.222  0.00  0.00    -0.309 N 
ATOM     28  H   UNL     1       5.642  -8.528  -7.731  0.00  0.00    +0.170 HD
ATOM     29  C   UNL     1       5.971 -10.517  -7.835  0.00  0.00    +0.259 A 
ATOM     30  O   UNL     1       6.254 -10.551  -9.018  0.00  0.00    -0.267 OA
ATOM     31  C   UNL     1       5.967 -11.738  -7.016  0.00  0.00    +0.065 A 
ATOM     32  C   UNL     1       6.283 -12.985  -7.550  0.00  0.00    +0.015 A 
ATOM     33  C   UNL     1       6.262 -14.097  -6.737  0.00  0.00    +0.001 A 
ATOM     34  C   UNL     1       5.930 -13.983  -5.393  0.00  0.00    +0.002 A 
ATOM     35  C   UNL     1       5.614 -12.760  -4.846  0.00  0.00    +0.028 A 
ATOM     36  C   UNL     1       5.628 -11.619  -5.649  0.00  0.00    +0.078 A 
ATOM     37  N   UNL     1       5.330 -10.393  -5.150  0.00  0.00    -0.232 NA
ENDBRANCH  25  26
ENDBRANCH   7  25
TORSDOF 7
