REMARK  Name = ZINC02271715
REMARK  12 active torsions:
REMARK  status: ('A' for Active; 'I' for Inactive)
REMARK    1  A    between atoms: C_1  and  C_2
REMARK    2  A    between atoms: C_3  and  C_19
REMARK    3  A    between atoms: C_4  and  C_12
REMARK    4  A    between atoms: C_6  and  C_10
REMARK    5  A    between atoms: C_7  and  N_9
REMARK    6  A    between atoms: C_19  and  O_21
REMARK    7  A    between atoms: O_21  and  C_22
REMARK    8  A    between atoms: C_22  and  C_23
REMARK    9  A    between atoms: C_23  and  O_24
REMARK   10  A    between atoms: O_24  and  C_25
REMARK   11  A    between atoms: C_25  and  C_27
REMARK   12  A    between atoms: C_27  and  C_29
REMARK                            x       y       z     vdW  Elec       q    Type
REMARK                         _______ _______ _______ _____ _____    ______ ____
ROOT
ATOM      1  C   UNL     1      -5.125   2.474  -2.396  0.00  0.00    +0.087 C 
ATOM      2  C   UNL     1      -4.364   2.154  -1.135  0.00  0.00    +0.115 C 
ATOM      3  C   UNL     1      -3.309   1.334  -1.208  0.00  0.00    +0.087 C 
ATOM      4  C   UNL     1      -2.514   0.979   0.019  0.00  0.00    +0.105 C 
ATOM      5  C   UNL     1      -3.301   1.325   1.254  0.00  0.00    +0.098 C 
ATOM      6  C   UNL     1      -4.370   2.155   1.183  0.00  0.00    +0.198 C 
ATOM      7  O   UNL     1      -4.767   2.702   0.021  0.00  0.00    -0.445 OA
ENDROOT
BRANCH   4   8
ATOM      8  C   UNL     1      -1.219   1.750   0.017  0.00  0.00    -0.034 A 
ATOM      9  C   UNL     1      -0.013   1.076   0.008  0.00  0.00    +0.006 A 
ATOM     10  C   UNL     1       1.175   1.783   0.000  0.00  0.00    +0.020 A 
ATOM     11  C   UNL     1       1.156   3.166   0.008  0.00  0.00    +0.041 A 
ATOM     12  C   UNL     1      -0.052   3.841   0.023  0.00  0.00    +0.020 A 
ATOM     13  C   UNL     1      -1.239   3.133   0.031  0.00  0.00    +0.006 A 
ATOM     14 CL   UNL     1       2.647   4.055  -0.002  0.00  0.00    -0.084 Cl
ENDBRANCH   4   8
BRANCH   6  15
ATOM     15  N   UNL     1      -5.066   2.446   2.330  0.00  0.00    -0.328 N 
ATOM     16  H   UNL     1      -4.790   2.059   3.176  0.00  0.00    +0.145 HD
ATOM     17  H   UNL     1      -5.832   3.039   2.295  0.00  0.00    +0.145 HD
ENDBRANCH   6  15
BRANCH   5  18
ATOM     18  C   UNL     1      -2.917   0.771   2.517  0.00  0.00    +0.101 C 
ATOM     19  N   UNL     1      -2.613   0.331   3.519  0.00  0.00    -0.191 NA
ENDBRANCH   5  18
BRANCH   3  20
ATOM     20  C   UNL     1      -2.935   0.790  -2.462  0.00  0.00    +0.339 C 
ATOM     21  O   UNL     1      -3.571   1.070  -3.460  0.00  0.00    -0.245 OA
BRANCH  20  22
ATOM     22  O   UNL     1      -1.874  -0.039  -2.548  0.00  0.00    -0.458 OA
BRANCH  22  23
ATOM     23  C   UNL     1      -1.554  -0.550  -3.843  0.00  0.00    +0.273 C 
BRANCH  23  24
ATOM     24  C   UNL     1      -0.331  -1.464  -3.743  0.00  0.00    +0.273 C 
BRANCH  24  25
ATOM     25  O   UNL     1      -0.661  -2.629  -2.941  0.00  0.00    -0.458 OA
BRANCH  25  26
ATOM     26  C   UNL     1       0.314  -3.540  -2.754  0.00  0.00    +0.334 C 
ATOM     27  O   UNL     1       1.411  -3.366  -3.248  0.00  0.00    -0.245 OA
BRANCH  26  28
ATOM     28  C   UNL     1       0.052  -4.744  -1.954  0.00  0.00    +0.026 C 
ATOM     29  C   UNL     1       1.015  -5.643  -1.769  0.00  0.00    +0.019 C 
ATOM     30  C   UNL     1      -1.308  -4.960  -1.341  0.00  0.00    +0.050 C 
ENDBRANCH  26  28
ENDBRANCH  25  26
ENDBRANCH  24  25
ENDBRANCH  23  24
ENDBRANCH  22  23
ENDBRANCH  20  22
ENDBRANCH   3  20
TORSDOF 10
