REMARK  Name = ZINC60110229
REMARK  12 active torsions:
REMARK  status: ('A' for Active; 'I' for Inactive)
REMARK    1  A    between atoms: C_1  and  C_2
REMARK    2  A    between atoms: C_2  and  C_3
REMARK    3  A    between atoms: C_3  and  C_5
REMARK    4  A    between atoms: C_3  and  N_6
REMARK    5  A    between atoms: N_6  and  S_7
REMARK    6  A    between atoms: S_7  and  C_10
REMARK    7  A    between atoms: C_13  and  C_16
REMARK    8  A    between atoms: C_16  and  N_18
REMARK    9  A    between atoms: N_27  and  C_28
REMARK   10  A    between atoms: C_28  and  C_29
REMARK   11  A    between atoms: C_28  and  C_30
REMARK   12  A    between atoms: C_28  and  C_31
REMARK                            x       y       z     vdW  Elec       q    Type
REMARK                         _______ _______ _______ _____ _____    ______ ____
ROOT
ATOM      1  C   UNL     1      -4.375   5.197   2.097  0.00  0.00    +0.270 C 
ATOM      2  O   UNL     1      -4.576   5.107   3.296  0.00  0.00    -0.268 OA
ENDROOT
BRANCH   1   3
ATOM      3  N   UNL     1      -4.294   6.402   1.522  0.00  0.00    -0.142 NA
ATOM      4  C   UNL     1      -4.535   7.496   2.235  0.00  0.00    +0.202 A 
ATOM      5  N   UNL     1      -4.758   7.529   3.576  0.00  0.00    -0.326 N 
ATOM      6  C   UNL     1      -4.969   8.853   3.950  0.00  0.00    +0.066 A 
ATOM      7  C   UNL     1      -5.237   9.461   5.168  0.00  0.00    +0.028 A 
ATOM      8  C   UNL     1      -5.402  10.830   5.232  0.00  0.00    +0.002 A 
ATOM      9  C   UNL     1      -5.302  11.600   4.085  0.00  0.00    +0.002 A 
ATOM     10  C   UNL     1      -5.036  11.004   2.868  0.00  0.00    +0.028 A 
ATOM     11  C   UNL     1      -4.868   9.629   2.794  0.00  0.00    +0.068 A 
ATOM     12  N   UNL     1      -4.592   8.762   1.741  0.00  0.00    -0.306 N 
ATOM     13  H   UNL     1      -4.768   6.763   4.170  0.00  0.00    +0.169 HD
BRANCH  12  14
ATOM     14  C   UNL     1      -4.399   9.147   0.341  0.00  0.00    +0.040 C 
ATOM     15  C   UNL     1      -4.120   7.898  -0.498  0.00  0.00    +0.034 C 
ATOM     16  C   UNL     1      -5.662   9.837  -0.177  0.00  0.00    +0.034 C 
ATOM     17  C   UNL     1      -3.212  10.107   0.234  0.00  0.00    +0.034 C 
ENDBRANCH  12  14
ENDBRANCH   1   3
BRANCH   1  21
ATOM     18  C   UNL     1      -3.936   1.685  -0.255  0.00  0.00    +0.105 A 
ATOM     19  C   UNL     1      -4.162   1.579   1.106  0.00  0.00    +0.029 A 
ATOM     20  C   UNL     1      -4.306   2.716   1.875  0.00  0.00    +0.015 A 
ATOM     21  C   UNL     1      -4.222   3.973   1.278  0.00  0.00    +0.039 A 
ATOM     22  C   UNL     1      -3.993   4.074  -0.095  0.00  0.00    +0.015 A 
ATOM     23  C   UNL     1      -3.846   2.929  -0.852  0.00  0.00    +0.029 A 
BRANCH  18  24
ATOM     24  S   UNL     1      -3.753   0.229  -1.230  0.00  0.00    +0.059 S 
ATOM     25  O   UNL     1      -4.086   0.588  -2.563  0.00  0.00    -0.153 OA
ATOM     26  O   UNL     1      -4.421  -0.814  -0.532  0.00  0.00    -0.153 OA
BRANCH  24  27
ATOM     27  N   UNL     1      -2.143  -0.160  -1.233  0.00  0.00    -0.187 NA
ATOM     28  H   UNL     1      -1.637  -0.126  -2.060  0.00  0.00    +0.148 HD
BRANCH  27  29
ATOM     29  C   UNL     1      -1.482  -0.554   0.014  0.00  0.00    +0.073 C 
ATOM     30  C   UNL     1      -1.476  -2.080   0.128  0.00  0.00    +0.025 C 
BRANCH  29  32
ATOM     31  C   UNL     1      -0.050   1.494   0.026  0.00  0.00    +0.005 C 
ATOM     32  C   UNL     1      -0.042  -0.036   0.014  0.00  0.00    +0.017 C 
ENDBRANCH  29  32
ENDBRANCH  27  29
ENDBRANCH  24  27
ENDBRANCH  18  24
ENDBRANCH   1  21
TORSDOF 7
