REMARK  Name = ZINC14752830
REMARK  7 active torsions:
REMARK  status: ('A' for Active; 'I' for Inactive)
REMARK    1  A    between atoms: C_4  and  C_7
REMARK    2  A    between atoms: C_7  and  C_8
REMARK    3  A    between atoms: C_8  and  N_9
REMARK    4  A    between atoms: N_12  and  C_30
REMARK    5  A    between atoms: C_20  and  C_21
REMARK    6  A    between atoms: C_20  and  N_70
REMARK    7  A    between atoms: C_30  and  C_31
REMARK                            x       y       z     vdW  Elec       q    Type
REMARK                         _______ _______ _______ _____ _____    ______ ____
ROOT
ATOM      1  N   UNL     1      -3.146  -0.221   3.524  0.00  0.00    -0.271 N 
ATOM      2  C   UNL     1      -2.817  -0.307   2.220  0.00  0.00    +0.312 C 
ATOM      3  O   UNL     1      -2.282  -1.277   1.720  0.00  0.00    -0.252 OA
ATOM      4  N   UNL     1      -3.141   0.799   1.539  0.00  0.00    -0.220 N 
ATOM      5  C   UNL     1      -3.728   1.718   2.333  0.00  0.00    +0.247 C 
ATOM      6  O   UNL     1      -4.136   2.813   2.011  0.00  0.00    -0.273 OA
ATOM      7  C   UNL     1      -3.768   1.095   3.709  0.00  0.00    +0.112 C 
ATOM      8  C   UNL     1      -5.210   0.944   4.185  0.00  0.00    +0.017 C 
ATOM      9  C   UNL     1      -5.218   0.336   5.590  0.00  0.00    -0.076 C 
ATOM     10  C   UNL     1      -3.046   1.293   6.087  0.00  0.00    -0.076 C 
ATOM     11  C   UNL     1      -2.964   1.933   4.698  0.00  0.00    +0.017 C 
ATOM     12  N   UNL     1      -4.464   1.226   6.500  0.00  0.00    +0.382 N 
ATOM     13  H   UNL     1      -4.869   2.168   6.455  0.00  0.00    -0.081 HD
ENDROOT
BRANCH   1  14
ATOM     14  C   UNL     1      -2.931  -1.243   4.552  0.00  0.00    +0.115 C 
BRANCH  14  15
ATOM     15  C   UNL     1      -1.430  -1.420   4.789  0.00  0.00    +0.054 C 
BRANCH  15  19
ATOM     16  C   UNL     1      -0.792  -4.629   7.535  0.00  0.00    +0.000 A 
ATOM     17  C   UNL     1      -0.740  -4.864   6.174  0.00  0.00    +0.000 A 
ATOM     18  C   UNL     1      -0.947  -3.825   5.285  0.00  0.00    +0.004 A 
ATOM     19  C   UNL     1      -1.205  -2.552   5.758  0.00  0.00    -0.046 A 
ATOM     20  C   UNL     1      -1.251  -2.317   7.119  0.00  0.00    +0.004 A 
ATOM     21  C   UNL     1      -1.050  -3.356   8.008  0.00  0.00    +0.000 A 
ENDBRANCH  15  19
ENDBRANCH  14  15
ENDBRANCH   1  14
BRANCH  12  22
ATOM     22  C   UNL     1      -4.562   0.728   7.888  0.00  0.00    -0.043 C 
BRANCH  22  23
ATOM     23  C   UNL     1      -6.016   0.551   8.244  0.00  0.00    -0.063 A 
ATOM     24  C   UNL     1      -6.760   1.632   8.680  0.00  0.00    +0.005 A 
ATOM     25  C   UNL     1      -8.091   1.475   9.006  0.00  0.00    +0.046 A 
ATOM     26  C   UNL     1      -8.694   0.224   8.910  0.00  0.00    +0.124 A 
ATOM     27  C   UNL     1      -7.937  -0.854   8.470  0.00  0.00    -0.002 A 
ATOM     28  C   UNL     1      -6.609  -0.695   8.141  0.00  0.00    +0.009 A 
ATOM     29  C   UNL     1      -8.852  -2.063   8.452  0.00  0.00    +0.080 C 
ATOM     30  C   UNL     1     -10.250  -1.407   8.544  0.00  0.00    +0.234 C 
ATOM     31  O   UNL     1      -9.971  -0.154   9.193  0.00  0.00    -0.491 OA
ENDBRANCH  22  23
ENDBRANCH  12  22
BRANCH   4  32
ATOM     32  C   UNL     1      -2.895   0.985   0.106  0.00  0.00    +0.153 C 
BRANCH  32  33
ATOM     33  C   UNL     1      -1.539   1.609  -0.094  0.00  0.00    -0.030 A 
ATOM     34  C   UNL     1      -0.423   0.806  -0.242  0.00  0.00    +0.005 A 
ATOM     35  C   UNL     1       0.821   1.379  -0.431  0.00  0.00    +0.000 A 
ATOM     36  C   UNL     1       0.950   2.755  -0.467  0.00  0.00    +0.000 A 
ATOM     37  C   UNL     1      -0.165   3.558  -0.313  0.00  0.00    +0.000 A 
ATOM     38  C   UNL     1      -1.409   2.985  -0.124  0.00  0.00    +0.005 A 
ENDBRANCH  32  33
ENDBRANCH   4  32
TORSDOF 7
