REMARK  Name = ZINC15015983
REMARK  10 active torsions:
REMARK  status: ('A' for Active; 'I' for Inactive)
REMARK    1  A    between atoms: C_1  and  C_2
REMARK    2  A    between atoms: C_2  and  O_3
REMARK    3  A    between atoms: O_3  and  C_4
REMARK    4  A    between atoms: C_8  and  C_12
REMARK    5  A    between atoms: C_9  and  O_10
REMARK    6  A    between atoms: O_10  and  C_11
REMARK    7  A    between atoms: C_24  and  S_27
REMARK    8  A    between atoms: S_27  and  C_28
REMARK    9  A    between atoms: C_28  and  C_29
REMARK   10  A    between atoms: C_32  and  C_35
REMARK                            x       y       z     vdW  Elec       q    Type
REMARK                         _______ _______ _______ _____ _____    ______ ____
ROOT
ATOM      1  C   UNL     1      -1.517  -1.502  -1.225  0.00  0.00    +0.297 C 
ATOM      2  N   UNL     1      -1.282  -0.767   0.015  0.00  0.00    -0.305 N 
ATOM      3  C   UNL     1      -0.144   0.040   0.115  0.00  0.00    +0.039 A 
ATOM      4  C   UNL     1      -0.239   1.419   0.156  0.00  0.00    +0.024 A 
ATOM      5  C   UNL     1       0.909   2.186   0.226  0.00  0.00    +0.002 A 
ATOM      6  C   UNL     1       2.155   1.582   0.255  0.00  0.00    +0.001 A 
ATOM      7  C   UNL     1       2.266   0.206   0.220  0.00  0.00    +0.012 A 
ATOM      8  C   UNL     1       1.120  -0.578   0.155  0.00  0.00    +0.028 A 
ATOM      9  C   UNL     1       1.193  -2.053   0.140  0.00  0.00    +0.156 A 
ATOM     10  C   UNL     1       0.439  -2.780  -0.809  0.00  0.00    +0.248 A 
ATOM     11  N   UNL     1       0.508  -4.100  -0.800  0.00  0.00    -0.184 NA
ATOM     12  C   UNL     1       1.286  -4.704   0.093  0.00  0.00    +0.213 A 
ATOM     13  N   UNL     1       1.991  -4.003   0.973  0.00  0.00    -0.122 NA
ATOM     14  N   UNL     1       1.950  -2.716   1.001  0.00  0.00    -0.141 NA
ATOM     15  O   UNL     1      -0.329  -2.118  -1.707  0.00  0.00    -0.449 OA
ATOM     16  H   UNL     1      -1.904  -0.836   0.756  0.00  0.00    +0.150 HD
ENDROOT
BRANCH   1  21
ATOM     17  C   UNL     1      -3.854   0.659  -3.274  0.00  0.00    +0.162 A 
ATOM     18  C   UNL     1      -2.977   1.211  -4.194  0.00  0.00    +0.049 A 
ATOM     19  C   UNL     1      -1.634   0.884  -4.151  0.00  0.00    +0.004 A 
ATOM     20  C   UNL     1      -1.163   0.011  -3.188  0.00  0.00    +0.013 A 
ATOM     21  C   UNL     1      -2.034  -0.546  -2.270  0.00  0.00    +0.056 A 
ATOM     22  C   UNL     1      -3.380  -0.223  -2.308  0.00  0.00    +0.170 A 
BRANCH  22  23
ATOM     23  O   UNL     1      -4.237  -0.767  -1.403  0.00  0.00    -0.491 OA
ATOM     24  C   UNL     1      -4.434  -0.050  -0.183  0.00  0.00    +0.277 C 
ENDBRANCH  22  23
BRANCH  17  25
ATOM     25  O   UNL     1      -5.175   0.980  -3.316  0.00  0.00    -0.489 OA
BRANCH  25  27
ATOM     26  C   UNL     1      -7.097   2.130  -4.223  0.00  0.00    +0.048 C 
ATOM     27  C   UNL     1      -5.590   1.892  -4.334  0.00  0.00    +0.226 C 
ENDBRANCH  25  27
ENDBRANCH  17  25
ENDBRANCH   1  21
BRANCH  12  28
ATOM     28  S   UNL     1       1.383  -6.463   0.110  0.00  0.00    -0.080 S 
BRANCH  28  29
ATOM     29  C   UNL     1       2.542  -6.702   1.479  0.00  0.00    +0.112 C 
BRANCH  29  30
ATOM     30  C   UNL     1       2.783  -8.175   1.683  0.00  0.00    -0.037 A 
ATOM     31  C   UNL     1       1.980  -8.893   2.550  0.00  0.00    +0.005 A 
ATOM     32  C   UNL     1       2.198 -10.246   2.734  0.00  0.00    +0.003 A 
ATOM     33  C   UNL     1       3.224 -10.879   2.057  0.00  0.00    -0.050 A 
ATOM     34  C   UNL     1       4.030 -10.160   1.194  0.00  0.00    +0.003 A 
ATOM     35  C   UNL     1       3.809  -8.808   1.007  0.00  0.00    +0.005 A 
ATOM     36  C   UNL     1       3.464 -12.353   2.261  0.00  0.00    +0.044 C 
ENDBRANCH  29  30
ENDBRANCH  28  29
ENDBRANCH  12  28
TORSDOF 7
