REMARK  Name = ZINC23541202
REMARK  8 active torsions:
REMARK  status: ('A' for Active; 'I' for Inactive)
REMARK    1  A    between atoms: C_1  and  C_2
REMARK    2  A    between atoms: C_6  and  N_9
REMARK    3  A    between atoms: C_7  and  C_8
REMARK    4  A    between atoms: C_19  and  S_20
REMARK    5  A    between atoms: S_20  and  C_21
REMARK    6  A    between atoms: C_21  and  C_22
REMARK    7  A    between atoms: C_28  and  C_34
REMARK    8  A    between atoms: C_29  and  C_33
REMARK                            x       y       z     vdW  Elec       q    Type
REMARK                         _______ _______ _______ _____ _____    ______ ____
ROOT
ATOM      1  N   UNL     1       0.050  -2.798   2.394  0.00  0.00    -0.255 N 
ATOM      2  C   UNL     1      -1.118  -3.158   2.975  0.00  0.00    +0.267 A 
ATOM      3  O   UNL     1      -2.188  -2.877   2.468  0.00  0.00    -0.267 OA
ATOM      4  C   UNL     1      -1.047  -3.900   4.241  0.00  0.00    +0.065 A 
ATOM      5  C   UNL     1      -2.194  -4.315   4.917  0.00  0.00    +0.015 A 
ATOM      6  C   UNL     1      -2.071  -5.004   6.092  0.00  0.00    +0.001 A 
ATOM      7  C   UNL     1      -0.818  -5.293   6.618  0.00  0.00    +0.002 A 
ATOM      8  C   UNL     1       0.322  -4.897   5.977  0.00  0.00    +0.028 A 
ATOM      9  C   UNL     1       0.230  -4.192   4.773  0.00  0.00    +0.079 A 
ATOM     10  N   UNL     1       1.333  -3.782   4.105  0.00  0.00    -0.223 NA
ATOM     11  C   UNL     1       1.244  -3.126   2.974  0.00  0.00    +0.177 A 
ENDROOT
BRANCH   1  17
ATOM     12  C   UNL     1      -0.018   1.503   0.010  0.00  0.00    +0.044 C 
ATOM     13  C   UNL     1       0.002  -0.004   0.002  0.00  0.00    -0.046 A 
ATOM     14  C   UNL     1       0.006  -0.688  -1.200  0.00  0.00    +0.004 A 
ATOM     15  C   UNL     1       0.024  -2.071  -1.212  0.00  0.00    +0.002 A 
ATOM     16  C   UNL     1       0.039  -2.773  -0.022  0.00  0.00    +0.026 A 
ATOM     17  C   UNL     1       0.035  -2.089   1.186  0.00  0.00    +0.055 A 
ATOM     18  C   UNL     1       0.023  -0.700   1.194  0.00  0.00    -0.024 A 
ATOM     19  C   UNL     1       0.026   0.046   2.504  0.00  0.00    +0.046 C 
ENDBRANCH   1  17
BRANCH  11  20
ATOM     20  S   UNL     1       2.733  -2.637   2.167  0.00  0.00    -0.079 S 
BRANCH  20  21
ATOM     21  C   UNL     1       4.045  -3.261   3.253  0.00  0.00    +0.151 C 
BRANCH  21  22
ATOM     22  C   UNL     1       5.389  -2.905   2.671  0.00  0.00    +0.121 A 
ATOM     23  N   UNL     1       6.519  -3.283   3.323  0.00  0.00    -0.310 N 
ATOM     24  H   UNL     1       6.445  -3.776   4.155  0.00  0.00    +0.170 HD
ATOM     25  C   UNL     1       7.739  -2.986   2.838  0.00  0.00    +0.260 A 
ATOM     26  O   UNL     1       8.744  -3.333   3.436  0.00  0.00    -0.267 OA
ATOM     27  C   UNL     1       7.839  -2.257   1.609  0.00  0.00    +0.075 A 
ATOM     28  C   UNL     1       9.022  -1.822   0.890  0.00  0.00    -0.026 A 
ATOM     29  C   UNL     1       8.877  -1.143  -0.259  0.00  0.00    -0.008 A 
ATOM     30  S   UNL     1       7.108  -1.038  -0.457  0.00  0.00    -0.073 S 
ATOM     31  C   UNL     1       6.616  -1.909   1.008  0.00  0.00    +0.116 A 
ATOM     32  N   UNL     1       5.447  -2.244   1.546  0.00  0.00    -0.226 NA
ATOM     33  C   UNL     1       9.952  -0.598  -1.164  0.00  0.00    +0.052 C 
ATOM     34  C   UNL     1      10.396  -2.129   1.426  0.00  0.00    +0.045 C 
ENDBRANCH  21  22
ENDBRANCH  20  21
ENDBRANCH  11  20
TORSDOF 4
