REMARK  Name = ZINC21255460
REMARK  10 active torsions:
REMARK  status: ('A' for Active; 'I' for Inactive)
REMARK    1  A    between atoms: C_1  and  C_2
REMARK    2  A    between atoms: C_2  and  C_3
REMARK    3  A    between atoms: C_3  and  O_4
REMARK    4  A    between atoms: O_4  and  C_5
REMARK    5  A    between atoms: C_8  and  C_13
REMARK    6  A    between atoms: C_10  and  O_11
REMARK    7  A    between atoms: O_11  and  C_12
REMARK    8  A    between atoms: C_24  and  C_27
REMARK    9  A    between atoms: C_30  and  C_33
REMARK   10  A    between atoms: C_33  and  C_34
REMARK                            x       y       z     vdW  Elec       q    Type
REMARK                         _______ _______ _______ _____ _____    ______ ____
ROOT
ATOM      1  C   UNL     1      -1.174   3.232   0.833  0.00  0.00    +0.063 C 
ATOM      2  C   UNL     1      -1.330   1.942   0.019  0.00  0.00    +0.109 C 
ATOM      3  C   UNL     1      -0.014   1.208   0.009  0.00  0.00    +0.218 C 
ATOM      4  O   UNL     1       0.002  -0.004   0.002  0.00  0.00    -0.275 OA
ATOM      5  N   UNL     1       1.141   1.895   0.001  0.00  0.00    -0.289 N 
ATOM      6  C   UNL     1       1.152   3.266  -0.018  0.00  0.00    +0.018 C 
ATOM      7  C   UNL     1       0.065   3.964   0.374  0.00  0.00    +0.020 C 
ATOM      8  C   UNL     1       0.056   5.369   0.368  0.00  0.00    +0.162 C 
ATOM      9  O   UNL     1      -0.946   5.962   0.716  0.00  0.00    -0.292 OA
ATOM     10  C   UNL     1       1.268   6.150  -0.064  0.00  0.00    +0.088 C 
ATOM     11  C   UNL     1       2.523   5.322   0.227  0.00  0.00    +0.032 C 
ATOM     12  C   UNL     1       2.397   3.976  -0.489  0.00  0.00    +0.059 C 
ATOM     13  H   UNL     1       2.101   1.357   0.011  0.00  0.00    +0.155 HD
ENDROOT
BRANCH   1  17
ATOM     14  C   UNL     1      -0.809   2.277   4.985  0.00  0.00    +0.162 A 
ATOM     15  C   UNL     1       0.114   1.788   4.075  0.00  0.00    +0.050 A 
ATOM     16  C   UNL     1      -0.006   2.098   2.733  0.00  0.00    +0.008 A 
ATOM     17  C   UNL     1      -1.047   2.896   2.296  0.00  0.00    -0.036 A 
ATOM     18  C   UNL     1      -1.969   3.392   3.200  0.00  0.00    +0.053 A 
ATOM     19  C   UNL     1      -1.856   3.081   4.545  0.00  0.00    +0.162 A 
BRANCH  19  20
ATOM     20  O   UNL     1      -2.765   3.563   5.435  0.00  0.00    -0.491 OA
ATOM     21  C   UNL     1      -3.813   4.381   4.912  0.00  0.00    +0.277 C 
ENDBRANCH  19  20
BRANCH  14  22
ATOM     22  O   UNL     1      -0.691   1.973   6.305  0.00  0.00    -0.488 OA
BRANCH  22  23
ATOM     23  C   UNL     1       0.409   1.143   6.684  0.00  0.00    +0.229 C 
BRANCH  23  25
ATOM     24  C   UNL     1       1.554   0.023   8.602  0.00  0.00    +0.007 C 
ATOM     25  C   UNL     1       0.376   0.911   8.197  0.00  0.00    +0.038 C 
ENDBRANCH  23  25
ENDBRANCH  22  23
ENDBRANCH  14  22
ENDBRANCH   1  17
BRANCH  11  26
ATOM     26  C   UNL     1       3.740   6.053  -0.280  0.00  0.00    -0.043 A 
ATOM     27  C   UNL     1       3.845   6.373  -1.621  0.00  0.00    +0.004 A 
ATOM     28  C   UNL     1       4.958   7.048  -2.085  0.00  0.00    +0.004 A 
ATOM     29  C   UNL     1       5.972   7.393  -1.211  0.00  0.00    -0.048 A 
ATOM     30  C   UNL     1       5.870   7.067   0.129  0.00  0.00    +0.004 A 
ATOM     31  C   UNL     1       4.754   6.397   0.594  0.00  0.00    +0.004 A 
BRANCH  29  32
ATOM     32  C   UNL     1       7.188   8.123  -1.718  0.00  0.00    +0.032 C 
ATOM     33  C   UNL     1       8.251   7.109  -2.147  0.00  0.00    +0.009 C 
ENDBRANCH  29  32
ENDBRANCH  11  26
TORSDOF 7
