REMARK  Name = ZINC15676533
REMARK  7 active torsions:
REMARK  status: ('A' for Active; 'I' for Inactive)
REMARK    1  A    between atoms: C_1  and  C_2
REMARK    2  A    between atoms: C_2  and  C_3
REMARK    3  A    between atoms: C_2  and  C_4
REMARK    4  A    between atoms: C_10  and  C_21
REMARK    5  A    between atoms: C_10  and  C_22
REMARK    6  A    between atoms: N_11  and  C_14
REMARK    7  A    between atoms: N_24  and  C_25
REMARK                            x       y       z     vdW  Elec       q    Type
REMARK                         _______ _______ _______ _____ _____    ______ ____
ROOT
ATOM      1  C   UNL     1      -0.621   1.690  -1.592  0.00  0.00    +0.066 A 
ATOM      2  C   UNL     1      -0.080   2.158  -2.797  0.00  0.00    +0.058 A 
ATOM      3  C   UNL     1      -1.135   2.704  -3.472  0.00  0.00    +0.124 A 
ATOM      4  N   UNL     1      -2.249   2.539  -2.678  0.00  0.00    -0.256 N 
ATOM      5  N   UNL     1      -1.907   1.953  -1.598  0.00  0.00    -0.175 NA
ATOM      6  C   UNL     1      -3.572   2.990  -3.124  0.00  0.00    +0.179 C 
ATOM      7  C   UNL     1      -3.409   4.195  -4.050  0.00  0.00    +0.135 C 
ATOM      8  N   UNL     1      -2.390   3.980  -5.072  0.00  0.00    -0.250 N 
ATOM      9  C   UNL     1      -1.224   3.352  -4.789  0.00  0.00    +0.270 C 
ATOM     10  O   UNL     1      -0.300   3.327  -5.580  0.00  0.00    -0.268 OA
ATOM     11  C   UNL     1      -3.018   5.414  -3.211  0.00  0.00    +0.044 C 
ENDROOT
BRANCH   8  12
ATOM     12  C   UNL     1      -2.624   4.433  -6.375  0.00  0.00    +0.038 A 
ATOM     13  C   UNL     1      -2.655   3.530  -7.430  0.00  0.00    +0.025 A 
ATOM     14  C   UNL     1      -2.891   3.979  -8.715  0.00  0.00    +0.022 A 
ATOM     15  C   UNL     1      -3.086   5.328  -8.953  0.00  0.00    +0.041 A 
ATOM     16  C   UNL     1      -3.050   6.230  -7.904  0.00  0.00    +0.022 A 
ATOM     17  C   UNL     1      -2.820   5.786  -6.617  0.00  0.00    +0.025 A 
ATOM     18 CL   UNL     1      -3.374   5.889 -10.570  0.00  0.00    -0.084 Cl
ENDBRANCH   8  12
BRANCH   7  19
ATOM     19  C   UNL     1      -4.727   4.473  -4.725  0.00  0.00    +0.239 C 
ATOM     20  O   UNL     1      -5.432   5.377  -4.329  0.00  0.00    -0.273 OA
ATOM     21  N   UNL     1      -5.121   3.718  -5.769  0.00  0.00    -0.311 N 
ATOM     22  H   UNL     1      -4.593   2.952  -6.041  0.00  0.00    +0.149 HD
BRANCH  21  23
ATOM     23  C   UNL     1      -6.349   4.055  -6.494  0.00  0.00    +0.073 C 
ATOM     24  C   UNL     1      -7.541   3.363  -5.828  0.00  0.00    +0.022 C 
ATOM     25  C   UNL     1      -8.841   4.008  -6.312  0.00  0.00    +0.002 C 
ATOM     26  C   UNL     1      -8.687   5.530  -6.312  0.00  0.00    +0.000 C 
ATOM     27  C   UNL     1      -8.719   6.046  -7.752  0.00  0.00    +0.000 C 
ATOM     28  C   UNL     1      -7.378   5.750  -8.428  0.00  0.00    +0.000 C 
ATOM     29  C   UNL     1      -7.307   4.266  -8.791  0.00  0.00    +0.002 C 
ATOM     30  C   UNL     1      -6.231   3.583  -7.944  0.00  0.00    +0.022 C 
ENDBRANCH  21  23
ENDBRANCH   7  19
BRANCH   1  32
ATOM     31  C   UNL     1       0.237  -0.495  -0.794  0.00  0.00    +0.014 C 
ATOM     32  C   UNL     1       0.138   1.000  -0.488  0.00  0.00    +0.033 C 
ATOM     33  C   UNL     1       1.544   1.595  -0.388  0.00  0.00    +0.014 C 
ENDBRANCH   1  32
TORSDOF 4
