REMARK  Name = ZINC09293619
REMARK  9 active torsions:
REMARK  status: ('A' for Active; 'I' for Inactive)
REMARK    1  A    between atoms: C_1  and  C_2
REMARK    2  A    between atoms: C_2  and  N_3
REMARK    3  A    between atoms: C_6  and  C_32
REMARK    4  A    between atoms: C_7  and  C_31
REMARK    5  A    between atoms: N_12  and  C_13
REMARK    6  A    between atoms: C_13  and  C_15
REMARK    7  A    between atoms: C_19  and  N_21
REMARK    8  A    between atoms: N_21  and  S_22
REMARK    9  A    between atoms: S_22  and  C_25
REMARK                            x       y       z     vdW  Elec       q    Type
REMARK                         _______ _______ _______ _____ _____    ______ ____
ROOT
ATOM      1  C   UNL     1       0.519  -1.417  -1.098  0.00  0.00    +0.041 A 
ATOM      2  C   UNL     1      -0.473  -1.859  -0.223  0.00  0.00    +0.013 A 
ATOM      3  C   UNL     1      -1.266  -0.944   0.441  0.00  0.00    +0.003 A 
ATOM      4  C   UNL     1      -1.076   0.411   0.245  0.00  0.00    +0.024 A 
ATOM      5  C   UNL     1      -0.094   0.861  -0.629  0.00  0.00    +0.049 A 
ATOM      6  C   UNL     1       0.707  -0.051  -1.300  0.00  0.00    +0.037 A 
ENDROOT
BRANCH   1   7
ATOM      7  C   UNL     1       1.371  -2.398  -1.811  0.00  0.00    +0.269 C 
ATOM      8  O   UNL     1       2.237  -2.010  -2.575  0.00  0.00    -0.268 OA
BRANCH   7  18
ATOM      9  N   UNL     1       1.920  -5.945  -2.181  0.00  0.00    -0.321 N 
ATOM     10  C   UNL     1       2.799  -6.701  -2.933  0.00  0.00    +0.058 A 
ATOM     11  C   UNL     1       2.913  -8.099  -2.993  0.00  0.00    +0.030 A 
ATOM     12  C   UNL     1       3.857  -8.693  -3.797  0.00  0.00    -0.046 A 
ATOM     13  C   UNL     1       4.721  -7.936  -4.570  0.00  0.00    -0.046 A 
ATOM     14  C   UNL     1       4.631  -6.556  -4.529  0.00  0.00    +0.020 A 
ATOM     15  C   UNL     1       3.688  -5.961  -3.726  0.00  0.00    +0.039 A 
ATOM     16  S   UNL     1       3.236  -4.279  -3.380  0.00  0.00    -0.052 S 
ATOM     17  C   UNL     1       1.953  -4.587  -2.256  0.00  0.00    +0.167 A 
ATOM     18  N   UNL     1       1.189  -3.707  -1.616  0.00  0.00    -0.152 NA
ATOM     19  C   UNL     1       5.748  -8.607  -5.445  0.00  0.00    +0.044 C 
ATOM     20  C   UNL     1       3.953 -10.197  -3.838  0.00  0.00    +0.044 C 
BRANCH   9  22
ATOM     21  C   UNL     1       0.770  -5.785  -0.028  0.00  0.00    +0.027 C 
ATOM     22  C   UNL     1       0.948  -6.606  -1.307  0.00  0.00    +0.121 C 
ENDBRANCH   9  22
ENDBRANCH   7  18
ENDBRANCH   1   7
BRANCH   5  23
ATOM     23  N   UNL     1       0.091   2.231  -0.827  0.00  0.00    -0.216 N 
ATOM     24  H   UNL     1       0.512   2.769  -0.139  0.00  0.00    +0.174 HD
BRANCH  23  25
ATOM     25  S   UNL     1      -0.404   2.937  -2.241  0.00  0.00    +0.072 S 
ATOM     26  O   UNL     1      -0.133   4.327  -2.118  0.00  0.00    -0.150 OA
ATOM     27  O   UNL     1       0.129   2.148  -3.297  0.00  0.00    -0.150 OA
BRANCH  25  28
ATOM     28  C   UNL     1      -2.156   2.770  -2.322  0.00  0.00    +0.108 A 
ATOM     29  C   UNL     1      -2.717   1.619  -2.842  0.00  0.00    +0.029 A 
ATOM     30  C   UNL     1      -4.092   1.486  -2.901  0.00  0.00    +0.002 A 
ATOM     31  C   UNL     1      -4.905   2.508  -2.450  0.00  0.00    +0.000 A 
ATOM     32  C   UNL     1      -4.344   3.662  -1.935  0.00  0.00    +0.002 A 
ATOM     33  C   UNL     1      -2.969   3.793  -1.871  0.00  0.00    +0.029 A 
ENDBRANCH  25  28
ENDBRANCH  23  25
ENDBRANCH   5  23
TORSDOF 6
