REMARK  Name = ZINC24779107
REMARK  8 active torsions:
REMARK  status: ('A' for Active; 'I' for Inactive)
REMARK    1  A    between atoms: C_1  and  C_2
REMARK    2  A    between atoms: C_5  and  O_8
REMARK    3  A    between atoms: O_8  and  C_9
REMARK    4  A    between atoms: C_14  and  N_15
REMARK    5  A    between atoms: C_16  and  C_18
REMARK    6  A    between atoms: C_18  and  N_19
REMARK    7  A    between atoms: C_22  and  C_26
REMARK    8  A    between atoms: C_22  and  C_27
REMARK                            x       y       z     vdW  Elec       q    Type
REMARK                         _______ _______ _______ _____ _____    ______ ____
ROOT
ATOM      1  C   UNL     1      -3.700   1.817   2.846  0.00  0.00    +0.214 C 
ENDROOT
BRANCH   1   2
ATOM      2  N   UNL     1      -2.723   2.168   1.813  0.00  0.00    -0.215 N 
ATOM      3  C   UNL     1      -2.376   1.359   0.793  0.00  0.00    +0.251 C 
ATOM      4  O   UNL     1      -2.797   0.245   0.565  0.00  0.00    -0.272 OA
ATOM      5  C   UNL     1      -1.349   2.131  -0.012  0.00  0.00    +0.135 C 
ATOM      6  N   UNL     1      -1.226   3.405   0.716  0.00  0.00    -0.281 N 
ATOM      7  C   UNL     1      -2.066   3.332   1.765  0.00  0.00    +0.310 C 
ATOM      8  O   UNL     1      -2.211   4.224   2.578  0.00  0.00    -0.252 OA
ATOM      9  C   UNL     1      -1.849   2.372  -1.438  0.00  0.00    +0.047 C 
ATOM     10  H   UNL     1      -0.535   4.181   0.354  0.00  0.00    +0.152 HD
BRANCH   5  11
ATOM     11  C   UNL     1      -0.031   1.401  -0.030  0.00  0.00    -0.012 A 
ATOM     12  C   UNL     1      -0.008   0.018  -0.041  0.00  0.00    +0.010 A 
ATOM     13  C   UNL     1       1.199  -0.655  -0.063  0.00  0.00    +0.050 A 
ATOM     14  C   UNL     1       2.390   0.055  -0.072  0.00  0.00    +0.162 A 
ATOM     15  C   UNL     1       2.367   1.445  -0.063  0.00  0.00    +0.162 A 
ATOM     16  C   UNL     1       1.153   2.114  -0.042  0.00  0.00    +0.055 A 
ATOM     17  O   UNL     1       3.524   2.161  -0.077  0.00  0.00    -0.485 OA
ATOM     18  C   UNL     1       4.720   1.459   0.282  0.00  0.00    +0.270 C 
ATOM     19  C   UNL     1       4.734   0.120  -0.468  0.00  0.00    +0.270 C 
ATOM     20  O   UNL     1       3.571  -0.622  -0.085  0.00  0.00    -0.485 OA
ENDBRANCH   5  11
ENDBRANCH   1   2
BRANCH   1  22
ATOM     21  N   UNL     1      -6.139   2.029   3.203  0.00  0.00    -0.281 N 
ATOM     22  C   UNL     1      -5.075   2.251   2.406  0.00  0.00    +0.235 C 
ATOM     23  O   UNL     1      -5.223   2.800   1.335  0.00  0.00    -0.274 OA
ATOM     24  H   UNL     1      -6.021   1.449   4.130  0.00  0.00    +0.155 HD
BRANCH  21  30
ATOM     25  C   UNL     1      -8.554   1.933   3.333  0.00  0.00    +0.150 A 
ATOM     26  C   UNL     1      -9.795   2.441   2.981  0.00  0.00    +0.048 A 
ATOM     27  C   UNL     1      -9.881   3.545   2.153  0.00  0.00    +0.004 A 
ATOM     28  C   UNL     1      -8.731   4.146   1.675  0.00  0.00    +0.002 A 
ATOM     29  C   UNL     1      -7.490   3.649   2.025  0.00  0.00    +0.027 A 
ATOM     30  C   UNL     1      -7.396   2.538   2.850  0.00  0.00    +0.076 A 
BRANCH  25  31
ATOM     31  O   UNL     1      -8.468   0.848   4.147  0.00  0.00    -0.454 OA
BRANCH  31  36
ATOM     32  C   UNL     1     -13.250  -1.733   5.630  0.00  0.00    +0.044 C 
ATOM     33  C   UNL     1     -11.971  -1.042   5.233  0.00  0.00    -0.050 A 
ATOM     34  C   UNL     1     -11.565  -1.047   3.911  0.00  0.00    +0.007 A 
ATOM     35  C   UNL     1     -10.392  -0.415   3.545  0.00  0.00    +0.046 A 
ATOM     36  C   UNL     1      -9.622   0.226   4.505  0.00  0.00    +0.129 A 
ATOM     37  C   UNL     1     -10.029   0.225   5.831  0.00  0.00    +0.046 A 
ATOM     38  C   UNL     1     -11.205  -0.404   6.191  0.00  0.00    +0.007 A 
ENDBRANCH  31  36
ENDBRANCH  25  31
ENDBRANCH  21  30
ENDBRANCH   1  22
TORSDOF 6
