REMARK  Name = ZINC54753419
REMARK  2 active torsions:
REMARK  status: ('A' for Active; 'I' for Inactive)
REMARK    1  A    between atoms: C_3  and  C_6
REMARK    2  A    between atoms: C_15  and  C_17
REMARK                            x       y       z     vdW  Elec       q    Type
REMARK                         _______ _______ _______ _____ _____    ______ ____
ROOT
ATOM      1  C   UNL     1       3.574   0.618  -0.029  0.00  0.00    +0.039 A 
ATOM      2  C   UNL     1       4.275   1.361  -0.924  0.00  0.00    +0.059 A 
ATOM      3  S   UNL     1       5.973   0.976  -0.540  0.00  0.00    -0.076 S 
ATOM      4  C   UNL     1       5.708  -0.160   0.798  0.00  0.00    +0.116 A 
ATOM      5  C   UNL     1       4.308  -0.211   0.920  0.00  0.00    +0.083 A 
ATOM      6  C   UNL     1       3.803  -1.067   1.949  0.00  0.00    +0.261 A 
ATOM      7  O   UNL     1       2.602  -1.178   2.126  0.00  0.00    -0.267 OA
ATOM      8  N   UNL     1       4.670  -1.749   2.720  0.00  0.00    -0.306 N 
ATOM      9  H   UNL     1       4.332  -2.330   3.418  0.00  0.00    +0.170 HD
ATOM     10  C   UNL     1       6.021  -1.636   2.534  0.00  0.00    +0.142 A 
ATOM     11  N   UNL     1       6.510  -0.862   1.587  0.00  0.00    -0.222 NA
ENDROOT
BRANCH  10  12
ATOM     12  C   UNL     1       6.941  -2.400   3.399  0.00  0.00    +0.018 A 
ATOM     13  C   UNL     1       6.436  -3.237   4.398  0.00  0.00    +0.013 A 
ATOM     14  C   UNL     1       7.295  -3.948   5.203  0.00  0.00    +0.024 A 
ATOM     15  C   UNL     1       8.676  -3.840   5.031  0.00  0.00    +0.037 A 
ATOM     16  C   UNL     1       9.172  -3.005   4.035  0.00  0.00    -0.017 A 
ATOM     17  C   UNL     1       8.324  -2.295   3.221  0.00  0.00    +0.017 A 
ATOM     18  C   UNL     1      10.679  -3.108   4.106  0.00  0.00    +0.133 C 
ATOM     19  C   UNL     1      10.927  -4.080   5.240  0.00  0.00    +0.222 C 
ATOM     20  O   UNL     1      12.007  -4.454   5.645  0.00  0.00    -0.275 OA
ATOM     21  N   UNL     1       9.725  -4.451   5.714  0.00  0.00    -0.285 N 
ATOM     22  H   UNL     1       9.602  -5.073   6.448  0.00  0.00    +0.155 HD
ENDBRANCH  10  12
BRANCH   1  25
ATOM     23  C   UNL     1      -0.016   1.343   0.009  0.00  0.00    +0.042 A 
ATOM     24  C   UNL     1       1.326   1.774  -0.001  0.00  0.00    +0.050 A 
ATOM     25  C   UNL     1       2.098   0.654  -0.015  0.00  0.00    +0.136 A 
ATOM     26  O   UNL     1       1.281  -0.417  -0.012  0.00  0.00    -0.463 OA
ATOM     27  C   UNL     1       0.002  -0.004   0.002  0.00  0.00    +0.196 A 
ENDBRANCH   1  25
TORSDOF 2
