REMARK  Name = ZINC45204274
REMARK  6 active torsions:
REMARK  status: ('A' for Active; 'I' for Inactive)
REMARK    1  A    between atoms: C_1  and  C_2
REMARK    2  A    between atoms: C_2  and  C_3
REMARK    3  A    between atoms: C_2  and  C_4
REMARK    4  A    between atoms: C_2  and  C_5
REMARK    5  A    between atoms: C_11  and  N_13
REMARK    6  A    between atoms: C_14  and  C_16
REMARK                            x       y       z     vdW  Elec       q    Type
REMARK                         _______ _______ _______ _____ _____    ______ ____
ROOT
ATOM      1  N   UNL     1       2.507  -1.427  -0.240  0.00  0.00    -0.308 N 
ATOM      2  C   UNL     1       3.742  -1.033   0.130  0.00  0.00    +0.244 C 
ATOM      3  O   UNL     1       4.329  -0.187  -0.516  0.00  0.00    -0.270 OA
ATOM      4  H   UNL     1       2.039  -2.103   0.275  0.00  0.00    +0.149 HD
ENDROOT
BRANCH   2   5
ATOM      5  C   UNL     1       4.381  -1.630   1.319  0.00  0.00    +0.039 A 
ATOM      6  C   UNL     1       3.710  -2.607   2.058  0.00  0.00    +0.017 A 
ATOM      7  C   UNL     1       4.306  -3.165   3.169  0.00  0.00    +0.048 A 
ATOM      8  C   UNL     1       5.574  -2.758   3.555  0.00  0.00    +0.142 A 
ATOM      9  C   UNL     1       6.251  -1.781   2.821  0.00  0.00    +0.076 A 
ATOM     10  C   UNL     1       5.662  -1.222   1.704  0.00  0.00    +0.040 A 
ATOM     11  N   UNL     1       7.532  -1.382   3.228  0.00  0.00    -0.280 N 
ATOM     12  C   UNL     1       8.208  -2.152   4.109  0.00  0.00    +0.255 C 
ATOM     13  O   UNL     1       9.305  -1.812   4.499  0.00  0.00    -0.272 OA
ATOM     14  C   UNL     1       7.594  -3.436   4.604  0.00  0.00    +0.325 C 
ATOM     15  O   UNL     1       6.171  -3.302   4.648  0.00  0.00    -0.481 OA
ATOM     16  H   UNL     1       7.927  -0.566   2.884  0.00  0.00    +0.155 HD
ENDBRANCH   2   5
BRANCH   1  22
ATOM     17  C   UNL     1       0.355  -0.812  -1.226  0.00  0.00    +0.015 C 
ATOM     18  C   UNL     1      -0.307  -0.194  -2.459  0.00  0.00    +0.006 C 
ATOM     19  C   UNL     1       0.036  -1.028  -3.695  0.00  0.00    +0.000 C 
ATOM     20  C   UNL     1       1.553  -1.051  -3.889  0.00  0.00    +0.002 C 
ATOM     21  C   UNL     1       2.216  -1.669  -2.657  0.00  0.00    +0.022 C 
ATOM     22  C   UNL     1       1.873  -0.835  -1.421  0.00  0.00    +0.077 C 
BRANCH  17  24
ATOM     23  C   UNL     1       0.664   1.401  -0.109  0.00  0.00    +0.011 C 
ATOM     24  C   UNL     1       0.012   0.022   0.010  0.00  0.00    -0.033 C 
ATOM     25  C   UNL     1       0.536  -0.683   1.262  0.00  0.00    +0.011 C 
ATOM     26  C   UNL     1      -1.506   0.182   0.112  0.00  0.00    +0.011 C 
ENDBRANCH  17  24
ENDBRANCH   1  22
TORSDOF 3
