REMARK  Name = ZINC38980585
REMARK  5 active torsions:
REMARK  status: ('A' for Active; 'I' for Inactive)
REMARK    1  A    between atoms: C_4  and  S_7
REMARK    2  A    between atoms: S_7  and  N_10
REMARK    3  A    between atoms: C_12  and  N_22
REMARK    4  A    between atoms: N_22  and  C_23
REMARK    5  A    between atoms: C_27  and  C_29
REMARK                            x       y       z     vdW  Elec       q    Type
REMARK                         _______ _______ _______ _____ _____    ______ ____
ROOT
ATOM      1  N   UNL     1       3.910  -1.234   1.571  0.00  0.00    -0.110 NA
ATOM      2  C   UNL     1       5.130  -1.648   1.753  0.00  0.00    +0.192 C 
ATOM      3  C   UNL     1       5.695  -1.778   3.149  0.00  0.00    +0.237 C 
ATOM      4  N   UNL     1       7.080  -2.253   3.288  0.00  0.00    -0.359 N 
ATOM      5  C   UNL     1       7.752  -2.538   2.207  0.00  0.00    +0.063 A 
ATOM      6  C   UNL     1       9.140  -3.016   2.292  0.00  0.00    +0.027 A 
ATOM      7  C   UNL     1       9.803  -3.300   1.149  0.00  0.00    +0.002 A 
ATOM      8  C   UNL     1       9.201  -3.151  -0.111  0.00  0.00    +0.002 A 
ATOM      9  C   UNL     1       7.931  -2.718  -0.268  0.00  0.00    +0.030 A 
ATOM     10  C   UNL     1       7.141  -2.389   0.863  0.00  0.00    +0.089 A 
ATOM     11  N   UNL     1       5.903  -1.972   0.705  0.00  0.00    -0.226 NA
ATOM     12  H   UNL     1       7.485  -2.352   4.164  0.00  0.00    +0.162 HD
ENDROOT
BRANCH   1  13
ATOM     13  S   UNL     1       3.301  -1.102   0.036  0.00  0.00    +0.100 S 
ATOM     14  O   UNL     1       3.223  -2.422  -0.484  0.00  0.00    -0.146 OA
ATOM     15  O   UNL     1       4.040  -0.072  -0.607  0.00  0.00    -0.146 OA
BRANCH  13  19
ATOM     16  C   UNL     1      -0.954   0.397   0.407  0.00  0.00    +0.000 A 
ATOM     17  C   UNL     1       0.089   1.297   0.292  0.00  0.00    +0.002 A 
ATOM     18  C   UNL     1       1.388   0.840   0.179  0.00  0.00    +0.029 A 
ATOM     19  C   UNL     1       1.645  -0.519   0.181  0.00  0.00    +0.113 A 
ATOM     20  C   UNL     1       0.603  -1.419   0.297  0.00  0.00    +0.029 A 
ATOM     21  C   UNL     1      -0.697  -0.962   0.408  0.00  0.00    +0.002 A 
ENDBRANCH  13  19
ENDBRANCH   1  13
BRANCH   3  22
ATOM     22  N   UNL     1       4.831  -2.696   3.897  0.00  0.00    -0.318 N 
ATOM     23  H   UNL     1       4.518  -3.515   3.482  0.00  0.00    +0.148 HD
BRANCH  22  24
ATOM     24  C   UNL     1       4.459  -2.392   5.209  0.00  0.00    +0.030 A 
ATOM     25  C   UNL     1       3.524  -3.180   5.868  0.00  0.00    +0.024 A 
ATOM     26  C   UNL     1       3.158  -2.878   7.165  0.00  0.00    +0.022 A 
ATOM     27  C   UNL     1       3.723  -1.790   7.808  0.00  0.00    +0.053 A 
ATOM     28  C   UNL     1       4.654  -1.003   7.155  0.00  0.00    +0.075 A 
ATOM     29  C   UNL     1       5.027  -1.304   5.859  0.00  0.00    +0.036 A 
ATOM     30 CL   UNL     1       3.260  -1.413   9.438  0.00  0.00    -0.083 Cl
BRANCH  28  31
ATOM     31  C   UNL     1       5.266   0.180   7.859  0.00  0.00    +0.419 C 
ATOM     32  F   UNL     1       6.172   0.815   7.002  0.00  0.00    -0.166 F 
ATOM     33  F   UNL     1       4.258   1.080   8.222  0.00  0.00    -0.166 F 
ATOM     34  F   UNL     1       5.937  -0.256   9.007  0.00  0.00    -0.166 F 
ENDBRANCH  28  31
ENDBRANCH  22  24
ENDBRANCH   3  22
TORSDOF 5
