REMARK  Name = ZINC16613140
REMARK  6 active torsions:
REMARK  status: ('A' for Active; 'I' for Inactive)
REMARK    1  A    between atoms: C_1  and  C_2
REMARK    2  A    between atoms: C_2  and  C_3
REMARK    3  A    between atoms: C_7  and  N_9
REMARK    4  A    between atoms: N_20  and  C_29
REMARK    5  A    between atoms: N_22  and  C_23
REMARK    6  A    between atoms: C_29  and  C_30
REMARK                            x       y       z     vdW  Elec       q    Type
REMARK                         _______ _______ _______ _____ _____    ______ ____
ROOT
ATOM      1  N   UNL     1       5.885   0.138  -0.722  0.00  0.00    -0.269 N 
ATOM      2  C   UNL     1       5.062   0.551   0.262  0.00  0.00    +0.306 C 
ATOM      3  O   UNL     1       5.408   0.456   1.424  0.00  0.00    -0.252 OA
ATOM      4  N   UNL     1       3.856   1.071  -0.042  0.00  0.00    -0.285 N 
ATOM      5  C   UNL     1       3.022   1.686   1.000  0.00  0.00    +0.112 C 
ATOM      6  C   UNL     1       1.642   1.020   0.983  0.00  0.00    +0.054 C 
ATOM      7  C   UNL     1       1.062   1.093  -0.427  0.00  0.00    +0.115 C 
ATOM      8  C   UNL     1       1.968   0.371  -1.420  0.00  0.00    +0.054 C 
ATOM      9  C   UNL     1       3.350   1.032  -1.421  0.00  0.00    +0.112 C 
ATOM     10  C   UNL     1       0.866   2.531  -0.842  0.00  0.00    +0.241 C 
ATOM     11  O   UNL     1       1.665   3.429  -0.686  0.00  0.00    -0.273 OA
ATOM     12  N   UNL     1      -0.350   2.646  -1.416  0.00  0.00    -0.275 N 
ATOM     13  C   UNL     1      -1.012   1.335  -1.433  0.00  0.00    +0.217 C 
ATOM     14  N   UNL     1      -0.290   0.495  -0.449  0.00  0.00    -0.300 N 
ATOM     15  H   UNL     1       5.663   0.320  -1.649  0.00  0.00    +0.156 HD
ENDROOT
BRANCH   1  20
ATOM     16  C   UNL     1       8.800  -2.082  -1.030  0.00  0.00    -0.046 A 
ATOM     17  C   UNL     1       9.383  -1.923   0.215  0.00  0.00    +0.004 A 
ATOM     18  C   UNL     1       8.806  -1.082   1.149  0.00  0.00    +0.002 A 
ATOM     19  C   UNL     1       7.649  -0.394   0.839  0.00  0.00    +0.023 A 
ATOM     20  C   UNL     1       7.059  -0.555  -0.407  0.00  0.00    +0.035 A 
ATOM     21  C   UNL     1       7.641  -1.400  -1.343  0.00  0.00    +0.027 A 
BRANCH  16  23
ATOM     22  C   UNL     1      10.430  -2.209  -2.894  0.00  0.00    +0.009 C 
ATOM     23  C   UNL     1       9.433  -2.999  -2.045  0.00  0.00    +0.032 C 
ENDBRANCH  16  23
ENDBRANCH   1  20
BRANCH  14  24
ATOM     24  C   UNL     1      -0.242  -0.837  -0.867  0.00  0.00    +0.032 A 
ATOM     25  C   UNL     1      -0.855  -1.216  -2.054  0.00  0.00    +0.023 A 
ATOM     26  C   UNL     1      -0.801  -2.533  -2.467  0.00  0.00    +0.002 A 
ATOM     27  C   UNL     1      -0.148  -3.475  -1.694  0.00  0.00    +0.000 A 
ATOM     28  C   UNL     1       0.458  -3.102  -0.509  0.00  0.00    +0.002 A 
ATOM     29  C   UNL     1       0.413  -1.786  -0.093  0.00  0.00    +0.023 A 
ENDBRANCH  14  24
BRANCH  12  30
ATOM     30  C   UNL     1      -0.923   3.888  -1.940  0.00  0.00    +0.205 C 
BRANCH  30  31
ATOM     31  C   UNL     1      -0.545   4.042  -3.391  0.00  0.00    +0.233 C 
ATOM     32  O   UNL     1       0.136   3.197  -3.933  0.00  0.00    -0.274 OA
ATOM     33  N   UNL     1      -0.963   5.118  -4.086  0.00  0.00    -0.300 N 
ATOM     34  C   UNL     1      -1.794   6.210  -3.557  0.00  0.00    +0.108 C 
ATOM     35  C   UNL     1      -2.039   7.201  -4.714  0.00  0.00    +0.020 C 
ATOM     36  C   UNL     1      -1.813   6.324  -5.974  0.00  0.00    +0.020 C 
ATOM     37  C   UNL     1      -0.668   5.393  -5.504  0.00  0.00    +0.108 C 
ENDBRANCH  30  31
ENDBRANCH  12  30
TORSDOF 5
