REMARK  Name = ZINC02797976
REMARK  9 active torsions:
REMARK  status: ('A' for Active; 'I' for Inactive)
REMARK    1  A    between atoms: C_1  and  N_2
REMARK    2  A    between atoms: C_3  and  C_24
REMARK    3  A    between atoms: C_4  and  N_7
REMARK    4  A    between atoms: C_8  and  C_9
REMARK    5  A    between atoms: C_12  and  C_14
REMARK    6  A    between atoms: C_14  and  O_15
REMARK    7  A    between atoms: O_15  and  C_16
REMARK    8  A    between atoms: N_26  and  C_27
REMARK    9  A    between atoms: C_27  and  C_28
REMARK                            x       y       z     vdW  Elec       q    Type
REMARK                         _______ _______ _______ _____ _____    ______ ____
ROOT
ATOM      1  N   UNL     1      -0.009   1.278  -0.119  0.00  0.00    -0.248 NA
ATOM      2  C   UNL     1       0.022  -0.029  -0.183  0.00  0.00    +0.157 C 
ENDROOT
BRANCH   1   6
ATOM      3  C   UNL     1       3.223   4.984   0.139  0.00  0.00    +0.173 C 
ATOM      4  N   UNL     1       2.620   3.651   0.058  0.00  0.00    -0.260 N 
ATOM      5  C   UNL     1       1.278   3.375   0.013  0.00  0.00    +0.148 A 
ATOM      6  C   UNL     1       1.155   1.986  -0.058  0.00  0.00    +0.114 A 
ATOM      7  C   UNL     1       2.458   1.452  -0.049  0.00  0.00    +0.162 A 
ATOM      8  N   UNL     1       3.314   2.436   0.014  0.00  0.00    -0.177 NA
BRANCH   5   9
ATOM      9  C   UNL     1       0.185   4.349   0.037  0.00  0.00    +0.265 C 
ATOM     10  O   UNL     1      -0.282   4.766  -1.007  0.00  0.00    -0.268 OA
ATOM     11  N   UNL     1      -0.304   4.785   1.215  0.00  0.00    -0.303 N 
ATOM     12  H   UNL     1       0.117   4.513   2.045  0.00  0.00    +0.150 HD
BRANCH  11  13
ATOM     13  C   UNL     1      -1.472   5.669   1.241  0.00  0.00    +0.179 C 
BRANCH  13  14
ATOM     14  C   UNL     1      -1.814   6.007   2.669  0.00  0.00    +0.122 A 
ATOM     15  C   UNL     1      -1.336   7.054   3.366  0.00  0.00    +0.046 A 
ATOM     16  C   UNL     1      -1.916   6.988   4.654  0.00  0.00    +0.041 A 
ATOM     17  C   UNL     1      -2.714   5.905   4.667  0.00  0.00    +0.195 A 
ATOM     18  O   UNL     1      -2.653   5.318   3.460  0.00  0.00    -0.466 OA
ENDBRANCH  13  14
ENDBRANCH  11  13
ENDBRANCH   5   9
ENDBRANCH   1   6
BRANCH   2  19
ATOM     19  C   UNL     1      -1.188  -0.764  -0.247  0.00  0.00    +0.146 A 
ATOM     20  C   UNL     1      -1.302  -2.136  -0.317  0.00  0.00    +0.051 A 
ATOM     21  C   UNL     1      -2.675  -2.421  -0.361  0.00  0.00    +0.049 A 
ATOM     22  C   UNL     1      -3.330  -1.240  -0.317  0.00  0.00    +0.143 A 
ATOM     23  O   UNL     1      -2.434  -0.246  -0.243  0.00  0.00    -0.455 OA
BRANCH  22  24
ATOM     24  C   UNL     1      -4.827  -1.068  -0.341  0.00  0.00    +0.303 C 
BRANCH  24  25
ATOM     25  O   UNL     1      -5.329  -1.081   0.997  0.00  0.00    -0.484 OA
BRANCH  25  26
ATOM     26  C   UNL     1      -6.672  -0.936   1.153  0.00  0.00    +0.123 A 
ATOM     27  C   UNL     1      -7.487  -0.779   0.042  0.00  0.00    +0.047 A 
ATOM     28  C   UNL     1      -8.852  -0.638   0.202  0.00  0.00    +0.025 A 
ATOM     29  C   UNL     1      -9.405  -0.641   1.470  0.00  0.00    +0.059 A 
ATOM     30  C   UNL     1      -8.593  -0.791   2.581  0.00  0.00    +0.063 A 
ATOM     31  C   UNL     1      -7.227  -0.939   2.424  0.00  0.00    +0.067 A 
ATOM     32 CL   UNL     1      -9.289  -0.795   4.171  0.00  0.00    -0.082 Cl
ATOM     33 CL   UNL     1     -11.120  -0.456   1.669  0.00  0.00    -0.082 Cl
ENDBRANCH  25  26
ENDBRANCH  24  25
ENDBRANCH  22  24
ENDBRANCH   2  19
TORSDOF 8
