REMARK  Name = ZINC26647724
REMARK  15 active torsions:
REMARK  status: ('A' for Active; 'I' for Inactive)
REMARK    1  A    between atoms: C_1  and  C_2
REMARK    2  A    between atoms: C_2  and  C_3
REMARK    3  A    between atoms: C_2  and  C_4
REMARK    4  A    between atoms: C_4  and  N_5
REMARK    5  A    between atoms: N_5  and  C_6
REMARK    6  A    between atoms: N_5  and  C_10
REMARK    7  A    between atoms: C_6  and  C_7
REMARK    8  A    between atoms: C_7  and  C_8
REMARK    9  A    between atoms: C_7  and  C_9
REMARK   10  A    between atoms: C_10  and  C_11
REMARK   11  A    between atoms: N_13  and  C_14
REMARK   12  A    between atoms: C_16  and  S_22
REMARK   13  A    between atoms: C_19  and  O_20
REMARK   14  A    between atoms: O_20  and  C_21
REMARK   15  A    between atoms: S_22  and  N_25
REMARK                            x       y       z     vdW  Elec       q    Type
REMARK                         _______ _______ _______ _____ _____    ______ ____
ROOT
ATOM      1  C   UNL     1      -4.780  -1.128  -3.559  0.00  0.00    +0.077 A 
ATOM      2  C   UNL     1      -3.701  -0.747  -4.343  0.00  0.00    +0.055 A 
ATOM      3  C   UNL     1      -3.914  -0.222  -5.603  0.00  0.00    +0.107 A 
ATOM      4  C   UNL     1      -5.202  -0.074  -6.085  0.00  0.00    +0.032 A 
ATOM      5  C   UNL     1      -6.282  -0.451  -5.310  0.00  0.00    +0.049 A 
ATOM      6  C   UNL     1      -6.076  -0.984  -4.048  0.00  0.00    +0.141 A 
ENDROOT
BRANCH   1   9
ATOM      7  C   UNL     1      -3.521  -1.242  -1.542  0.00  0.00    +0.201 C 
ATOM      8  O   UNL     1      -2.813  -0.343  -1.946  0.00  0.00    -0.278 OA
ATOM      9  N   UNL     1      -4.566  -1.662  -2.281  0.00  0.00    -0.284 N 
ATOM     10  H   UNL     1      -5.170  -2.334  -1.929  0.00  0.00    +0.155 HD
BRANCH   7  11
ATOM     11  C   UNL     1      -3.230  -1.888  -0.212  0.00  0.00    +0.019 C 
BRANCH  11  12
ATOM     12  N   UNL     1      -2.172  -1.137   0.477  0.00  0.00    +0.386 N 
ATOM     13  H   UNL     1      -1.515  -0.782  -0.202  0.00  0.00    -0.081 HD
BRANCH  12  14
ATOM     14  C   UNL     1      -2.768  -0.017   1.216  0.00  0.00    -0.075 C 
BRANCH  14  16
ATOM     15  C   UNL     1      -4.091   2.090   0.989  0.00  0.00    +0.005 C 
ATOM     16  C   UNL     1      -3.324   1.009   0.226  0.00  0.00    -0.034 C 
ATOM     17  C   UNL     1      -2.169   1.651  -0.545  0.00  0.00    +0.005 C 
ENDBRANCH  14  16
ENDBRANCH  12  14
BRANCH  12  18
ATOM     18  C   UNL     1      -1.472  -2.026   1.415  0.00  0.00    -0.075 C 
BRANCH  18  19
ATOM     19  C   UNL     1      -0.710  -3.096   0.632  0.00  0.00    -0.034 C 
ATOM     20  C   UNL     1       0.351  -2.428  -0.245  0.00  0.00    +0.005 C 
ATOM     21  C   UNL     1      -0.031  -4.057   1.610  0.00  0.00    +0.005 C 
ENDBRANCH  18  19
ENDBRANCH  12  18
ENDBRANCH  11  12
ENDBRANCH   7  11
ENDBRANCH   1   9
BRANCH   3  22
ATOM     22  S   UNL     1      -2.542   0.262  -6.598  0.00  0.00    +0.061 S 
ATOM     23  O   UNL     1      -3.028   1.230  -7.517  0.00  0.00    -0.153 OA
ATOM     24  O   UNL     1      -1.469   0.530  -5.706  0.00  0.00    -0.153 OA
BRANCH  22  25
ATOM     25  N   UNL     1      -2.096  -1.059  -7.492  0.00  0.00    -0.177 NA
ATOM     26  C   UNL     1      -1.119  -1.971  -6.941  0.00  0.00    +0.109 C 
ATOM     27  C   UNL     1       0.304  -1.512  -7.341  0.00  0.00    +0.017 C 
ATOM     28  C   UNL     1       0.532  -1.744  -8.775  0.00  0.00    +0.001 C 
ATOM     29  C   UNL     1      -0.392  -0.952  -9.695  0.00  0.00    +0.001 C 
ATOM     30  C   UNL     1      -1.686  -1.708  -9.874  0.00  0.00    +0.017 C 
ATOM     31  C   UNL     1      -2.717  -1.259  -8.816  0.00  0.00    +0.109 C 
ENDBRANCH  22  25
ENDBRANCH   3  22
BRANCH   6  32
ATOM     32  O   UNL     1      -7.138  -1.361  -3.286  0.00  0.00    -0.493 OA
ATOM     33  C   UNL     1      -8.438  -1.185  -3.852  0.00  0.00    +0.277 C 
ENDBRANCH   6  32
TORSDOF 10
