REMARK  Name = ZINC03960534
REMARK  5 active torsions:
REMARK  status: ('A' for Active; 'I' for Inactive)
REMARK    1  A    between atoms: C_4  and  C_7
REMARK    2  A    between atoms: C_7  and  C_9
REMARK    3  A    between atoms: C_7  and  N_23
REMARK    4  A    between atoms: N_23  and  S_24
REMARK    5  A    between atoms: S_24  and  C_27
REMARK                            x       y       z     vdW  Elec       q    Type
REMARK                         _______ _______ _______ _____ _____    ______ ____
ROOT
ATOM      1  C   UNL     1       3.938   0.018   0.131  0.00  0.00    +0.192 C 
ENDROOT
BRANCH   1   2
ATOM      2  C   UNL     1       4.231  -0.368   1.558  0.00  0.00    +0.239 C 
ATOM      3  O   UNL     1       3.899  -1.459   1.971  0.00  0.00    -0.273 OA
ATOM      4  N   UNL     1       4.862   0.498   2.375  0.00  0.00    -0.297 N 
ATOM      5  C   UNL     1       5.336   1.794   1.868  0.00  0.00    +0.127 C 
ATOM      6  C   UNL     1       4.738   2.908   2.736  0.00  0.00    +0.125 C 
ATOM      7  N   UNL     1       4.964   2.574   4.150  0.00  0.00    -0.314 N 
ATOM      8  C   UNL     1       4.490   1.279   4.656  0.00  0.00    +0.125 C 
ATOM      9  C   UNL     1       5.083   0.167   3.789  0.00  0.00    +0.127 C 
ATOM     10  C   UNL     1       5.615   3.468   4.992  0.00  0.00    +0.099 A 
ATOM     11  C   UNL     1       5.935   4.741   4.532  0.00  0.00    +0.042 A 
ATOM     12  C   UNL     1       6.582   5.620   5.381  0.00  0.00    +0.005 A 
ATOM     13  C   UNL     1       6.889   5.195   6.667  0.00  0.00    +0.018 A 
ATOM     14  C   UNL     1       6.543   3.918   7.057  0.00  0.00    +0.084 A 
ATOM     15  N   UNL     1       5.920   3.102   6.227  0.00  0.00    -0.350 N 
ATOM     16  H   UNL     1       5.684   2.210   6.529  0.00  0.00    +0.166 HD
ENDBRANCH   1   2
BRANCH   1  20
ATOM     17  C   UNL     1       0.345   2.324  -0.013  0.00  0.00    +0.000 A 
ATOM     18  C   UNL     1       1.573   2.952  -0.100  0.00  0.00    +0.000 A 
ATOM     19  C   UNL     1       2.736   2.206  -0.053  0.00  0.00    +0.006 A 
ATOM     20  C   UNL     1       2.671   0.832   0.081  0.00  0.00    -0.020 A 
ATOM     21  C   UNL     1       1.442   0.203   0.169  0.00  0.00    +0.006 A 
ATOM     22  C   UNL     1       0.280   0.949   0.121  0.00  0.00    +0.000 A 
ENDBRANCH   1  20
BRANCH   1  23
ATOM     23  N   UNL     1       3.774  -1.192  -0.679  0.00  0.00    -0.174 NA
ATOM     24  H   UNL     1       3.343  -1.974  -0.300  0.00  0.00    +0.149 HD
BRANCH  23  25
ATOM     25  S   UNL     1       4.325  -1.224  -2.240  0.00  0.00    +0.061 S 
ATOM     26  O   UNL     1       5.670  -0.766  -2.206  0.00  0.00    -0.153 OA
ATOM     27  O   UNL     1       3.966  -2.492  -2.772  0.00  0.00    -0.153 OA
BRANCH  25  28
ATOM     28  C   UNL     1       3.406  -0.021  -3.142  0.00  0.00    +0.133 A 
ATOM     29  C   UNL     1       4.037   1.051  -3.676  0.00  0.00    +0.031 A 
ATOM     30  C   UNL     1       3.342   2.022  -4.396  0.00  0.00    +0.004 A 
ATOM     31  C   UNL     1       2.005   1.935  -4.592  0.00  0.00    +0.031 A 
ATOM     32  C   UNL     1       1.276   0.837  -4.060  0.00  0.00    +0.102 A 
ATOM     33  C   UNL     1       2.004  -0.181  -3.312  0.00  0.00    +0.126 A 
ATOM     34  N   UNL     1       1.221  -1.165  -2.867  0.00  0.00    -0.189 NA
ATOM     35  S   UNL     1      -0.263  -0.800  -3.370  0.00  0.00    +0.117 S 
ATOM     36  N   UNL     1      -0.031   0.587  -4.151  0.00  0.00    -0.191 NA
ENDBRANCH  25  28
ENDBRANCH  23  25
ENDBRANCH   1  23
TORSDOF 5
