REMARK  Name = ZINC35560265
REMARK  7 active torsions:
REMARK  status: ('A' for Active; 'I' for Inactive)
REMARK    1  A    between atoms: C_1  and  C_2
REMARK    2  A    between atoms: C_2  and  C_3
REMARK    3  A    between atoms: C_6  and  C_9
REMARK    4  A    between atoms: C_9  and  C_11
REMARK    5  A    between atoms: C_9  and  N_18
REMARK    6  A    between atoms: N_18  and  C_19
REMARK    7  A    between atoms: C_19  and  C_20
REMARK                            x       y       z     vdW  Elec       q    Type
REMARK                         _______ _______ _______ _____ _____    ______ ____
ROOT
ATOM      1  C   UNL     1       2.707  -1.868  -4.752  0.00  0.00    -0.008 C 
ENDROOT
BRANCH   1   2
ATOM      2  C   UNL     1       3.373  -0.705  -5.441  0.00  0.00    -0.035 A 
ATOM      3  C   UNL     1       4.729  -0.480  -5.285  0.00  0.00    +0.026 A 
ATOM      4  C   UNL     1       5.297   0.576  -5.919  0.00  0.00    +0.056 A 
ATOM      5  S   UNL     1       3.900   1.292  -6.768  0.00  0.00    -0.074 S 
ATOM      6  C   UNL     1       2.654   0.134  -6.226  0.00  0.00    +0.058 A 
ATOM      7 BR   UNL     1       0.809   0.090  -6.640  0.00  0.00    -0.042 Br
ATOM      8 BR   UNL     1       7.101   1.142  -5.906  0.00  0.00    -0.043 Br
ENDBRANCH   1   2
BRANCH   1  12
ATOM      9  C   UNL     1       0.707  -0.490  -1.238  0.00  0.00    -0.048 A 
ATOM     10  C   UNL     1      -0.011  -0.719  -2.397  0.00  0.00    +0.004 A 
ATOM     11  C   UNL     1       0.636  -1.164  -3.534  0.00  0.00    +0.002 A 
ATOM     12  C   UNL     1       2.002  -1.381  -3.513  0.00  0.00    -0.057 A 
ATOM     13  C   UNL     1       2.720  -1.152  -2.354  0.00  0.00    +0.002 A 
ATOM     14  C   UNL     1       2.073  -0.702  -1.218  0.00  0.00    +0.004 A 
BRANCH   9  16
ATOM     15  C   UNL     1      -0.019   1.526   0.010  0.00  0.00    +0.009 C 
ATOM     16  C   UNL     1       0.002  -0.004   0.002  0.00  0.00    +0.032 C 
ENDBRANCH   9  16
ENDBRANCH   1  12
BRANCH   1  17
ATOM     17  N   UNL     1       3.721  -2.863  -4.380  0.00  0.00    +0.386 N 
ATOM     18  H   UNL     1       4.249  -3.128  -5.198  0.00  0.00    -0.085 HD
ATOM     19  H   UNL     1       4.344  -2.467  -3.692  0.00  0.00    -0.085 HD
BRANCH  17  20
ATOM     20  C   UNL     1       3.061  -4.049  -3.817  0.00  0.00    -0.085 C 
ATOM     21  C   UNL     1       4.117  -5.085  -3.429  0.00  0.00    -0.017 C 
ENDBRANCH  17  20
ENDBRANCH   1  17
TORSDOF 5
