REMARK  Name = ZINC03347550
REMARK  8 active torsions:
REMARK  status: ('A' for Active; 'I' for Inactive)
REMARK    1  A    between atoms: C_1  and  C_2
REMARK    2  A    between atoms: C_10  and  C_11
REMARK    3  A    between atoms: N_13  and  C_14
REMARK    4  A    between atoms: C_14  and  C_15
REMARK    5  A    between atoms: C_15  and  C_17
REMARK    6  A    between atoms: C_15  and  N_25
REMARK    7  A    between atoms: C_20  and  O_23
REMARK    8  A    between atoms: O_23  and  C_24
REMARK                            x       y       z     vdW  Elec       q    Type
REMARK                         _______ _______ _______ _____ _____    ______ ____
ROOT
ATOM      1  C   UNL     1       0.111  -0.879   4.825  0.00  0.00    +0.094 C 
ENDROOT
BRANCH   1   4
ATOM      2  C   UNL     1       1.448   1.127   4.469  0.00  0.00    +0.280 C 
ATOM      3  O   UNL     1       0.723   1.408   3.534  0.00  0.00    -0.267 OA
ATOM      4  N   UNL     1       1.226   0.003   5.179  0.00  0.00    -0.310 N 
ATOM      5  H   UNL     1       1.804  -0.222   5.925  0.00  0.00    +0.149 HD
BRANCH   2  15
ATOM      6  C   UNL     1       2.175   3.768   2.997  0.00  0.00    +0.048 C 
ATOM      7  C   UNL     1       2.884   3.165   4.182  0.00  0.00    +0.008 A 
ATOM      8  C   UNL     1       4.051   3.708   4.878  0.00  0.00    +0.025 A 
ATOM      9  C   UNL     1       4.839   4.849   4.714  0.00  0.00    +0.027 A 
ATOM     10  C   UNL     1       5.891   5.074   5.557  0.00  0.00    +0.019 A 
ATOM     11  C   UNL     1       6.180   4.174   6.575  0.00  0.00    +0.019 A 
ATOM     12  C   UNL     1       5.415   3.042   6.753  0.00  0.00    +0.048 A 
ATOM     13  C   UNL     1       4.340   2.793   5.908  0.00  0.00    +0.136 A 
ATOM     14  O   UNL     1       3.433   1.799   5.836  0.00  0.00    -0.450 OA
ATOM     15  C   UNL     1       2.566   2.011   4.824  0.00  0.00    +0.193 A 
ATOM     16 BR   UNL     1       6.959   6.619   5.337  0.00  0.00    -0.050 Br
ENDBRANCH   2  15
ENDBRANCH   1   4
BRANCH   1  17
ATOM     17  C   UNL     1       0.150  -2.130   5.706  0.00  0.00    -0.020 C 
BRANCH  17  18
ATOM     18  N   UNL     1      -0.910  -3.057   5.287  0.00  0.00    +0.385 N 
ATOM     19  C   UNL     1      -0.907  -4.231   6.169  0.00  0.00    -0.078 C 
ATOM     20  C   UNL     1      -2.060  -5.162   5.788  0.00  0.00    -0.019 C 
ATOM     21  C   UNL     1      -1.886  -5.613   4.335  0.00  0.00    -0.004 C 
ATOM     22  C   UNL     1      -1.816  -4.377   3.432  0.00  0.00    -0.019 C 
ATOM     23  C   UNL     1      -0.672  -3.475   3.900  0.00  0.00    -0.078 C 
ATOM     24  H   UNL     1      -1.804  -2.594   5.349  0.00  0.00    -0.081 HD
ENDBRANCH  17  18
BRANCH  17  25
ATOM     25  C   UNL     1      -0.066  -1.737   7.145  0.00  0.00    -0.059 A 
ATOM     26  C   UNL     1      -1.345  -1.497   7.610  0.00  0.00    +0.005 A 
ATOM     27  C   UNL     1      -1.546  -1.137   8.929  0.00  0.00    +0.046 A 
ATOM     28  C   UNL     1      -0.462  -1.016   9.786  0.00  0.00    +0.120 A 
ATOM     29  C   UNL     1       0.821  -1.258   9.317  0.00  0.00    +0.046 A 
ATOM     30  C   UNL     1       1.016  -1.623   7.999  0.00  0.00    +0.005 A 
BRANCH  28  31
ATOM     31  O   UNL     1      -0.656  -0.661  11.084  0.00  0.00    -0.495 OA
ATOM     32  C   UNL     1       0.506  -0.557  11.909  0.00  0.00    +0.277 C 
ENDBRANCH  28  31
ENDBRANCH  17  25
ENDBRANCH   1  17
TORSDOF 6
