REMARK  Name = ZINC64363765
REMARK  5 active torsions:
REMARK  status: ('A' for Active; 'I' for Inactive)
REMARK    1  A    between atoms: C_1  and  C_2
REMARK    2  A    between atoms: C_2  and  C_3
REMARK    3  A    between atoms: C_6  and  C_30
REMARK    4  A    between atoms: C_9  and  C_11
REMARK    5  A    between atoms: C_13  and  C_24
REMARK                            x       y       z     vdW  Elec       q    Type
REMARK                         _______ _______ _______ _____ _____    ______ ____
ROOT
ATOM      1  C   UNL     1       0.399  -5.453  -0.480  0.00  0.00    +0.152 C 
ATOM      2  C   UNL     1      -0.373  -5.147   0.789  0.00  0.00    -0.014 C 
ATOM      3  C   UNL     1       0.186  -5.586   1.993  0.00  0.00    +0.002 A 
ATOM      4  C   UNL     1      -0.466  -5.344   3.221  0.00  0.00    +0.025 A 
ATOM      5  C   UNL     1       0.100  -5.783   4.378  0.00  0.00    +0.019 A 
ATOM      6  C   UNL     1       1.312  -6.470   4.377  0.00  0.00    +0.017 A 
ATOM      7  C   UNL     1       1.987  -6.734   3.224  0.00  0.00    +0.025 A 
ATOM      8  C   UNL     1       1.462  -6.309   1.990  0.00  0.00    +0.041 A 
ATOM      9  N   UNL     1       2.127  -6.569   0.859  0.00  0.00    -0.284 N 
ATOM     10  C   UNL     1       1.702  -6.206  -0.335  0.00  0.00    +0.230 C 
ATOM     11  O   UNL     1       2.360  -6.477  -1.322  0.00  0.00    -0.274 OA
ATOM     12 BR   UNL     1      -0.777  -5.455   6.021  0.00  0.00    -0.050 Br
ATOM     13  H   UNL     1       2.967  -7.050   0.920  0.00  0.00    +0.155 HD
ENDROOT
BRANCH   1  19
ATOM     14  C   UNL     1       0.721  -0.627  -1.204  0.00  0.00    +0.235 C 
ATOM     15  O   UNL     1       1.144   0.212  -1.971  0.00  0.00    -0.274 OA
ATOM     16  N   UNL     1       0.842  -1.936  -1.504  0.00  0.00    -0.186 N 
ATOM     17  C   UNL     1       1.370  -2.482  -2.766  0.00  0.00    +0.147 C 
ATOM     18  C   UNL     1       1.277  -4.007  -2.557  0.00  0.00    +0.082 C 
ATOM     19  C   UNL     1       0.693  -4.146  -1.169  0.00  0.00    +0.055 C 
ATOM     20  N   UNL     1       0.494  -2.996  -0.670  0.00  0.00    -0.185 NA
BRANCH  17  21
ATOM     21  C   UNL     1       2.822  -2.049  -2.975  0.00  0.00    +0.199 C 
ATOM     22  C   UNL     1       3.403  -2.667  -4.271  0.00  0.00    +0.076 C 
ATOM     23  C   UNL     1       4.827  -2.986  -3.849  0.00  0.00    +0.014 C 
ATOM     24  C   UNL     1       4.870  -2.925  -2.536  0.00  0.00    +0.183 C 
ATOM     25  O   UNL     1       3.681  -2.619  -1.968  0.00  0.00    -0.494 OA
ENDBRANCH  17  21
BRANCH  14  27
ATOM     26  C   UNL     1       0.052   1.320   0.178  0.00  0.00    +0.013 C 
ATOM     27  C   UNL     1       0.060  -0.207   0.083  0.00  0.00    +0.094 C 
ENDBRANCH  14  27
ENDBRANCH   1  19
BRANCH   2  28
ATOM     28  C   UNL     1      -1.604  -4.445   0.757  0.00  0.00    -0.020 A 
ATOM     29  C   UNL     1      -1.718  -3.187   1.371  0.00  0.00    +0.008 A 
ATOM     30  C   UNL     1      -2.919  -2.514   1.333  0.00  0.00    +0.001 A 
ATOM     31  C   UNL     1      -4.012  -3.074   0.693  0.00  0.00    +0.000 A 
ATOM     32  C   UNL     1      -3.911  -4.314   0.083  0.00  0.00    +0.001 A 
ATOM     33  C   UNL     1      -2.717  -5.001   0.105  0.00  0.00    +0.008 A 
ENDBRANCH   2  28
TORSDOF 4
