REMARK  Name = ZINC46772255
REMARK  9 active torsions:
REMARK  status: ('A' for Active; 'I' for Inactive)
REMARK    1  A    between atoms: C_1  and  O_2
REMARK    2  A    between atoms: O_2  and  C_3
REMARK    3  A    between atoms: C_6  and  N_9
REMARK    4  A    between atoms: N_9  and  S_10
REMARK    5  A    between atoms: S_10  and  C_13
REMARK    6  A    between atoms: C_17  and  C_19
REMARK    7  A    between atoms: N_21  and  N_22
REMARK    8  A    between atoms: C_23  and  C_25
REMARK    9  A    between atoms: C_26  and  C_27
REMARK                            x       y       z     vdW  Elec       q    Type
REMARK                         _______ _______ _______ _____ _____    ______ ____
ROOT
ATOM      1  C   UNL     1       2.353  -5.040  -3.356  0.00  0.00    +0.109 A 
ATOM      2  C   UNL     1       2.007  -5.070  -2.016  0.00  0.00    +0.029 A 
ATOM      3  C   UNL     1       1.176  -6.064  -1.532  0.00  0.00    +0.003 A 
ATOM      4  C   UNL     1       0.687  -7.034  -2.384  0.00  0.00    +0.013 A 
ATOM      5  C   UNL     1       1.032  -7.009  -3.736  0.00  0.00    +0.040 A 
ATOM      6  C   UNL     1       1.866  -5.999  -4.219  0.00  0.00    +0.042 A 
ENDROOT
BRANCH   5   7
ATOM      7  C   UNL     1       0.512  -8.045  -4.654  0.00  0.00    +0.260 C 
ATOM      8  O   UNL     1       0.814  -8.021  -5.831  0.00  0.00    -0.269 OA
ATOM      9  N   UNL     1      -0.297  -9.016  -4.185  0.00  0.00    -0.230 N 
ATOM     10  H   UNL     1      -0.538  -9.035  -3.246  0.00  0.00    +0.173 HD
BRANCH   9  11
ATOM     11  N   UNL     1      -0.790  -9.997  -5.055  0.00  0.00    -0.231 N 
ATOM     12  C   UNL     1      -1.599 -10.968  -4.586  0.00  0.00    +0.253 C 
ATOM     13  O   UNL     1      -1.901 -10.992  -3.407  0.00  0.00    -0.269 OA
ATOM     14  H   UNL     1      -0.549  -9.978  -5.994  0.00  0.00    +0.173 HD
BRANCH  12  15
ATOM     15  C   UNL     1      -2.096 -11.960  -5.465  0.00  0.00    +0.070 C 
ATOM     16  C   UNL     1      -2.910 -12.937  -4.993  0.00  0.00    +0.020 C 
BRANCH  16  17
ATOM     17  C   UNL     1      -3.408 -13.929  -5.872  0.00  0.00    +0.012 A 
ATOM     18  C   UNL     1      -4.250 -15.001  -5.597  0.00  0.00    +0.015 A 
ATOM     19  C   UNL     1      -4.563 -15.801  -6.669  0.00  0.00    +0.008 A 
ATOM     20  C   UNL     1      -4.047 -15.504  -7.888  0.00  0.00    +0.046 A 
ATOM     21  S   UNL     1      -3.126 -14.124  -7.621  0.00  0.00    -0.097 S 
ENDBRANCH  16  17
ENDBRANCH  12  15
ENDBRANCH   9  11
ENDBRANCH   5   7
BRANCH   1  22
ATOM     22  S   UNL     1       3.411  -3.768  -3.962  0.00  0.00    +0.072 S 
ATOM     23  O   UNL     1       3.924  -4.225  -5.206  0.00  0.00    -0.150 OA
ATOM     24  O   UNL     1       4.255  -3.392  -2.882  0.00  0.00    -0.150 OA
BRANCH  22  25
ATOM     25  N   UNL     1       2.458  -2.456  -4.297  0.00  0.00    -0.216 N 
ATOM     26  H   UNL     1       2.598  -1.621  -3.824  0.00  0.00    +0.174 HD
BRANCH  25  30
ATOM     27  C   UNL     1      -0.544  -2.740  -7.175  0.00  0.00    +0.120 A 
ATOM     28  C   UNL     1      -0.813  -2.151  -5.948  0.00  0.00    +0.047 A 
ATOM     29  C   UNL     1       0.181  -2.057  -4.994  0.00  0.00    +0.028 A 
ATOM     30  C   UNL     1       1.450  -2.551  -5.263  0.00  0.00    +0.048 A 
ATOM     31  C   UNL     1       1.719  -3.141  -6.492  0.00  0.00    +0.028 A 
ATOM     32  C   UNL     1       0.722  -3.240  -7.442  0.00  0.00    +0.047 A 
BRANCH  27  34
ATOM     33  C   UNL     1      -2.803  -2.298  -7.771  0.00  0.00    +0.277 C 
ATOM     34  O   UNL     1      -1.523  -2.833  -8.114  0.00  0.00    -0.495 OA
ENDBRANCH  27  34
ENDBRANCH  25  30
ENDBRANCH  22  25
ENDBRANCH   1  22
TORSDOF 8
