REMARK  Name = ZINC38789177
REMARK  9 active torsions:
REMARK  status: ('A' for Active; 'I' for Inactive)
REMARK    1  A    between atoms: C_1  and  C_2
REMARK    2  A    between atoms: C_4  and  C_26
REMARK    3  A    between atoms: C_7  and  N_8
REMARK    4  A    between atoms: N_8  and  C_9
REMARK    5  A    between atoms: C_9  and  C_10
REMARK    6  A    between atoms: C_15  and  O_24
REMARK    7  A    between atoms: C_16  and  O_22
REMARK    8  A    between atoms: O_22  and  C_23
REMARK    9  A    between atoms: O_24  and  C_25
REMARK                            x       y       z     vdW  Elec       q    Type
REMARK                         _______ _______ _______ _____ _____    ______ ____
ROOT
ATOM      1  N   UNL     1       0.025  -0.016   2.415  0.00  0.00    -0.343 N 
ATOM      2  H   UNL     1       0.012   0.954   2.422  0.00  0.00    +0.146 HD
ENDROOT
BRANCH   1   9
ATOM      3  C   UNL     1      -0.018   1.503   0.010  0.00  0.00    +0.045 C 
ATOM      4  C   UNL     1       0.002  -0.004   0.002  0.00  0.00    -0.029 A 
ATOM      5  C   UNL     1       0.006  -0.689  -1.198  0.00  0.00    +0.014 A 
ATOM      6  C   UNL     1       0.024  -2.071  -1.206  0.00  0.00    +0.012 A 
ATOM      7  C   UNL     1       0.039  -2.773  -0.014  0.00  0.00    +0.011 A 
ATOM      8  C   UNL     1       0.036  -2.095   1.188  0.00  0.00    +0.023 A 
ATOM      9  C   UNL     1       0.023  -0.706   1.200  0.00  0.00    +0.030 A 
BRANCH   6  10
ATOM     10  C   UNL     1       0.027  -2.815  -2.517  0.00  0.00    +0.293 C 
ATOM     11  N   UNL     1       0.714  -4.104  -2.365  0.00  0.00    -0.289 N 
ATOM     12  C   UNL     1      -0.226  -5.091  -2.667  0.00  0.00    +0.142 A 
ATOM     13  C   UNL     1      -1.434  -4.477  -2.991  0.00  0.00    +0.161 A 
ATOM     14  C   UNL     1      -2.523  -5.270  -3.330  0.00  0.00    +0.050 A 
ATOM     15  C   UNL     1      -2.364  -6.649  -3.333  0.00  0.00    +0.021 A 
ATOM     16  C   UNL     1      -1.139  -7.188  -3.001  0.00  0.00    +0.084 A 
ATOM     17  N   UNL     1      -0.120  -6.412  -2.683  0.00  0.00    -0.347 N 
ATOM     18  O   UNL     1      -1.313  -3.124  -2.911  0.00  0.00    -0.463 OA
ATOM     19  H   UNL     1       1.639  -4.243  -2.107  0.00  0.00    +0.151 HD
ATOM     20  H   UNL     1       0.730  -6.820  -2.455  0.00  0.00    +0.167 HD
ENDBRANCH   6  10
ENDBRANCH   1   9
BRANCH   1  21
ATOM     21  C   UNL     1       0.047  -0.758   3.678  0.00  0.00    +0.118 C 
BRANCH  21  22
ATOM     22  C   UNL     1       0.045   0.228   4.849  0.00  0.00    +0.115 C 
ATOM     23  C   UNL     1       0.290  -0.560   6.120  0.00  0.00    -0.003 C 
ATOM     24  C   UNL     1      -0.653  -0.479   7.098  0.00  0.00    -0.003 A 
ATOM     25  C   UNL     1      -0.490  -1.211   8.356  0.00  0.00    +0.059 A 
ATOM     26  C   UNL     1      -1.452  -1.107   9.309  0.00  0.00    +0.162 A 
ATOM     27  C   UNL     1      -2.595  -0.311   9.106  0.00  0.00    +0.163 A 
ATOM     28  C   UNL     1      -2.800   0.398   7.944  0.00  0.00    +0.073 A 
ATOM     29  C   UNL     1      -1.859   0.349   6.907  0.00  0.00    +0.044 A 
ATOM     30  N   UNL     1      -2.070   1.041   5.785  0.00  0.00    -0.284 N 
ATOM     31  C   UNL     1      -1.228   1.040   4.768  0.00  0.00    +0.226 C 
ATOM     32  O   UNL     1      -1.474   1.692   3.770  0.00  0.00    -0.275 OA
ATOM     33  H   UNL     1      -2.881   1.569   5.713  0.00  0.00    +0.155 HD
BRANCH  27  34
ATOM     34  O   UNL     1      -3.526  -0.240  10.088  0.00  0.00    -0.491 OA
ATOM     35  C   UNL     1      -4.670   0.579   9.840  0.00  0.00    +0.277 C 
ENDBRANCH  27  34
BRANCH  26  36
ATOM     36  O   UNL     1      -1.308  -1.783  10.479  0.00  0.00    -0.491 OA
ATOM     37  C   UNL     1      -0.129  -2.576  10.630  0.00  0.00    +0.277 C 
ENDBRANCH  26  36
ENDBRANCH  21  22
ENDBRANCH   1  21
TORSDOF 6
