REMARK  Name = ZINC20806063
REMARK  10 active torsions:
REMARK  status: ('A' for Active; 'I' for Inactive)
REMARK    1  A    between atoms: C_1  and  O_2
REMARK    2  A    between atoms: O_2  and  C_3
REMARK    3  A    between atoms: C_3  and  C_5
REMARK    4  A    between atoms: C_8  and  C_11
REMARK    5  A    between atoms: N_12  and  N_13
REMARK    6  A    between atoms: C_17  and  S_20
REMARK    7  A    between atoms: N_18  and  N_19
REMARK    8  A    between atoms: S_20  and  C_21
REMARK    9  A    between atoms: C_21  and  C_22
REMARK   10  A    between atoms: N_24  and  C_25
REMARK                            x       y       z     vdW  Elec       q    Type
REMARK                         _______ _______ _______ _____ _____    ______ ____
ROOT
ATOM      1  N   UNL     1       8.909  -7.488   0.595  0.00  0.00    -0.204 N 
ATOM      2  C   UNL     1       8.065  -6.391   0.493  0.00  0.00    +0.254 A 
ATOM      3  N   UNL     1       8.429  -5.135   0.417  0.00  0.00    -0.109 NA
ATOM      4  N   UNL     1       7.392  -4.381   0.326  0.00  0.00    -0.119 NA
ATOM      5  C   UNL     1       6.303  -5.111   0.348  0.00  0.00    +0.210 A 
ATOM      6  N   UNL     1       6.695  -6.419   0.451  0.00  0.00    -0.211 N 
ATOM      7  H   UNL     1       8.487  -8.503   0.651  0.00  0.00    +0.177 HD
ENDROOT
BRANCH   6   8
ATOM      8  N   UNL     1       5.889  -7.521   0.502  0.00  0.00    -0.294 N 
ATOM      9  H   UNL     1       4.796  -7.405   0.459  0.00  0.00    +0.163 HD
ATOM     10  H   UNL     1       6.333  -8.524   0.585  0.00  0.00    +0.163 HD
ENDBRANCH   6   8
BRANCH   1  12
ATOM     11  C   UNL     1      11.087  -8.332   0.723  0.00  0.00    +0.138 C 
ATOM     12  N   UNL     1      10.297  -7.304   0.627  0.00  0.00    -0.188 NA
BRANCH  11  16
ATOM     13  C   UNL     1      15.285  -7.774   0.819  0.00  0.00    +0.059 A 
ATOM     14  C   UNL     1      14.750  -9.064   0.890  0.00  0.00    +0.015 A 
ATOM     15  C   UNL     1      13.397  -9.244   0.859  0.00  0.00    +0.010 A 
ATOM     16  C   UNL     1      12.546  -8.138   0.756  0.00  0.00    -0.005 A 
ATOM     17  C   UNL     1      13.082  -6.848   0.679  0.00  0.00    +0.010 A 
ATOM     18  C   UNL     1      14.435  -6.668   0.715  0.00  0.00    +0.015 A 
BRANCH  13  19
ATOM     19  C   UNL     1      16.747  -7.580   0.852  0.00  0.00    +0.339 C 
ATOM     20  O   UNL     1      17.485  -8.540   0.942  0.00  0.00    -0.245 OA
BRANCH  19  22
ATOM     21  C   UNL     1      18.710  -6.221   0.822  0.00  0.00    +0.280 C 
ATOM     22  O   UNL     1      17.263  -6.337   0.783  0.00  0.00    -0.464 OA
ENDBRANCH  19  22
ENDBRANCH  13  19
ENDBRANCH  11  16
ENDBRANCH   1  12
BRANCH   5  23
ATOM     23  S   UNL     1       4.645  -4.519   0.254  0.00  0.00    -0.075 S 
BRANCH  23  24
ATOM     24  C   UNL     1       4.953  -2.739   0.140  0.00  0.00    +0.173 C 
BRANCH  24  25
ATOM     25  C   UNL     1       3.639  -2.007   0.048  0.00  0.00    +0.227 C 
ATOM     26  O   UNL     1       2.597  -2.628   0.057  0.00  0.00    -0.275 OA
ATOM     27  N   UNL     1       3.621  -0.663  -0.046  0.00  0.00    -0.285 N 
ATOM     28  H   UNL     1       4.565  -0.106  -0.142  0.00  0.00    +0.155 HD
BRANCH  27  29
ATOM     29  C   UNL     1       2.401   0.025  -0.021  0.00  0.00    +0.037 A 
ATOM     30  C   UNL     1       1.346  -0.460   0.740  0.00  0.00    +0.027 A 
ATOM     31  C   UNL     1       0.142   0.217   0.764  0.00  0.00    +0.051 A 
ATOM     32  C   UNL     1      -0.016   1.384   0.030  0.00  0.00    +0.162 A 
ATOM     33  C   UNL     1       1.040   1.873  -0.730  0.00  0.00    +0.164 A 
ATOM     34  C   UNL     1       2.247   1.192  -0.756  0.00  0.00    +0.072 A 
ATOM     35  O   UNL     1       0.906   3.021  -1.451  0.00  0.00    -0.485 OA
ATOM     36  C   UNL     1      -0.429   3.473  -1.699  0.00  0.00    +0.270 C 
ATOM     37  C   UNL     1      -1.216   3.395  -0.384  0.00  0.00    +0.270 C 
ATOM     38  O   UNL     1      -1.213   2.033   0.059  0.00  0.00    -0.485 OA
ENDBRANCH  27  29
ENDBRANCH  24  25
ENDBRANCH  23  24
ENDBRANCH   5  23
TORSDOF 9
