REMARK  Name = ZINC10877091
REMARK  13 active torsions:
REMARK  status: ('A' for Active; 'I' for Inactive)
REMARK    1  A    between atoms: C_1  and  C_2
REMARK    2  A    between atoms: C_4  and  C_31
REMARK    3  A    between atoms: C_5  and  N_9
REMARK    4  A    between atoms: C_6  and  C_8
REMARK    5  A    between atoms: C_10  and  C_12
REMARK    6  A    between atoms: C_12  and  C_14
REMARK    7  A    between atoms: C_12  and  S_15
REMARK    8  A    between atoms: S_15  and  C_16
REMARK    9  A    between atoms: C_20  and  C_24
REMARK   10  A    between atoms: C_21  and  C_23
REMARK   11  A    between atoms: N_27  and  C_28
REMARK   12  A    between atoms: C_28  and  C_29
REMARK   13  A    between atoms: C_28  and  C_30
REMARK                            x       y       z     vdW  Elec       q    Type
REMARK                         _______ _______ _______ _____ _____    ______ ____
ROOT
ATOM      1  S   UNL     1       7.228   0.026   1.184  0.00  0.00    -0.075 S 
ENDROOT
BRANCH   1   2
ATOM      2  C   UNL     1       8.479  -1.163   1.540  0.00  0.00    +0.174 A 
ATOM      3  N   UNL     1       8.246  -2.439   1.310  0.00  0.00    -0.216 NA
ATOM      4  C   UNL     1       9.170  -3.357   1.568  0.00  0.00    +0.117 A 
ATOM      5  C   UNL     1      10.432  -3.021   2.094  0.00  0.00    +0.075 A 
ATOM      6  C   UNL     1      11.323  -4.146   2.316  0.00  0.00    -0.026 A 
ATOM      7  C   UNL     1      10.902  -5.384   2.018  0.00  0.00    -0.008 A 
ATOM      8  S   UNL     1       9.248  -5.123   1.406  0.00  0.00    -0.073 S 
ATOM      9  C   UNL     1      11.648  -6.685   2.166  0.00  0.00    +0.052 C 
ATOM     10  C   UNL     1      12.705  -3.925   2.875  0.00  0.00    +0.045 C 
ATOM     11  C   UNL     1      10.655  -1.628   2.332  0.00  0.00    +0.263 A 
ATOM     12  O   UNL     1      11.718  -1.242   2.786  0.00  0.00    -0.267 OA
ATOM     13  N   UNL     1       9.678  -0.749   2.043  0.00  0.00    -0.285 N 
BRANCH  13  14
ATOM     14  C   UNL     1       9.903   0.679   2.279  0.00  0.00    +0.087 C 
ATOM     15  C   UNL     1      10.201   0.911   3.762  0.00  0.00    +0.031 C 
ATOM     16  C   UNL     1      11.092   1.154   1.440  0.00  0.00    +0.031 C 
ENDBRANCH  13  14
ENDBRANCH   1   2
BRANCH   1  17
ATOM     17  C   UNL     1       5.925  -1.065   0.561  0.00  0.00    +0.137 C 
ATOM     18  C   UNL     1       6.390  -1.723  -0.740  0.00  0.00    +0.029 C 
BRANCH  17  20
ATOM     19  N   UNL     1       3.472  -0.860   0.322  0.00  0.00    -0.284 N 
ATOM     20  C   UNL     1       4.678  -0.260   0.299  0.00  0.00    +0.230 C 
ATOM     21  O   UNL     1       4.761   0.927   0.067  0.00  0.00    -0.274 OA
ATOM     22  H   UNL     1       3.410  -1.821   0.443  0.00  0.00    +0.155 HD
BRANCH  19  27
ATOM     23  C   UNL     1      -1.243   2.236  -0.284  0.00  0.00    +0.044 C 
ATOM     24  C   UNL     1       0.007   1.410  -0.125  0.00  0.00    -0.050 A 
ATOM     25  C   UNL     1       0.186   0.641   1.010  0.00  0.00    +0.008 A 
ATOM     26  C   UNL     1       1.334  -0.113   1.162  0.00  0.00    -0.029 A 
ATOM     27  C   UNL     1       2.308  -0.098   0.172  0.00  0.00    +0.039 A 
ATOM     28  C   UNL     1       2.125   0.676  -0.967  0.00  0.00    -0.029 A 
ATOM     29  C   UNL     1       0.976   1.427  -1.112  0.00  0.00    +0.008 A 
ATOM     30  C   UNL     1       3.180   0.695  -2.043  0.00  0.00    +0.045 C 
ATOM     31  C   UNL     1       1.528  -0.951   2.399  0.00  0.00    +0.045 C 
ENDBRANCH  19  27
ENDBRANCH  17  20
ENDBRANCH   1  17
TORSDOF 5
