REMARK  Name = ZINC09517261
REMARK  9 active torsions:
REMARK  status: ('A' for Active; 'I' for Inactive)
REMARK    1  A    between atoms: C_1  and  C_2
REMARK    2  A    between atoms: C_2  and  O_3
REMARK    3  A    between atoms: O_3  and  C_4
REMARK    4  A    between atoms: C_4  and  C_6
REMARK    5  A    between atoms: N_9  and  C_12
REMARK    6  A    between atoms: C_12  and  C_14
REMARK    7  A    between atoms: C_12  and  C_22
REMARK    8  A    between atoms: C_23  and  O_31
REMARK    9  A    between atoms: C_28  and  C_30
REMARK                            x       y       z     vdW  Elec       q    Type
REMARK                         _______ _______ _______ _____ _____    ______ ____
ROOT
ATOM      1  C   UNL     1      -6.177  -4.732  -1.389  0.00  0.00    +0.006 C 
ENDROOT
BRANCH   1   2
ATOM      2  C   UNL     1      -6.012  -6.229  -1.425  0.00  0.00    +0.045 A 
ATOM      3  C   UNL     1      -6.566  -7.160  -0.639  0.00  0.00    +0.225 A 
ATOM      4  N   UNL     1      -6.290  -8.492  -0.829  0.00  0.00    -0.173 N 
ATOM      5  C   UNL     1      -5.438  -8.814  -1.841  0.00  0.00    +0.199 A 
ATOM      6  S   UNL     1      -5.029  -7.229  -2.533  0.00  0.00    -0.050 S 
ATOM      7  N   UNL     1      -5.281 -10.109  -1.887  0.00  0.00    -0.205 NA
ATOM      8  C   UNL     1      -6.010 -10.674  -0.927  0.00  0.00    +0.150 A 
ATOM      9  N   UNL     1      -6.639  -9.744  -0.259  0.00  0.00    -0.147 NA
ATOM     10  C   UNL     1      -6.097 -12.154  -0.654  0.00  0.00    +0.090 C 
BRANCH   3  11
ATOM     11  O   UNL     1      -7.412  -6.782   0.358  0.00  0.00    -0.492 OA
ATOM     12  H   UNL     1      -7.765  -7.520   0.874  0.00  0.00    +0.294 HD
ENDBRANCH   3  11
ENDBRANCH   1   2
BRANCH   1  13
ATOM     13  C   UNL     1      -6.861  -4.272  -2.651  0.00  0.00    -0.053 A 
ATOM     14  C   UNL     1      -6.134  -4.135  -3.819  0.00  0.00    +0.005 A 
ATOM     15  C   UNL     1      -6.759  -3.713  -4.978  0.00  0.00    +0.041 A 
ATOM     16  C   UNL     1      -8.113  -3.428  -4.970  0.00  0.00    +0.158 A 
ATOM     17  C   UNL     1      -8.842  -3.566  -3.798  0.00  0.00    +0.159 A 
ATOM     18  C   UNL     1      -8.214  -3.993  -2.641  0.00  0.00    +0.043 A 
ATOM     19  F   UNL     1     -10.164  -3.288  -3.787  0.00  0.00    -0.202 F 
ATOM     20  F   UNL     1      -8.725  -3.015  -6.101  0.00  0.00    -0.202 F 
ENDBRANCH   1  13
BRANCH   1  24
ATOM     21  C   UNL     1      -2.881  -2.427   0.017  0.00  0.00    +0.094 C 
ATOM     22  C   UNL     1      -3.645  -1.967  -1.229  0.00  0.00    -0.004 C 
ATOM     23  C   UNL     1      -5.020  -2.637  -1.253  0.00  0.00    -0.077 C 
ATOM     24  N   UNL     1      -4.857  -4.096  -1.288  0.00  0.00    +0.387 N 
ATOM     25  C   UNL     1      -4.189  -4.551  -0.063  0.00  0.00    -0.077 C 
ATOM     26  C   UNL     1      -2.782  -3.955   0.007  0.00  0.00    -0.004 C 
ATOM     27  H   UNL     1      -4.300  -4.352  -2.089  0.00  0.00    -0.080 HD
BRANCH  21  28
ATOM     28  C   UNL     1      -1.496  -1.832   0.006  0.00  0.00    +0.310 C 
ATOM     29  O   UNL     1      -0.528  -2.555  -0.007  0.00  0.00    -0.251 OA
BRANCH  28  30
ATOM     30  O   UNL     1      -1.339  -0.499   0.012  0.00  0.00    -0.465 OA
BRANCH  30  32
ATOM     31  C   UNL     1      -0.019   1.526   0.010  0.00  0.00    +0.048 C 
ATOM     32  C   UNL     1       0.002  -0.004   0.002  0.00  0.00    +0.229 C 
ENDBRANCH  30  32
ENDBRANCH  28  30
ENDBRANCH  21  28
ENDBRANCH   1  24
TORSDOF 7
