REMARK  Name = ZINC22473203
REMARK  10 active torsions:
REMARK  status: ('A' for Active; 'I' for Inactive)
REMARK    1  A    between atoms: C_4  and  C_7
REMARK    2  A    between atoms: C_7  and  N_8
REMARK    3  A    between atoms: N_8  and  C_9
REMARK    4  A    between atoms: C_9  and  C_10
REMARK    5  A    between atoms: C_10  and  C_11
REMARK    6  A    between atoms: C_11  and  N_12
REMARK    7  A    between atoms: C_15  and  O_16
REMARK    8  A    between atoms: C_24  and  C_26
REMARK    9  A    between atoms: C_26  and  O_27
REMARK   10  A    between atoms: O_27  and  C_28
REMARK                            x       y       z     vdW  Elec       q    Type
REMARK                         _______ _______ _______ _____ _____    ______ ____
ROOT
ATOM      1  N   UNL     1      -6.198   2.464   0.066  0.00  0.00    -0.294 N 
ATOM      2  C   UNL     1      -6.558   2.807   1.318  0.00  0.00    +0.253 C 
ATOM      3  O   UNL     1      -6.040   2.261   2.269  0.00  0.00    -0.272 OA
ENDROOT
BRANCH   1   4
ATOM      4  C   UNL     1      -6.741   3.199  -1.080  0.00  0.00    +0.143 C 
BRANCH   4   8
ATOM      5  C   UNL     1     -10.127   1.112  -2.636  0.00  0.00    +0.000 A 
ATOM      6  C   UNL     1     -10.307   2.154  -1.746  0.00  0.00    +0.000 A 
ATOM      7  C   UNL     1      -9.211   2.829  -1.242  0.00  0.00    +0.005 A 
ATOM      8  C   UNL     1      -7.935   2.463  -1.629  0.00  0.00    -0.030 A 
ATOM      9  C   UNL     1      -7.756   1.424  -2.523  0.00  0.00    +0.005 A 
ATOM     10  C   UNL     1      -8.851   0.746  -3.023  0.00  0.00    +0.000 A 
ENDBRANCH   4   8
ENDBRANCH   1   4
BRANCH   1  11
ATOM     11  C   UNL     1      -5.263   1.357  -0.151  0.00  0.00    +0.110 C 
BRANCH  11  12
ATOM     12  C   UNL     1      -3.831   1.893  -0.160  0.00  0.00    +0.040 C 
BRANCH  12  13
ATOM     13  C   UNL     1      -2.855   0.737  -0.385  0.00  0.00    +0.114 C 
BRANCH  13  14
ATOM     14  N   UNL     1      -1.483   1.250  -0.394  0.00  0.00    -0.384 N 
ATOM     15  C   UNL     1      -0.426   0.387  -0.582  0.00  0.00    +0.053 A 
ATOM     16  C   UNL     1      -0.633  -0.956  -0.764  0.00  0.00    +0.113 A 
ATOM     17  C   UNL     1       0.461  -1.807  -0.959  0.00  0.00    +0.286 A 
ATOM     18  O   UNL     1       1.723  -1.348  -0.973  0.00  0.00    -0.425 OA
ATOM     19  C   UNL     1       2.005  -0.039  -0.801  0.00  0.00    +0.141 A 
ATOM     20  C   UNL     1       0.962   0.880  -0.601  0.00  0.00    +0.041 A 
ATOM     21  C   UNL     1       1.248   2.234  -0.423  0.00  0.00    +0.013 A 
ATOM     22  C   UNL     1       2.558   2.662  -0.446  0.00  0.00    +0.001 A 
ATOM     23  C   UNL     1       3.587   1.755  -0.645  0.00  0.00    +0.004 A 
ATOM     24  C   UNL     1       3.318   0.413  -0.821  0.00  0.00    +0.047 A 
ATOM     25  H   UNL     1      -1.296   2.324  -0.250  0.00  0.00    +0.160 HD
BRANCH  17  26
ATOM     26  O   UNL     1       0.263  -2.999  -1.119  0.00  0.00    -0.480 OA
ATOM     27  H   UNL     1       1.112  -3.682  -1.273  0.00  0.00    +0.295 HD
ENDBRANCH  17  26
ENDBRANCH  13  14
ENDBRANCH  12  13
ENDBRANCH  11  12
ENDBRANCH   1  11
BRANCH   2  28
ATOM     28  C   UNL     1      -7.605   3.869   1.537  0.00  0.00    +0.324 C 
BRANCH  28  29
ATOM     29  O   UNL     1      -7.882   3.983   2.934  0.00  0.00    -0.483 OA
BRANCH  29  30
ATOM     30  C   UNL     1      -8.811   4.903   3.306  0.00  0.00    +0.122 A 
ATOM     31  C   UNL     1      -9.437   5.685   2.329  0.00  0.00    +0.046 A 
ATOM     32  C   UNL     1     -10.374   6.609   2.670  0.00  0.00    +0.012 A 
ATOM     33  C   UNL     1     -10.713   6.794   4.021  0.00  0.00    -0.018 A 
ATOM     34  C   UNL     1     -11.673   7.745   4.408  0.00  0.00    +0.008 A 
ATOM     35  C   UNL     1     -11.977   7.898   5.726  0.00  0.00    +0.001 A 
ATOM     36  C   UNL     1     -11.350   7.124   6.702  0.00  0.00    +0.001 A 
ATOM     37  C   UNL     1     -10.416   6.194   6.364  0.00  0.00    +0.008 A 
ATOM     38  C   UNL     1     -10.076   6.007   5.013  0.00  0.00    -0.014 A 
ATOM     39  C   UNL     1      -9.116   5.057   4.628  0.00  0.00    +0.054 A 
ENDBRANCH  29  30
ENDBRANCH  28  29
ENDBRANCH   2  28
TORSDOF 10
