REMARK  Name = ZINC16937100
REMARK  8 active torsions:
REMARK  status: ('A' for Active; 'I' for Inactive)
REMARK    1  A    between atoms: C_1  and  C_2
REMARK    2  A    between atoms: C_2  and  O_3
REMARK    3  A    between atoms: O_3  and  C_4
REMARK    4  A    between atoms: C_6  and  C_11
REMARK    5  A    between atoms: C_9  and  O_10
REMARK    6  A    between atoms: N_15  and  C_26
REMARK    7  A    between atoms: N_17  and  C_18
REMARK    8  A    between atoms: C_22  and  O_24
REMARK                            x       y       z     vdW  Elec       q    Type
REMARK                         _______ _______ _______ _____ _____    ______ ____
ROOT
ATOM      1  C   UNL     1       4.977   3.218  -0.029  0.00  0.00    +0.028 C 
ATOM      2  C   UNL     1       3.650   2.989   0.141  0.00  0.00    +0.078 C 
ATOM      3  C   UNL     1       2.539   3.954   0.238  0.00  0.00    +0.259 C 
ATOM      4  O   UNL     1       2.730   5.154   0.170  0.00  0.00    -0.269 OA
ATOM      5  N   UNL     1       1.325   3.456   0.404  0.00  0.00    -0.249 N 
ATOM      6  C   UNL     1       1.129   2.094   0.479  0.00  0.00    +0.168 C 
ATOM      7  N   UNL     1       0.001   1.439   0.640  0.00  0.00    -0.225 NA
ATOM      8  S   UNL     1       2.780   1.437   0.312  0.00  0.00    -0.049 S 
ATOM      9  C   UNL     1       0.178   4.361   0.509  0.00  0.00    +0.140 C 
ENDROOT
BRANCH   1  12
ATOM     10  C   UNL     1       8.120   1.198  -0.356  0.00  0.00    +0.162 A 
ATOM     11  C   UNL     1       7.226   2.246  -0.450  0.00  0.00    +0.057 A 
ATOM     12  C   UNL     1       5.933   2.107   0.067  0.00  0.00    -0.020 A 
ATOM     13  C   UNL     1       5.554   0.907   0.681  0.00  0.00    +0.012 A 
ATOM     14  C   UNL     1       6.452  -0.135   0.766  0.00  0.00    +0.050 A 
ATOM     15  C   UNL     1       7.734   0.004   0.252  0.00  0.00    +0.158 A 
BRANCH  15  16
ATOM     16  O   UNL     1       8.616  -1.026   0.344  0.00  0.00    -0.503 OA
ATOM     17  H   UNL     1       9.149  -1.016   1.150  0.00  0.00    +0.292 HD
ENDBRANCH  15  16
BRANCH  10  18
ATOM     18  O   UNL     1       9.377   1.329  -0.857  0.00  0.00    -0.489 OA
BRANCH  18  20
ATOM     19  C   UNL     1      11.151   2.539  -1.967  0.00  0.00    +0.048 C 
ATOM     20  C   UNL     1       9.705   2.580  -1.467  0.00  0.00    +0.226 C 
ENDBRANCH  18  20
ENDBRANCH  10  18
ENDBRANCH   1  12
BRANCH   7  21
ATOM     21  C   UNL     1       0.006   0.071   0.691  0.00  0.00    +0.070 A 
ATOM     22  C   UNL     1       0.754  -0.662  -0.233  0.00  0.00    +0.028 A 
ATOM     23  C   UNL     1       0.757  -2.041  -0.178  0.00  0.00    +0.006 A 
ATOM     24  C   UNL     1       0.021  -2.700   0.790  0.00  0.00    +0.045 A 
ATOM     25  C   UNL     1      -0.726  -1.980   1.713  0.00  0.00    +0.119 A 
ATOM     26  C   UNL     1      -0.733  -0.596   1.670  0.00  0.00    +0.073 A 
BRANCH  25  27
ATOM     27  O   UNL     1      -1.446  -2.633   2.661  0.00  0.00    -0.507 OA
ATOM     28  H   UNL     1      -0.960  -2.799   3.480  0.00  0.00    +0.292 HD
ENDBRANCH  25  27
ENDBRANCH   7  21
TORSDOF 6
