REMARK  Name = ZINC36233991
REMARK  19 active torsions:
REMARK  status: ('A' for Active; 'I' for Inactive)
REMARK    1  A    between atoms: C_1  and  C_2
REMARK    2  A    between atoms: C_2  and  C_3
REMARK    3  A    between atoms: C_2  and  C_4
REMARK    4  A    between atoms: C_2  and  O_5
REMARK    5  A    between atoms: O_5  and  C_6
REMARK    6  A    between atoms: N_8  and  C_9
REMARK    7  A    between atoms: C_9  and  C_11
REMARK    8  A    between atoms: C_9  and  C_23
REMARK    9  A    between atoms: C_11  and  S_12
REMARK   10  A    between atoms: S_12  and  C_13
REMARK   11  A    between atoms: C_13  and  N_14
REMARK   12  A    between atoms: C_15  and  C_17
REMARK   13  A    between atoms: C_23  and  O_25
REMARK   14  A    between atoms: O_25  and  C_26
REMARK   15  A    between atoms: C_26  and  C_27
REMARK   16  A    between atoms: C_29  and  O_41
REMARK   17  A    between atoms: C_31  and  O_40
REMARK   18  A    between atoms: C_33  and  O_39
REMARK   19  A    between atoms: C_35  and  O_38
REMARK                            x       y       z     vdW  Elec       q    Type
REMARK                         _______ _______ _______ _____ _____    ______ ____
ROOT
ATOM      1  C   UNL     1       4.035  -0.071  -2.601  0.00  0.00    +0.195 C 
ENDROOT
BRANCH   1   4
ATOM      2  C   UNL     1       1.952  -0.085  -1.337  0.00  0.00    +0.401 C 
ATOM      3  O   UNL     1       2.488   0.619  -0.503  0.00  0.00    -0.226 OA
ATOM      4  N   UNL     1       2.641  -0.485  -2.424  0.00  0.00    -0.267 N 
ATOM      5  H   UNL     1       2.213  -1.047  -3.089  0.00  0.00    +0.153 HD
BRANCH   2   6
ATOM      6  O   UNL     1       0.671  -0.465  -1.174  0.00  0.00    -0.445 OA
BRANCH   6   8
ATOM      7  C   UNL     1      -0.019   1.526   0.010  0.00  0.00    +0.055 C 
ATOM      8  C   UNL     1       0.002  -0.004   0.002  0.00  0.00    +0.107 C 
ATOM      9  C   UNL     1       0.742  -0.511   1.242  0.00  0.00    +0.055 C 
ATOM     10  C   UNL     1      -1.433  -0.534   0.013  0.00  0.00    +0.055 C 
ENDBRANCH   6   8
ENDBRANCH   2   6
ENDBRANCH   1   4
BRANCH   1  11
ATOM     11  C   UNL     1       4.859  -0.573  -1.444  0.00  0.00    +0.329 C 
ATOM     12  O   UNL     1       4.320  -0.882  -0.407  0.00  0.00    -0.249 OA
BRANCH  11  13
ATOM     13  O   UNL     1       6.192  -0.677  -1.564  0.00  0.00    -0.461 OA
BRANCH  13  14
ATOM     14  C   UNL     1       6.910  -1.160  -0.427  0.00  0.00    +0.266 C 
BRANCH  14  15
ATOM     15  C   UNL     1       8.404  -1.210  -0.751  0.00  0.00    +0.190 C 
ATOM     16  C   UNL     1       9.186  -1.608   0.504  0.00  0.00    +0.178 C 
ATOM     17  C   UNL     1      10.674  -1.714   0.157  0.00  0.00    +0.179 C 
ATOM     18  C   UNL     1      10.851  -2.722  -0.982  0.00  0.00    +0.201 C 
ATOM     19  C   UNL     1      10.005  -2.281  -2.179  0.00  0.00    +0.279 C 
ATOM     20  O   UNL     1       8.637  -2.172  -1.781  0.00  0.00    -0.340 OA
BRANCH  16  21
ATOM     21  O   UNL     1       9.000  -0.617   1.517  0.00  0.00    -0.386 OA
ATOM     22  H   UNL     1       9.468  -0.805   2.342  0.00  0.00    +0.210 HD
ENDBRANCH  16  21
BRANCH  17  23
ATOM     23  O   UNL     1      11.161  -0.435  -0.254  0.00  0.00    -0.386 OA
ATOM     24  H   UNL     1      12.099  -0.428  -0.489  0.00  0.00    +0.210 HD
ENDBRANCH  17  23
BRANCH  18  25
ATOM     25  O   UNL     1      12.227  -2.777  -1.362  0.00  0.00    -0.384 OA
ATOM     26  H   UNL     1      12.413  -3.397  -2.081  0.00  0.00    +0.210 HD
ENDBRANCH  18  25
BRANCH  19  27
ATOM     27  O   UNL     1      10.467  -1.012  -2.648  0.00  0.00    -0.365 OA
ATOM     28  H   UNL     1       9.976  -0.671  -3.407  0.00  0.00    +0.213 HD
ENDBRANCH  19  27
ENDBRANCH  14  15
ENDBRANCH  13  14
ENDBRANCH  11  13
ENDBRANCH   1  11
BRANCH   1  29
ATOM     29  C   UNL     1       4.111   1.456  -2.657  0.00  0.00    +0.104 C 
BRANCH  29  30
ATOM     30  S   UNL     1       3.119   2.060  -4.051  0.00  0.00    -0.139 S 
BRANCH  30  31
ATOM     31  C   UNL     1       3.312   3.862  -3.978  0.00  0.00    +0.174 C 
BRANCH  31  32
ATOM     32  N   UNL     1       4.642   4.231  -4.467  0.00  0.00    -0.302 N 
ATOM     33  C   UNL     1       4.811   4.588  -5.756  0.00  0.00    +0.245 C 
ATOM     34  O   UNL     1       3.860   4.603  -6.512  0.00  0.00    -0.270 OA
ATOM     35  H   UNL     1       5.402   4.219  -3.864  0.00  0.00    +0.150 HD
BRANCH  33  36
ATOM     36  C   UNL     1       6.154   4.960  -6.250  0.00  0.00    +0.037 A 
ATOM     37  C   UNL     1       7.250   4.938  -5.386  0.00  0.00    +0.013 A 
ATOM     38  C   UNL     1       8.501   5.286  -5.853  0.00  0.00    +0.001 A 
ATOM     39  C   UNL     1       8.670   5.657  -7.175  0.00  0.00    +0.000 A 
ATOM     40  C   UNL     1       7.588   5.682  -8.037  0.00  0.00    +0.001 A 
ATOM     41  C   UNL     1       6.333   5.330  -7.584  0.00  0.00    +0.013 A 
ENDBRANCH  33  36
ENDBRANCH  31  32
ENDBRANCH  30  31
ENDBRANCH  29  30
ENDBRANCH   1  29
TORSDOF 16
