REMARK  Name = ZINC45426454
REMARK  5 active torsions:
REMARK  status: ('A' for Active; 'I' for Inactive)
REMARK    1  A    between atoms: C_1  and  C_2
REMARK    2  A    between atoms: C_5  and  C_24
REMARK    3  A    between atoms: N_12  and  C_13
REMARK    4  A    between atoms: C_13  and  C_14
REMARK    5  A    between atoms: C_14  and  C_15
REMARK                            x       y       z     vdW  Elec       q    Type
REMARK                         _______ _______ _______ _____ _____    ______ ____
ROOT
ATOM      1  C   UNL     1      -0.018   1.525   0.006  0.00  0.00    +0.009 C 
ATOM      2  C   UNL     1       0.003  -0.005  -0.001  0.00  0.00    +0.004 C 
ATOM      3  C   UNL     1      -1.432  -0.536   0.010  0.00  0.00    +0.009 C 
ATOM      4  C   UNL     1      -1.413  -2.065  -0.030  0.00  0.00    +0.004 C 
ATOM      5  C   UNL     1      -0.691  -2.596   1.212  0.00  0.00    +0.112 C 
ATOM      6  N   UNL     1       0.639  -1.978   1.287  0.00  0.00    -0.285 N 
ATOM      7  C   UNL     1       0.741  -0.512   1.241  0.00  0.00    +0.112 C 
ATOM      8  C   UNL     1       1.746  -2.740   1.395  0.00  0.00    +0.302 C 
ATOM      9  O   UNL     1       1.644  -3.944   1.524  0.00  0.00    -0.253 OA
ATOM     10  N   UNL     1       2.965  -2.166   1.360  0.00  0.00    -0.299 N 
ATOM     11  C   UNL     1      -2.849  -2.594  -0.053  0.00  0.00    +0.009 C 
ATOM     12  H   UNL     1       3.046  -1.200   1.331  0.00  0.00    +0.150 HD
ENDROOT
BRANCH  10  13
ATOM     13  C   UNL     1       4.168  -3.002   1.366  0.00  0.00    +0.112 C 
BRANCH  13  14
ATOM     14  C   UNL     1       5.410  -2.109   1.321  0.00  0.00    +0.076 C 
BRANCH  14  15
ATOM     15  C   UNL     1       6.647  -2.969   1.327  0.00  0.00    +0.062 A 
ATOM     16  C   UNL     1       7.642  -2.924   0.414  0.00  0.00    +0.116 A 
ATOM     17  N   UNL     1       8.570  -3.860   0.782  0.00  0.00    -0.306 N 
ATOM     18  C   UNL     1       9.761  -4.243   0.236  0.00  0.00    +0.092 A 
ATOM     19  C   UNL     1      10.500  -5.215   0.812  0.00  0.00    +0.018 A 
ATOM     20  C   UNL     1      10.051  -5.846   1.984  0.00  0.00    +0.005 A 
ATOM     21  C   UNL     1       8.866  -5.473   2.538  0.00  0.00    +0.047 A 
ATOM     22  C   UNL     1       8.107  -4.457   1.925  0.00  0.00    +0.138 A 
ATOM     23  N   UNL     1       6.946  -3.898   2.238  0.00  0.00    -0.233 NA
ENDBRANCH  14  15
ENDBRANCH  13  14
ENDBRANCH  10  13
TORSDOF 3
