REMARK  Name = ZINC59401721
REMARK  15 active torsions:
REMARK  status: ('A' for Active; 'I' for Inactive)
REMARK    1  A    between atoms: C_1  and  C_2
REMARK    2  A    between atoms: C_2  and  O_3
REMARK    3  A    between atoms: O_3  and  C_4
REMARK    4  A    between atoms: C_9  and  N_10
REMARK    5  A    between atoms: N_10  and  C_11
REMARK    6  A    between atoms: N_10  and  S_32
REMARK    7  A    between atoms: C_11  and  C_12
REMARK    8  A    between atoms: N_14  and  N_15
REMARK    9  A    between atoms: C_16  and  C_17
REMARK   10  A    between atoms: C_19  and  C_31
REMARK   11  A    between atoms: N_20  and  C_23
REMARK   12  A    between atoms: C_21  and  C_22
REMARK   13  A    between atoms: C_24  and  C_30
REMARK   14  A    between atoms: C_28  and  C_29
REMARK   15  A    between atoms: S_32  and  C_35
REMARK                            x       y       z     vdW  Elec       q    Type
REMARK                         _______ _______ _______ _____ _____    ______ ____
ROOT
ATOM      1  C   UNL     1       0.259   0.043  -4.284  0.00  0.00    +0.251 C 
ATOM      2  O   UNL     1       0.269   0.528  -3.172  0.00  0.00    -0.272 OA
ATOM      3  N   UNL     1      -0.562   0.541  -5.229  0.00  0.00    -0.206 N 
ATOM      4  H   UNL     1      -0.571   0.154  -6.118  0.00  0.00    +0.177 HD
ENDROOT
BRANCH   3   5
ATOM      5  N   UNL     1      -1.405   1.619  -4.927  0.00  0.00    -0.188 NA
ATOM      6  C   UNL     1      -2.196   2.099  -5.837  0.00  0.00    +0.140 C 
BRANCH   6   7
ATOM      7  C   UNL     1      -3.083   3.233  -5.519  0.00  0.00    +0.016 A 
ATOM      8  C   UNL     1      -4.034   3.886  -6.424  0.00  0.00    +0.032 A 
ATOM      9  C   UNL     1      -4.626   4.866  -5.717  0.00  0.00    +0.022 A 
ATOM     10  N   UNL     1      -4.114   4.868  -4.451  0.00  0.00    -0.317 N 
ATOM     11  C   UNL     1      -3.186   3.882  -4.322  0.00  0.00    +0.030 A 
ATOM     12  C   UNL     1      -2.403   3.563  -3.075  0.00  0.00    +0.064 C 
ATOM     13  C   UNL     1      -5.681   5.808  -6.238  0.00  0.00    +0.064 C 
BRANCH  10  14
ATOM     14  C   UNL     1      -4.493   5.753  -3.432  0.00  0.00    +0.052 A 
ATOM     15  C   UNL     1      -3.829   6.963  -3.278  0.00  0.00    -0.026 A 
ATOM     16  C   UNL     1      -4.205   7.832  -2.273  0.00  0.00    +0.005 A 
ATOM     17  C   UNL     1      -5.242   7.500  -1.421  0.00  0.00    +0.001 A 
ATOM     18  C   UNL     1      -5.905   6.295  -1.571  0.00  0.00    +0.005 A 
ATOM     19  C   UNL     1      -5.538   5.424  -2.578  0.00  0.00    -0.026 A 
ATOM     20  C   UNL     1      -6.266   4.115  -2.746  0.00  0.00    +0.046 C 
ATOM     21  C   UNL     1      -2.699   7.326  -4.206  0.00  0.00    +0.046 C 
ENDBRANCH  10  14
ENDBRANCH   6   7
ENDBRANCH   3   5
BRANCH   1  22
ATOM     22  C   UNL     1       1.165  -1.117  -4.609  0.00  0.00    +0.228 C 
BRANCH  22  23
ATOM     23  N   UNL     1       1.952  -1.469  -3.424  0.00  0.00    -0.195 N 
BRANCH  23  29
ATOM     24  C   UNL     1       0.777  -1.811  -1.336  0.00  0.00    +0.143 A 
ATOM     25  C   UNL     1       0.244  -2.669  -0.388  0.00  0.00    +0.047 A 
ATOM     26  C   UNL     1       0.353  -4.037  -0.555  0.00  0.00    +0.004 A 
ATOM     27  C   UNL     1       0.993  -4.554  -1.666  0.00  0.00    +0.002 A 
ATOM     28  C   UNL     1       1.527  -3.704  -2.617  0.00  0.00    +0.028 A 
ATOM     29  C   UNL     1       1.417  -2.331  -2.459  0.00  0.00    +0.093 A 
BRANCH  24  30
ATOM     30  O   UNL     1       0.671  -0.465  -1.174  0.00  0.00    -0.490 OA
BRANCH  30  32
ATOM     31  C   UNL     1      -0.019   1.526   0.010  0.00  0.00    +0.048 C 
ATOM     32  C   UNL     1       0.002  -0.004   0.002  0.00  0.00    +0.226 C 
ENDBRANCH  30  32
ENDBRANCH  24  30
ENDBRANCH  23  29
BRANCH  23  33
ATOM     33  S   UNL     1       3.474  -0.847  -3.225  0.00  0.00    +0.043 S 
ATOM     34  O   UNL     1       3.437   0.416  -3.876  0.00  0.00    -0.155 OA
ATOM     35  O   UNL     1       3.722  -0.935  -1.829  0.00  0.00    -0.155 OA
ATOM     36  C   UNL     1       4.563  -1.983  -4.127  0.00  0.00    +0.218 C 
ENDBRANCH  23  33
ENDBRANCH  22  23
ENDBRANCH   1  22
TORSDOF 9
