REMARK  Name = ZINC39742502
REMARK  10 active torsions:
REMARK  status: ('A' for Active; 'I' for Inactive)
REMARK    1  A    between atoms: C_1  and  C_2
REMARK    2  A    between atoms: C_2  and  C_3
REMARK    3  A    between atoms: C_4  and  C_36
REMARK    4  A    between atoms: C_9  and  C_11
REMARK    5  A    between atoms: C_11  and  C_13
REMARK    6  A    between atoms: C_11  and  S_14
REMARK    7  A    between atoms: S_14  and  C_15
REMARK    8  A    between atoms: C_18  and  C_26
REMARK    9  A    between atoms: N_19  and  C_20
REMARK   10  A    between atoms: C_27  and  C_35
REMARK                            x       y       z     vdW  Elec       q    Type
REMARK                         _______ _______ _______ _____ _____    ______ ____
ROOT
ATOM      1  C   UNL     1      -8.911  -2.433  -4.096  0.00  0.00    +0.197 A 
ATOM      2  N   UNL     1      -8.404  -2.670  -5.286  0.00  0.00    -0.122 NA
ATOM      3  N   UNL     1      -9.345  -2.810  -6.150  0.00  0.00    -0.125 NA
ATOM      4  C   UNL     1     -10.516  -2.672  -5.566  0.00  0.00    +0.205 A 
ATOM      5  N   UNL     1     -10.273  -2.432  -4.229  0.00  0.00    -0.268 N 
ENDROOT
BRANCH   4   6
ATOM      6  C   UNL     1     -11.833  -2.763  -6.213  0.00  0.00    +0.176 A 
ATOM      7  C   UNL     1     -12.040  -3.013  -7.532  0.00  0.00    +0.006 A 
ATOM      8  C   UNL     1     -13.491  -3.012  -7.722  0.00  0.00    +0.024 A 
ATOM      9  C   UNL     1     -14.328  -3.204  -8.823  0.00  0.00    +0.012 A 
ATOM     10  C   UNL     1     -15.684  -3.138  -8.662  0.00  0.00    +0.001 A 
ATOM     11  C   UNL     1     -16.232  -2.882  -7.413  0.00  0.00    +0.004 A 
ATOM     12  C   UNL     1     -15.421  -2.690  -6.314  0.00  0.00    +0.047 A 
ATOM     13  C   UNL     1     -14.041  -2.753  -6.454  0.00  0.00    +0.136 A 
ATOM     14  O   UNL     1     -13.018  -2.617  -5.586  0.00  0.00    -0.451 OA
ATOM     15  C   UNL     1     -10.988  -3.244  -8.586  0.00  0.00    +0.048 C 
ENDBRANCH   4   6
BRANCH   5  16
ATOM     16  C   UNL     1     -11.222  -2.225  -3.219  0.00  0.00    +0.051 A 
ATOM     17  C   UNL     1     -12.084  -3.251  -2.854  0.00  0.00    +0.026 A 
ATOM     18  C   UNL     1     -13.018  -3.045  -1.858  0.00  0.00    +0.002 A 
ATOM     19  C   UNL     1     -13.097  -1.818  -1.225  0.00  0.00    +0.000 A 
ATOM     20  C   UNL     1     -12.241  -0.794  -1.586  0.00  0.00    +0.002 A 
ATOM     21  C   UNL     1     -11.300  -0.997  -2.577  0.00  0.00    +0.026 A 
ENDBRANCH   5  16
BRANCH   1  22
ATOM     22  S   UNL     1      -8.005  -2.175  -2.607  0.00  0.00    -0.073 S 
BRANCH  22  23
ATOM     23  C   UNL     1      -6.271  -2.304  -3.121  0.00  0.00    +0.137 C 
ATOM     24  C   UNL     1      -5.985  -3.728  -3.601  0.00  0.00    +0.029 C 
BRANCH  23  31
ATOM     25  C   UNL     1      -1.412  -0.526   0.013  0.00  0.00    +0.053 A 
ATOM     26  C   UNL     1      -2.067  -0.772   1.174  0.00  0.00    +0.011 A 
ATOM     27  S   UNL     1      -3.639  -1.349   0.553  0.00  0.00    -0.057 S 
ATOM     28  C   UNL     1      -3.302  -1.218  -1.091  0.00  0.00    +0.165 A 
ATOM     29  N   UNL     1      -2.070  -0.758  -1.108  0.00  0.00    -0.229 NA
ATOM     30  N   UNL     1      -4.127  -1.518  -2.168  0.00  0.00    -0.264 N 
ATOM     31  C   UNL     1      -5.375  -1.978  -1.953  0.00  0.00    +0.232 C 
ATOM     32  O   UNL     1      -5.778  -2.131  -0.819  0.00  0.00    -0.274 OA
ATOM     33  C   UNL     1      -1.597  -0.606   2.596  0.00  0.00    +0.053 C 
ATOM     34  H   UNL     1      -3.805  -1.395  -3.075  0.00  0.00    +0.157 HD
BRANCH  25  36
ATOM     35  C   UNL     1      -0.019   1.526   0.010  0.00  0.00    +0.010 C 
ATOM     36  C   UNL     1       0.002  -0.004   0.002  0.00  0.00    +0.053 C 
ENDBRANCH  25  36
ENDBRANCH  23  31
ENDBRANCH  22  23
ENDBRANCH   1  22
TORSDOF 6
