REMARK  Name = ZINC48332238
REMARK  3 active torsions:
REMARK  status: ('A' for Active; 'I' for Inactive)
REMARK    1  A    between atoms: C_6  and  C_7
REMARK    2  A    between atoms: C_7  and  N_8
REMARK    3  A    between atoms: C_15  and  C_17
REMARK                            x       y       z     vdW  Elec       q    Type
REMARK                         _______ _______ _______ _____ _____    ______ ____
ROOT
ATOM      1  N   UNL     1      -1.539  -1.285  -1.367  0.00  0.00    -0.294 N 
ATOM      2  C   UNL     1      -2.591  -2.092  -1.607  0.00  0.00    +0.303 C 
ATOM      3  O   UNL     1      -3.264  -2.505  -0.682  0.00  0.00    -0.253 OA
ATOM      4  N   UNL     1      -2.897  -2.443  -2.872  0.00  0.00    -0.279 N 
ATOM      5  C   UNL     1      -2.165  -2.022  -4.080  0.00  0.00    +0.110 C 
ATOM      6  C   UNL     1      -2.473  -3.118  -5.132  0.00  0.00    +0.021 C 
ATOM      7  C   UNL     1      -3.954  -3.450  -4.810  0.00  0.00    +0.029 C 
ATOM      8  C   UNL     1      -4.012  -3.313  -3.274  0.00  0.00    +0.108 C 
ATOM      9  H   UNL     1      -1.002  -0.956  -2.104  0.00  0.00    +0.151 HD
ENDROOT
BRANCH   8  10
ATOM     10  C   UNL     1      -5.322  -2.689  -2.867  0.00  0.00    -0.024 A 
ATOM     11  C   UNL     1      -5.519  -1.320  -2.971  0.00  0.00    +0.025 A 
ATOM     12  C   UNL     1      -6.733  -0.784  -2.588  0.00  0.00    +0.111 A 
ATOM     13  N   UNL     1      -7.697  -1.557  -2.127  0.00  0.00    -0.263 NA
ATOM     14  C   UNL     1      -7.545  -2.862  -2.014  0.00  0.00    +0.111 A 
ATOM     15  C   UNL     1      -6.360  -3.470  -2.383  0.00  0.00    +0.025 A 
ENDBRANCH   8  10
BRANCH   1  16
ATOM     16  C   UNL     1      -1.206  -0.904   0.008  0.00  0.00    +0.163 C 
BRANCH  16  22
ATOM     17  C   UNL     1      -0.017   1.395   0.010  0.00  0.00    +0.045 A 
ATOM     18  C   UNL     1       1.265   1.828  -0.000  0.00  0.00    +0.105 A 
ATOM     19  N   UNL     1       2.066   0.743  -0.014  0.00  0.00    -0.284 N 
ATOM     20  H   UNL     1       3.036   0.750  -0.023  0.00  0.00    +0.188 HD
ATOM     21  N   UNL     1       1.250  -0.396  -0.012  0.00  0.00    -0.177 NA
ATOM     22  C   UNL     1       0.002  -0.004   0.002  0.00  0.00    +0.080 A 
ENDBRANCH  16  22
ENDBRANCH   1  16
TORSDOF 3
