REMARK  Name = ZINC39660425
REMARK  11 active torsions:
REMARK  status: ('A' for Active; 'I' for Inactive)
REMARK    1  A    between atoms: C_1  and  C_2
REMARK    2  A    between atoms: C_2  and  C_3
REMARK    3  A    between atoms: C_3  and  C_4
REMARK    4  A    between atoms: C_4  and  C_5
REMARK    5  A    between atoms: C_5  and  C_6
REMARK    6  A    between atoms: C_6  and  N_7
REMARK    7  A    between atoms: C_8  and  C_10
REMARK    8  A    between atoms: C_21  and  C_23
REMARK    9  A    between atoms: C_23  and  O_24
REMARK   10  A    between atoms: O_24  and  C_25
REMARK   11  A    between atoms: C_35  and  C_36
REMARK                            x       y       z     vdW  Elec       q    Type
REMARK                         _______ _______ _______ _____ _____    ______ ____
ROOT
ATOM      1  C   UNL     1       3.006  -6.331  -5.199  0.00  0.00    +0.100 C 
ATOM      2  C   UNL     1       2.171  -6.002  -6.457  0.00  0.00    +0.121 C 
ATOM      3  N   UNL     1       2.360  -7.171  -7.348  0.00  0.00    -0.297 N 
ATOM      4  C   UNL     1       2.341  -8.338  -6.434  0.00  0.00    +0.115 C 
ATOM      5  C   UNL     1       3.115  -7.865  -5.187  0.00  0.00    -0.004 C 
ATOM      6  C   UNL     1       2.474  -8.430  -3.923  0.00  0.00    -0.010 C 
ATOM      7  C   UNL     1       2.646  -9.952  -3.905  0.00  0.00    -0.082 C 
ATOM      8  N   UNL     1       4.075 -10.285  -3.945  0.00  0.00    +0.379 N 
ATOM      9  C   UNL     1       4.663  -9.819  -5.206  0.00  0.00    -0.082 C 
ATOM     10  C   UNL     1       4.576  -8.292  -5.279  0.00  0.00    -0.010 C 
ATOM     11  C   UNL     1       2.514  -7.173  -8.687  0.00  0.00    +0.253 C 
ATOM     12  O   UNL     1       2.659  -8.222  -9.279  0.00  0.00    -0.272 OA
ATOM     13  H   UNL     1       4.544  -9.839  -3.171  0.00  0.00    -0.086 HD
ATOM     14  H   UNL     1       4.188 -11.285  -3.871  0.00  0.00    -0.086 HD
ENDROOT
BRANCH   1  16
ATOM     15  N   UNL     1       3.015  -5.493  -2.872  0.00  0.00    -0.315 N 
ATOM     16  C   UNL     1       2.301  -5.845  -3.959  0.00  0.00    +0.218 C 
ATOM     17  O   UNL     1       1.090  -5.771  -3.940  0.00  0.00    -0.275 OA
ATOM     18  H   UNL     1       3.983  -5.552  -2.888  0.00  0.00    +0.149 HD
BRANCH  15  19
ATOM     19  C   UNL     1       2.329  -5.020  -1.667  0.00  0.00    +0.104 C 
BRANCH  19  20
ATOM     20  C   UNL     1       3.363  -4.689  -0.589  0.00  0.00    +0.019 C 
BRANCH  20  21
ATOM     21  C   UNL     1       2.647  -4.195   0.670  0.00  0.00    +0.002 C 
BRANCH  21  22
ATOM     22  C   UNL     1       3.681  -3.864   1.748  0.00  0.00    -0.000 C 
BRANCH  22  24
ATOM     23  C   UNL     1       3.998  -3.039   4.085  0.00  0.00    +0.004 C 
ATOM     24  C   UNL     1       2.965  -3.371   3.007  0.00  0.00    -0.003 C 
ENDBRANCH  22  24
ENDBRANCH  21  22
ENDBRANCH  20  21
ENDBRANCH  19  20
ENDBRANCH  15  19
ENDBRANCH   1  16
BRANCH  11  25
ATOM     25  C   UNL     1       2.507  -5.873  -9.448  0.00  0.00    +0.324 C 
BRANCH  25  26
ATOM     26  O   UNL     1       2.687  -6.135 -10.841  0.00  0.00    -0.479 OA
BRANCH  26  27
ATOM     27  C   UNL     1       2.704  -5.061 -11.675  0.00  0.00    +0.164 A 
ATOM     28  C   UNL     1       2.558  -3.784 -11.163  0.00  0.00    +0.049 A 
ATOM     29  C   UNL     1       2.574  -2.680 -12.002  0.00  0.00    +0.004 A 
ATOM     30  C   UNL     1       2.736  -2.840 -13.360  0.00  0.00    +0.012 A 
ATOM     31  C   UNL     1       2.886  -4.124 -13.894  0.00  0.00    +0.024 A 
ATOM     32  C   UNL     1       2.876  -5.243 -13.045  0.00  0.00    +0.181 A 
ATOM     33  O   UNL     1       3.026  -6.482 -13.563  0.00  0.00    -0.418 OA
ATOM     34  C   UNL     1       3.192  -6.675 -14.880  0.00  0.00    +0.338 A 
ATOM     35  O   UNL     1       3.322  -7.810 -15.302  0.00  0.00    -0.245 OA
ATOM     36  C   UNL     1       3.218  -5.596 -15.790  0.00  0.00    +0.096 A 
ATOM     37  C   UNL     1       3.061  -4.327 -15.336  0.00  0.00    -0.033 A 
ATOM     38  C   UNL     1       3.084  -3.156 -16.285  0.00  0.00    +0.045 C 
ENDBRANCH  26  27
ENDBRANCH  25  26
ENDBRANCH  11  25
TORSDOF 9
