REMARK  Name = ZINC12496721
REMARK  9 active torsions:
REMARK  status: ('A' for Active; 'I' for Inactive)
REMARK    1  A    between atoms: C_1  and  C_2
REMARK    2  A    between atoms: C_2  and  C_3
REMARK    3  A    between atoms: C_3  and  C_4
REMARK    4  A    between atoms: C_4  and  C_30
REMARK    5  A    between atoms: C_9  and  C_11
REMARK    6  A    between atoms: N_20  and  C_23
REMARK    7  A    between atoms: C_30  and  O_32
REMARK    8  A    between atoms: O_32  and  C_33
REMARK    9  A    between atoms: C_33  and  C_34
REMARK                            x       y       z     vdW  Elec       q    Type
REMARK                         _______ _______ _______ _____ _____    ______ ____
ROOT
ATOM      1  C   UNL     1      -5.972   0.423   0.373  0.00  0.00    +0.044 C 
ATOM      2  C   UNL     1      -4.613   0.488  -0.301  0.00  0.00    +0.086 C 
ATOM      3  C   UNL     1      -3.931  -0.757   0.375  0.00  0.00    +0.077 C 
ATOM      4  C   UNL     1      -4.981  -1.785   0.285  0.00  0.00    -0.024 C 
ATOM      5  C   UNL     1      -2.535  -0.521   0.116  0.00  0.00    +0.229 C 
ATOM      6  O   UNL     1      -1.671  -1.350  -0.073  0.00  0.00    -0.275 OA
ATOM      7  N   UNL     1      -2.392   0.844   0.131  0.00  0.00    -0.210 N 
ATOM      8  C   UNL     1      -3.590   1.502   0.101  0.00  0.00    +0.229 C 
ATOM      9  O   UNL     1      -3.784   2.672   0.351  0.00  0.00    -0.275 OA
ATOM     10  N   UNL     1      -6.222  -1.020   0.625  0.00  0.00    +0.395 N 
ATOM     11  H   UNL     1      -7.000  -1.345   0.039  0.00  0.00    -0.083 HD
ATOM     12  H   UNL     1      -6.456  -1.163   1.615  0.00  0.00    -0.083 HD
ENDROOT
BRANCH   4  13
ATOM     13  C   UNL     1      -4.741  -2.896   1.276  0.00  0.00    -0.025 A 
ATOM     14  C   UNL     1      -5.368  -2.871   2.507  0.00  0.00    +0.005 A 
ATOM     15  C   UNL     1      -5.149  -3.890   3.416  0.00  0.00    +0.000 A 
ATOM     16  C   UNL     1      -4.302  -4.934   3.093  0.00  0.00    +0.003 A 
ATOM     17  C   UNL     1      -3.674  -4.961   1.863  0.00  0.00    +0.038 A 
ATOM     18  C   UNL     1      -3.897  -3.943   0.950  0.00  0.00    +0.125 A 
ATOM     19  F   UNL     1      -3.288  -3.971  -0.256  0.00  0.00    -0.205 F 
ENDBRANCH   4  13
BRANCH   7  20
ATOM     20  C   UNL     1      -1.150   1.494   0.168  0.00  0.00    +0.044 A 
ATOM     21  C   UNL     1       0.023   0.751   0.197  0.00  0.00    +0.027 A 
ATOM     22  C   UNL     1       1.245   1.393   0.227  0.00  0.00    +0.040 A 
ATOM     23  C   UNL     1       1.302   2.777   0.234  0.00  0.00    +0.124 A 
ATOM     24  C   UNL     1       0.133   3.519   0.210  0.00  0.00    +0.040 A 
ATOM     25  C   UNL     1      -1.091   2.881   0.180  0.00  0.00    +0.027 A 
ATOM     26  F   UNL     1       2.498   3.403   0.263  0.00  0.00    -0.205 F 
ENDBRANCH   7  20
BRANCH   1  27
ATOM     27  C   UNL     1      -5.944   1.185   1.673  0.00  0.00    +0.297 C 
ATOM     28  O   UNL     1      -6.287   2.343   1.702  0.00  0.00    -0.252 OA
BRANCH  27  29
ATOM     29  O   UNL     1      -5.539   0.576   2.799  0.00  0.00    -0.466 OA
BRANCH  29  30
ATOM     30  C   UNL     1      -5.538   1.370   4.014  0.00  0.00    +0.228 C 
ATOM     31  C   UNL     1      -5.049   0.512   5.183  0.00  0.00    +0.048 C 
ENDBRANCH  29  30
ENDBRANCH  27  29
ENDBRANCH   1  27
BRANCH   1  32
ATOM     32  C   UNL     1      -7.048   0.998  -0.551  0.00  0.00    -0.001 C 
BRANCH  32  34
ATOM     33  C   UNL     1      -9.484   1.500  -0.781  0.00  0.00    +0.004 C 
ATOM     34  C   UNL     1      -8.409   0.925   0.143  0.00  0.00    -0.004 C 
ENDBRANCH  32  34
ENDBRANCH   1  32
TORSDOF 7
