REMARK  Name = ZINC11029296
REMARK  13 active torsions:
REMARK  status: ('A' for Active; 'I' for Inactive)
REMARK    1  A    between atoms: C_1  and  C_2
REMARK    2  A    between atoms: C_3  and  C_33
REMARK    3  A    between atoms: C_4  and  C_32
REMARK    4  A    between atoms: C_7  and  C_8
REMARK    5  A    between atoms: C_8  and  C_10
REMARK    6  A    between atoms: C_10  and  O_11
REMARK    7  A    between atoms: O_11  and  C_12
REMARK    8  A    between atoms: C_12  and  C_14
REMARK    9  A    between atoms: C_19  and  C_20
REMARK   10  A    between atoms: C_20  and  C_22
REMARK   11  A    between atoms: C_26  and  N_28
REMARK   12  A    between atoms: C_33  and  O_35
REMARK   13  A    between atoms: O_35  and  C_36
REMARK                            x       y       z     vdW  Elec       q    Type
REMARK                         _______ _______ _______ _____ _____    ______ ____
ROOT
ATOM      1  C   UNL     1       5.111  -0.125  -0.131  0.00  0.00    +0.340 C 
ATOM      2  O   UNL     1       4.125  -0.827  -0.238  0.00  0.00    -0.245 OA
ENDROOT
BRANCH   1   3
ATOM      3  C   UNL     1       4.966   1.344  -0.053  0.00  0.00    +0.070 A 
ATOM      4  C   UNL     1       6.095   2.160  -0.050  0.00  0.00    +0.016 A 
ATOM      5  C   UNL     1       5.955   3.533   0.023  0.00  0.00    +0.001 A 
ATOM      6  C   UNL     1       4.698   4.107   0.092  0.00  0.00    +0.001 A 
ATOM      7  C   UNL     1       3.566   3.314   0.085  0.00  0.00    +0.012 A 
ATOM      8  C   UNL     1       3.687   1.928   0.018  0.00  0.00    +0.036 A 
BRANCH   8   9
ATOM      9  C   UNL     1       2.479   1.075   0.015  0.00  0.00    +0.194 C 
ATOM     10  O   UNL     1       1.810   0.973  -0.994  0.00  0.00    -0.287 OA
BRANCH   9  11
ATOM     11  C   UNL     1       2.086   0.347   1.239  0.00  0.00    +0.025 A 
ATOM     12  C   UNL     1       2.905   0.384   2.371  0.00  0.00    +0.013 A 
ATOM     13  C   UNL     1       2.532  -0.297   3.510  0.00  0.00    +0.023 A 
ATOM     14  C   UNL     1       1.348  -1.016   3.534  0.00  0.00    +0.071 A 
ATOM     15  C   UNL     1       0.529  -1.052   2.417  0.00  0.00    +0.145 A 
ATOM     16  C   UNL     1       0.894  -0.380   1.270  0.00  0.00    +0.046 A 
ATOM     17 CL   UNL     1       0.886  -1.871   4.973  0.00  0.00    -0.081 Cl
BRANCH  15  18
ATOM     18  N   UNL     1      -0.737  -1.818   2.454  0.00  0.00    +0.058 N 
ATOM     19  O   UNL     1      -1.456  -1.854   1.472  0.00  0.00    -0.126 OA
ATOM     20  O   UNL     1      -1.060  -2.412   3.467  0.00  0.00    -0.126 OA
ENDBRANCH  15  18
ENDBRANCH   9  11
ENDBRANCH   8   9
ENDBRANCH   1   3
BRANCH   1  21
ATOM     21  O   UNL     1       6.335  -0.685  -0.082  0.00  0.00    -0.453 OA
BRANCH  21  22
ATOM     22  C   UNL     1       6.401  -2.133  -0.164  0.00  0.00    +0.313 C 
BRANCH  22  23
ATOM     23  C   UNL     1       7.840  -2.575  -0.094  0.00  0.00    +0.217 C 
ATOM     24  O   UNL     1       8.723  -1.750   0.014  0.00  0.00    -0.287 OA
BRANCH  23  31
ATOM     25  C   UNL     1      10.723  -3.731   0.017  0.00  0.00    +0.047 C 
ATOM     26  C   UNL     1       9.428  -4.491  -0.107  0.00  0.00    -0.008 A 
ATOM     27  C   UNL     1       9.280  -5.892  -0.195  0.00  0.00    +0.083 A 
ATOM     28  C   UNL     1       7.925  -6.154  -0.302  0.00  0.00    +0.028 A 
ATOM     29  N   UNL     1       7.259  -4.991  -0.277  0.00  0.00    -0.355 N 
ATOM     30  H   UNL     1       6.296  -4.894  -0.336  0.00  0.00    +0.166 HD
ATOM     31  C   UNL     1       8.161  -3.953  -0.155  0.00  0.00    +0.090 A 
ATOM     32  C   UNL     1       7.302  -7.521  -0.426  0.00  0.00    +0.064 C 
BRANCH  27  33
ATOM     33  C   UNL     1      10.365  -6.888  -0.182  0.00  0.00    +0.341 C 
ATOM     34  O   UNL     1      10.883  -7.237  -1.225  0.00  0.00    -0.245 OA
BRANCH  33  35
ATOM     35  O   UNL     1      10.783  -7.414   0.987  0.00  0.00    -0.464 OA
ATOM     36  C   UNL     1      11.856  -8.390   0.924  0.00  0.00    +0.280 C 
ENDBRANCH  33  35
ENDBRANCH  27  33
ENDBRANCH  23  31
ENDBRANCH  22  23
ENDBRANCH  21  22
ENDBRANCH   1  21
TORSDOF 10
