REMARK  Name = ZINC36303383
REMARK  18 active torsions:
REMARK  status: ('A' for Active; 'I' for Inactive)
REMARK    1  A    between atoms: C_1  and  C_2
REMARK    2  A    between atoms: C_2  and  C_3
REMARK    3  A    between atoms: C_3  and  N_4
REMARK    4  A    between atoms: N_4  and  C_5
REMARK    5  A    between atoms: N_4  and  C_30
REMARK    6  A    between atoms: C_5  and  C_6
REMARK    7  A    between atoms: C_7  and  C_28
REMARK    8  A    between atoms: N_9  and  C_20
REMARK    9  A    between atoms: C_10  and  O_11
REMARK   10  A    between atoms: O_11  and  C_12
REMARK   11  A    between atoms: C_17  and  O_18
REMARK   12  A    between atoms: O_18  and  C_19
REMARK   13  A    between atoms: C_23  and  O_26
REMARK   14  A    between atoms: O_26  and  C_27
REMARK   15  A    between atoms: C_28  and  C_29
REMARK   16  A    between atoms: C_30  and  C_31
REMARK   17  A    between atoms: C_31  and  C_33
REMARK   18  A    between atoms: C_31  and  O_34
REMARK                            x       y       z     vdW  Elec       q    Type
REMARK                         _______ _______ _______ _____ _____    ______ ____
ROOT
ATOM      1  C   UNL     1       1.441  -4.044  -2.507  0.00  0.00    +0.021 A 
ATOM      2  C   UNL     1       1.970  -5.121  -1.790  0.00  0.00    +0.068 A 
ATOM      3  N   UNL     1       1.198  -6.161  -1.975  0.00  0.00    -0.168 NA
ATOM      4  N   UNL     1       0.145  -5.786  -2.820  0.00  0.00    -0.200 N 
ATOM      5  C   UNL     1       0.312  -4.473  -3.132  0.00  0.00    +0.225 A 
ENDROOT
BRANCH   4   6
ATOM      6  C   UNL     1      -0.897  -6.615  -3.261  0.00  0.00    +0.069 A 
ATOM      7  C   UNL     1      -2.196  -6.128  -3.315  0.00  0.00    +0.031 A 
ATOM      8  C   UNL     1      -3.222  -6.944  -3.750  0.00  0.00    +0.048 A 
ATOM      9  C   UNL     1      -2.954  -8.250  -4.132  0.00  0.00    +0.120 A 
ATOM     10  C   UNL     1      -1.656  -8.737  -4.078  0.00  0.00    +0.048 A 
ATOM     11  C   UNL     1      -0.629  -7.920  -3.649  0.00  0.00    +0.031 A 
BRANCH   9  12
ATOM     12  O   UNL     1      -3.964  -9.054  -4.559  0.00  0.00    -0.495 OA
ATOM     13  C   UNL     1      -3.617 -10.387  -4.938  0.00  0.00    +0.277 C 
ENDBRANCH   9  12
ENDBRANCH   4   6
BRANCH   2  14
ATOM     14  C   UNL     1       3.218  -5.090  -0.946  0.00  0.00    +0.054 C 
ATOM     15  C   UNL     1       2.837  -4.873   0.520  0.00  0.00    +0.010 C 
ENDBRANCH   2  14
BRANCH   1  16
ATOM     16  C   UNL     1       2.016  -2.653  -2.571  0.00  0.00    -0.036 C 
BRANCH  16  17
ATOM     17  N   UNL     1       1.201  -1.747  -1.751  0.00  0.00    +0.384 N 
ATOM     18  H   UNL     1       0.241  -1.786  -2.060  0.00  0.00    -0.081 HD
BRANCH  17  19
ATOM     19  C   UNL     1       1.279  -2.158  -0.343  0.00  0.00    -0.079 C 
BRANCH  19  21
ATOM     20  C   UNL     1       0.401  -1.734   1.958  0.00  0.00    +0.002 C 
ATOM     21  C   UNL     1       0.319  -1.306   0.491  0.00  0.00    -0.022 C 
ENDBRANCH  19  21
ENDBRANCH  17  19
BRANCH  17  22
ATOM     22  C   UNL     1       1.704  -0.374  -1.890  0.00  0.00    -0.047 C 
BRANCH  22  23
ATOM     23  C   UNL     1       1.483   0.108  -3.325  0.00  0.00    +0.095 C 
ATOM     24  C   UNL     1       2.035   1.527  -3.477  0.00  0.00    +0.035 C 
BRANCH  23  25
ATOM     25  O   UNL     1       0.084   0.106  -3.618  0.00  0.00    -0.394 OA
ATOM     26  H   UNL     1      -0.130   0.401  -4.513  0.00  0.00    +0.210 HD
ENDBRANCH  23  25
ENDBRANCH  22  23
ENDBRANCH  17  22
ENDBRANCH  16  17
ENDBRANCH   1  16
BRANCH   5  27
ATOM     27  O   UNL     1      -0.499  -3.727  -3.925  0.00  0.00    -0.434 OA
BRANCH  27  28
ATOM     28  C   UNL     1      -0.295  -3.772  -5.269  0.00  0.00    +0.172 A 
ATOM     29  C   UNL     1       0.645  -4.641  -5.800  0.00  0.00    +0.050 A 
ATOM     30  C   UNL     1       0.851  -4.686  -7.166  0.00  0.00    +0.004 A 
ATOM     31  C   UNL     1       0.121  -3.866  -8.006  0.00  0.00    +0.004 A 
ATOM     32  C   UNL     1      -0.819  -2.997  -7.483  0.00  0.00    +0.049 A 
ATOM     33  C   UNL     1      -1.035  -2.951  -6.115  0.00  0.00    +0.162 A 
BRANCH  33  34
ATOM     34  O   UNL     1      -1.963  -2.101  -5.599  0.00  0.00    -0.491 OA
ATOM     35  C   UNL     1      -2.684  -1.288  -6.527  0.00  0.00    +0.277 C 
ENDBRANCH  33  34
ENDBRANCH  27  28
ENDBRANCH   5  27
TORSDOF 13
