REMARK  Name = ZINC39755333
REMARK  10 active torsions:
REMARK  status: ('A' for Active; 'I' for Inactive)
REMARK    1  A    between atoms: C_1  and  C_2
REMARK    2  A    between atoms: C_10  and  C_11
REMARK    3  A    between atoms: C_14  and  S_20
REMARK    4  A    between atoms: N_15  and  C_16
REMARK    5  A    between atoms: C_16  and  C_17
REMARK    6  A    between atoms: C_17  and  C_18
REMARK    7  A    between atoms: C_17  and  C_19
REMARK    8  A    between atoms: S_20  and  C_21
REMARK    9  A    between atoms: C_21  and  C_22
REMARK   10  A    between atoms: N_24  and  C_25
REMARK                            x       y       z     vdW  Elec       q    Type
REMARK                         _______ _______ _______ _____ _____    ______ ____
ROOT
ATOM      1  C   UNL     1       0.080  -0.382   2.485  0.00  0.00    +0.201 A 
ATOM      2  N   UNL     1       0.061   0.862   2.910  0.00  0.00    -0.125 NA
ATOM      3  N   UNL     1       0.067   0.886   4.195  0.00  0.00    -0.122 NA
ATOM      4  C   UNL     1       0.089  -0.340   4.670  0.00  0.00    +0.192 A 
ATOM      5  N   UNL     1       0.093  -1.190   3.601  0.00  0.00    -0.299 N 
ENDROOT
BRANCH   1  15
ATOM      6  C   UNL     1       0.049   1.501   0.010  0.00  0.00    +0.048 C 
ATOM      7  C   UNL     1       0.068  -0.006   0.002  0.00  0.00    +0.006 A 
ATOM      8  C   UNL     1       0.081  -0.880  -1.172  0.00  0.00    +0.024 A 
ATOM      9  C   UNL     1       0.082  -0.657  -2.551  0.00  0.00    +0.012 A 
ATOM     10  C   UNL     1       0.098  -1.722  -3.409  0.00  0.00    +0.001 A 
ATOM     11  C   UNL     1       0.112  -3.020  -2.917  0.00  0.00    +0.004 A 
ATOM     12  C   UNL     1       0.111  -3.259  -1.559  0.00  0.00    +0.047 A 
ATOM     13  C   UNL     1       0.096  -2.193  -0.669  0.00  0.00    +0.136 A 
ATOM     14  O   UNL     1       0.091  -2.114   0.677  0.00  0.00    -0.451 OA
ATOM     15  C   UNL     1       0.081  -0.828   1.083  0.00  0.00    +0.176 A 
ENDBRANCH   1  15
BRANCH   5  16
ATOM     16  C   UNL     1       0.111  -2.654   3.634  0.00  0.00    +0.129 C 
BRANCH  16  17
ATOM     17  C   UNL     1       1.559  -3.147   3.641  0.00  0.00    +0.003 C 
ATOM     18  C   UNL     1       2.242  -2.704   4.937  0.00  0.00    +0.009 C 
ATOM     19  C   UNL     1       1.579  -4.674   3.550  0.00  0.00    +0.009 C 
ENDBRANCH  16  17
ENDBRANCH   5  16
BRANCH   4  20
ATOM     20  S   UNL     1       0.106  -0.801   6.371  0.00  0.00    -0.077 S 
BRANCH  20  21
ATOM     21  C   UNL     1       0.083   0.783   7.255  0.00  0.00    +0.173 C 
BRANCH  21  22
ATOM     22  C   UNL     1       0.095   0.529   8.740  0.00  0.00    +0.228 C 
ATOM     23  O   UNL     1       0.116  -0.608   9.161  0.00  0.00    -0.275 OA
ATOM     24  N   UNL     1       0.082   1.566   9.601  0.00  0.00    -0.284 N 
ATOM     25  H   UNL     1       0.131   2.475   9.266  0.00  0.00    +0.155 HD
BRANCH  24  26
ATOM     26  C   UNL     1      -0.003   1.332  10.975  0.00  0.00    +0.041 A 
ATOM     27  C   UNL     1       0.609   0.230  11.531  0.00  0.00    +0.024 A 
ATOM     28  C   UNL     1       0.531  -0.013  12.899  0.00  0.00    +0.002 A 
ATOM     29  C   UNL     1      -0.150   0.829  13.725  0.00  0.00    +0.008 A 
ATOM     30  C   UNL     1      -0.787   1.965  13.198  0.00  0.00    -0.016 A 
ATOM     31  C   UNL     1      -0.711   2.225  11.807  0.00  0.00    +0.003 A 
ATOM     32  C   UNL     1      -1.345   3.362  11.283  0.00  0.00    +0.010 A 
ATOM     33  C   UNL     1      -2.020   4.202  12.115  0.00  0.00    +0.001 A 
ATOM     34  C   UNL     1      -2.091   3.950  13.484  0.00  0.00    +0.001 A 
ATOM     35  C   UNL     1      -1.498   2.851  14.026  0.00  0.00    +0.008 A 
ENDBRANCH  24  26
ENDBRANCH  21  22
ENDBRANCH  20  21
ENDBRANCH   4  20
TORSDOF 7
