REMARK  Name = ZINC23038641
REMARK  8 active torsions:
REMARK  status: ('A' for Active; 'I' for Inactive)
REMARK    1  A    between atoms: C_1  and  C_2
REMARK    2  A    between atoms: C_2  and  C_3
REMARK    3  A    between atoms: C_9  and  C_13
REMARK    4  A    between atoms: C_13  and  N_14
REMARK    5  A    between atoms: N_14  and  C_15
REMARK    6  A    between atoms: N_14  and  C_16
REMARK    7  A    between atoms: C_16  and  C_17
REMARK    8  A    between atoms: N_19  and  C_20
REMARK                            x       y       z     vdW  Elec       q    Type
REMARK                         _______ _______ _______ _____ _____    ______ ____
ROOT
ATOM      1  N   UNL     1       1.265  -4.609  -1.296  0.00  0.00    +0.387 N 
ATOM      2  C   UNL     1       2.617  -4.041  -1.383  0.00  0.00    -0.095 C 
ATOM      3  H   UNL     1       0.671  -4.197  -2.124  0.00  0.00    -0.081 HD
ENDROOT
BRANCH   1   4
ATOM      4  C   UNL     1       0.612  -4.223  -0.037  0.00  0.00    -0.022 C 
BRANCH   4  11
ATOM      5  C   UNL     1       1.051   2.083  -0.003  0.00  0.00    +0.102 A 
ATOM      6  N   UNL     1      -0.045   1.387  -0.005  0.00  0.00    -0.159 NA
ATOM      7  N   UNL     1      -0.026  -0.005  -0.013  0.00  0.00    -0.171 N 
ATOM      8  C   UNL     1      -1.102  -0.846  -0.016  0.00  0.00    +0.275 A 
ATOM      9  O   UNL     1      -2.235  -0.390  -0.012  0.00  0.00    -0.266 OA
ATOM     10  C   UNL     1      -0.904  -2.227  -0.024  0.00  0.00    +0.093 A 
ATOM     11  C   UNL     1       0.377  -2.735  -0.029  0.00  0.00    +0.033 A 
ATOM     12  N   UNL     1       1.403  -1.887  -0.025  0.00  0.00    -0.228 NA
ATOM     13  C   UNL     1       1.209  -0.593  -0.018  0.00  0.00    +0.199 A 
ATOM     14  S   UNL     1       2.303   0.811  -0.011  0.00  0.00    -0.033 S 
BRANCH   5  16
ATOM     15  C   UNL     1      -0.154   4.251   0.009  0.00  0.00    +0.011 C 
ATOM     16  C   UNL     1       1.221   3.581   0.004  0.00  0.00    +0.061 C 
ENDBRANCH   5  16
ENDBRANCH   4  11
ENDBRANCH   1   4
BRANCH   1  17
ATOM     17  C   UNL     1       1.297  -6.070  -1.446  0.00  0.00    +0.019 C 
BRANCH  17  18
ATOM     18  C   UNL     1       1.744  -6.422  -2.841  0.00  0.00    +0.201 C 
ATOM     19  O   UNL     1       2.010  -5.542  -3.633  0.00  0.00    -0.278 OA
ATOM     20  N   UNL     1       1.848  -7.714  -3.210  0.00  0.00    -0.286 N 
ATOM     21  H   UNL     1       1.696  -8.511  -2.468  0.00  0.00    +0.155 HD
BRANCH  20  22
ATOM     22  C   UNL     1       2.151  -8.041  -4.537  0.00  0.00    +0.047 A 
ATOM     23  C   UNL     1       1.847  -7.151  -5.559  0.00  0.00    +0.024 A 
ATOM     24  C   UNL     1       2.151  -7.475  -6.867  0.00  0.00    +0.002 A 
ATOM     25  C   UNL     1       2.748  -8.688  -7.161  0.00  0.00    +0.001 A 
ATOM     26  C   UNL     1       3.047  -9.578  -6.146  0.00  0.00    +0.017 A 
ATOM     27  C   UNL     1       2.750  -9.258  -4.835  0.00  0.00    +0.039 A 
ATOM     28 BR   UNL     1       3.158 -10.477  -3.447  0.00  0.00    -0.048 Br
ENDBRANCH  20  22
ENDBRANCH  17  18
ENDBRANCH   1  17
TORSDOF 6
