REMARK  Name = ZINC00728393
REMARK  10 active torsions:
REMARK  status: ('A' for Active; 'I' for Inactive)
REMARK    1  A    between atoms: C_1  and  C_2
REMARK    2  A    between atoms: C_2  and  O_3
REMARK    3  A    between atoms: O_3  and  C_4
REMARK    4  A    between atoms: C_4  and  C_6
REMARK    5  A    between atoms: C_7  and  C_34
REMARK    6  A    between atoms: C_14  and  C_15
REMARK    7  A    between atoms: C_18  and  O_23
REMARK    8  A    between atoms: C_19  and  O_21
REMARK    9  A    between atoms: O_21  and  C_22
REMARK   10  A    between atoms: C_25  and  C_27
REMARK                            x       y       z     vdW  Elec       q    Type
REMARK                         _______ _______ _______ _____ _____    ______ ____
ROOT
ATOM      1  C   UNL     1      -7.240   1.016   0.598  0.00  0.00    +0.085 C 
ATOM      2  C   UNL     1      -6.750   2.291   0.555  0.00  0.00    +0.053 C 
ATOM      3  N   UNL     1      -5.447   2.509   0.430  0.00  0.00    -0.228 NA
ATOM      4  C   UNL     1      -4.538   1.572   0.338  0.00  0.00    +0.178 A 
ATOM      5  N   UNL     1      -4.816   0.224   0.360  0.00  0.00    -0.275 N 
ATOM      6  C   UNL     1      -3.801  -0.643   0.253  0.00  0.00    +0.268 A 
ATOM      7  O   UNL     1      -3.999  -1.844   0.262  0.00  0.00    -0.266 OA
ATOM      8  C   UNL     1      -2.441  -0.101   0.128  0.00  0.00    +0.081 A 
ATOM      9  C   UNL     1      -1.258  -0.758   0.011  0.00  0.00    +0.028 C 
ATOM     10  S   UNL     1      -2.766   1.655   0.166  0.00  0.00    -0.046 S 
ATOM     11  C   UNL     1      -6.257  -0.128   0.499  0.00  0.00    +0.162 C 
ATOM     12  C   UNL     1      -7.697   3.459   0.651  0.00  0.00    +0.066 C 
ENDROOT
BRANCH  11  13
ATOM     13  C   UNL     1      -6.410  -0.979   1.733  0.00  0.00    -0.020 A 
ATOM     14  C   UNL     1      -5.810  -0.592   2.917  0.00  0.00    +0.007 A 
ATOM     15  C   UNL     1      -5.955  -1.369   4.051  0.00  0.00    +0.020 A 
ATOM     16  C   UNL     1      -6.690  -2.540   3.998  0.00  0.00    +0.041 A 
ATOM     17  C   UNL     1      -7.285  -2.929   2.811  0.00  0.00    +0.020 A 
ATOM     18  C   UNL     1      -7.145  -2.148   1.680  0.00  0.00    +0.007 A 
ATOM     19 CL   UNL     1      -6.866  -3.520   5.420  0.00  0.00    -0.084 Cl
ENDBRANCH  11  13
BRANCH   9  20
ATOM     20  C   UNL     1      -0.028  -0.008  -0.274  0.00  0.00    -0.020 A 
ATOM     21  C   UNL     1      -0.101   1.300  -0.767  0.00  0.00    +0.012 A 
ATOM     22  C   UNL     1       1.055   2.001  -1.033  0.00  0.00    +0.050 A 
ATOM     23  C   UNL     1       2.294   1.413  -0.814  0.00  0.00    +0.158 A 
ATOM     24  C   UNL     1       2.375   0.110  -0.323  0.00  0.00    +0.162 A 
ATOM     25  C   UNL     1       1.222  -0.600  -0.053  0.00  0.00    +0.057 A 
BRANCH  24  26
ATOM     26  O   UNL     1       3.591  -0.461  -0.110  0.00  0.00    -0.491 OA
ATOM     27  C   UNL     1       3.600  -1.798   0.393  0.00  0.00    +0.277 C 
ENDBRANCH  24  26
BRANCH  23  28
ATOM     28  O   UNL     1       3.430   2.109  -1.078  0.00  0.00    -0.503 OA
ATOM     29  H   UNL     1       3.758   1.999  -1.981  0.00  0.00    +0.292 HD
ENDBRANCH  23  28
ENDBRANCH   9  20
BRANCH   1  30
ATOM     30  C   UNL     1      -8.617   0.775   0.731  0.00  0.00    +0.339 C 
ATOM     31  O   UNL     1      -9.394   1.710   0.810  0.00  0.00    -0.245 OA
BRANCH  30  32
ATOM     32  O   UNL     1      -9.081  -0.493   0.772  0.00  0.00    -0.462 OA
BRANCH  32  34
ATOM     33  C   UNL     1     -10.826  -2.157   0.935  0.00  0.00    +0.048 C 
ATOM     34  C   UNL     1     -10.493  -0.664   0.908  0.00  0.00    +0.229 C 
ENDBRANCH  32  34
ENDBRANCH  30  32
ENDBRANCH   1  30
TORSDOF 7
