REMARK  Name = ZINC35742741
REMARK  10 active torsions:
REMARK  status: ('A' for Active; 'I' for Inactive)
REMARK    1  A    between atoms: C_4  and  C_7
REMARK    2  A    between atoms: C_7  and  N_8
REMARK    3  A    between atoms: N_8  and  C_9
REMARK    4  A    between atoms: N_8  and  C_19
REMARK    5  A    between atoms: C_9  and  C_10
REMARK    6  A    between atoms: C_19  and  C_20
REMARK    7  A    between atoms: C_23  and  C_25
REMARK    8  A    between atoms: C_25  and  C_26
REMARK    9  A    between atoms: C_25  and  C_32
REMARK   10  A    between atoms: C_25  and  O_38
REMARK                            x       y       z     vdW  Elec       q    Type
REMARK                         _______ _______ _______ _____ _____    ______ ____
ROOT
ATOM      1  C   UNL     1       5.584  -0.015   2.134  0.00  0.00    -0.002 C 
ENDROOT
BRANCH   1   2
ATOM      2  C   UNL     1       6.509   0.698   1.182  0.00  0.00    +0.089 A 
ATOM      3  C   UNL     1       7.314   1.730   1.492  0.00  0.00    +0.043 A 
ATOM      4  C   UNL     1       8.000   2.085   0.308  0.00  0.00    +0.048 A 
ATOM      5  C   UNL     1       7.573   1.248  -0.655  0.00  0.00    +0.146 A 
ATOM      6  O   UNL     1       6.674   0.407  -0.119  0.00  0.00    -0.463 OA
BRANCH   5   7
ATOM      7  C   UNL     1       8.030   1.252  -2.091  0.00  0.00    +0.174 C 
BRANCH   7   8
ATOM      8  C   UNL     1       7.952  -0.147  -2.647  0.00  0.00    -0.004 A 
ATOM      9  C   UNL     1       9.105  -0.799  -3.041  0.00  0.00    +0.007 A 
ATOM     10  C   UNL     1       9.033  -2.083  -3.550  0.00  0.00    +0.000 A 
ATOM     11  C   UNL     1       7.809  -2.713  -3.665  0.00  0.00    +0.000 A 
ATOM     12  C   UNL     1       6.655  -2.061  -3.270  0.00  0.00    +0.000 A 
ATOM     13  C   UNL     1       6.727  -0.780  -2.757  0.00  0.00    +0.007 A 
ENDBRANCH   7   8
BRANCH   7  14
ATOM     14  C   UNL     1       7.141   2.163  -2.899  0.00  0.00    -0.004 A 
ATOM     15  C   UNL     1       5.776   2.170  -2.680  0.00  0.00    +0.007 A 
ATOM     16  C   UNL     1       4.962   3.005  -3.420  0.00  0.00    +0.000 A 
ATOM     17  C   UNL     1       5.512   3.835  -4.380  0.00  0.00    +0.000 A 
ATOM     18  C   UNL     1       6.877   3.829  -4.598  0.00  0.00    +0.000 A 
ATOM     19  C   UNL     1       7.692   2.996  -3.854  0.00  0.00    +0.007 A 
ENDBRANCH   7  14
BRANCH   7  20
ATOM     20  O   UNL     1       9.379   1.718  -2.161  0.00  0.00    -0.372 OA
ATOM     21  H   UNL     1      10.007   1.177  -1.663  0.00  0.00    +0.212 HD
ENDBRANCH   7  20
ENDBRANCH   5   7
ENDBRANCH   1   2
BRANCH   1  22
ATOM     22  N   UNL     1       4.267   0.636   2.117  0.00  0.00    +0.390 N 
ATOM     23  H   UNL     1       4.375   1.619   2.321  0.00  0.00    -0.080 HD
BRANCH  22  24
ATOM     24  C   UNL     1       3.658   0.476   0.790  0.00  0.00    -0.042 C 
BRANCH  24  28
ATOM     25  C   UNL     1       0.016   2.701   0.614  0.00  0.00    +0.000 A 
ATOM     26  C   UNL     1       1.224   3.333   0.384  0.00  0.00    +0.000 A 
ATOM     27  C   UNL     1       2.403   2.613   0.441  0.00  0.00    +0.002 A 
ATOM     28  C   UNL     1       2.373   1.261   0.729  0.00  0.00    -0.064 A 
ATOM     29  C   UNL     1       1.166   0.630   0.960  0.00  0.00    +0.002 A 
ATOM     30  C   UNL     1      -0.013   1.350   0.902  0.00  0.00    +0.000 A 
ENDBRANCH  24  28
ENDBRANCH  22  24
BRANCH  22  31
ATOM     31  C   UNL     1       3.402   0.018   3.131  0.00  0.00    -0.042 C 
BRANCH  31  32
ATOM     32  C   UNL     1       3.953   0.304   4.504  0.00  0.00    -0.060 A 
ATOM     33  C   UNL     1       4.766  -0.624   5.128  0.00  0.00    +0.005 A 
ATOM     34  C   UNL     1       5.275  -0.366   6.387  0.00  0.00    +0.050 A 
ATOM     35  C   UNL     1       4.970   0.824   7.027  0.00  0.00    +0.166 A 
ATOM     36  C   UNL     1       4.151   1.759   6.399  0.00  0.00    +0.166 A 
ATOM     37  C   UNL     1       3.650   1.496   5.135  0.00  0.00    +0.051 A 
ATOM     38  O   UNL     1       4.002   2.835   7.226  0.00  0.00    -0.453 OA
ATOM     39  C   UNL     1       4.403   2.375   8.531  0.00  0.00    +0.466 C 
ATOM     40  O   UNL     1       5.335   1.314   8.248  0.00  0.00    -0.453 OA
ENDBRANCH  31  32
ENDBRANCH  22  31
ENDBRANCH   1  22
TORSDOF 10
