REMARK  Name = ZINC33747196
REMARK  13 active torsions:
REMARK  status: ('A' for Active; 'I' for Inactive)
REMARK    1  A    between atoms: C_1  and  C_2
REMARK    2  A    between atoms: C_2  and  C_3
REMARK    3  A    between atoms: C_3  and  C_4
REMARK    4  A    between atoms: C_4  and  C_5
REMARK    5  A    between atoms: C_5  and  C_7
REMARK    6  A    between atoms: C_5  and  C_9
REMARK    7  A    between atoms: C_7  and  C_8
REMARK    8  A    between atoms: C_18  and  C_26
REMARK    9  A    between atoms: C_19  and  C_24
REMARK   10  A    between atoms: C_21  and  C_23
REMARK   11  A    between atoms: C_24  and  C_25
REMARK   12  A    between atoms: C_26  and  C_27
REMARK   13  A    between atoms: C_30  and  C_33
REMARK                            x       y       z     vdW  Elec       q    Type
REMARK                         _______ _______ _______ _____ _____    ______ ____
ROOT
ATOM      1  C   UNL     1       0.267   1.203  -1.064  0.00  0.00    +0.219 C 
ATOM      2  O   UNL     1      -0.649   1.669  -1.708  0.00  0.00    -0.275 OA
ATOM      3  N   UNL     1       0.933   1.976  -0.183  0.00  0.00    -0.298 N 
ATOM      4  C   UNL     1       0.646   3.414  -0.073  0.00  0.00    +0.126 C 
ATOM      5  C   UNL     1       0.395   3.743   1.407  0.00  0.00    +0.125 C 
ATOM      6  N   UNL     1       1.534   3.275   2.208  0.00  0.00    -0.312 N 
ATOM      7  C   UNL     1       1.671   1.814   2.135  0.00  0.00    +0.125 C 
ATOM      8  C   UNL     1       1.970   1.404   0.689  0.00  0.00    +0.126 C 
ATOM      9  C   UNL     1       1.423   3.698   3.522  0.00  0.00    +0.128 A 
ATOM     10  C   UNL     1       1.929   4.940   3.913  0.00  0.00    +0.016 A 
ATOM     11  C   UNL     1       1.794   5.316   5.234  0.00  0.00    +0.024 A 
ATOM     12  N   UNL     1       1.195   4.493   6.083  0.00  0.00    -0.347 N 
ATOM     13  C   UNL     1       0.729   3.327   5.684  0.00  0.00    +0.106 A 
ATOM     14  N   UNL     1       0.830   2.930   4.432  0.00  0.00    -0.219 NA
ATOM     15  C   UNL     1       0.056   2.425   6.686  0.00  0.00    +0.086 C 
ATOM     16  H   UNL     1       1.081   4.779   7.139  0.00  0.00    +0.167 HD
ENDROOT
BRANCH  11  17
ATOM     17  C   UNL     1       2.322   6.646   5.706  0.00  0.00    +0.050 C 
ATOM     18  C   UNL     1       1.209   7.693   5.631  0.00  0.00    +0.010 C 
ENDBRANCH  11  17
BRANCH   1  19
ATOM     19  C   UNL     1       0.655  -0.242  -1.242  0.00  0.00    +0.075 C 
BRANCH  19  20
ATOM     20  C   UNL     1       1.831  -0.338  -2.216  0.00  0.00    +0.009 C 
ATOM     21  C   UNL     1       3.046   0.375  -1.620  0.00  0.00    +0.004 C 
ENDBRANCH  19  20
BRANCH  19  22
ATOM     22  C   UNL     1      -0.535  -1.025  -1.802  0.00  0.00    +0.013 C 
BRANCH  22  23
ATOM     23  C   UNL     1      -0.182  -2.512  -1.867  0.00  0.00    +0.000 C 
BRANCH  23  25
ATOM     24  C   UNL     1      -1.020  -4.782  -2.491  0.00  0.00    +0.004 C 
ATOM     25  C   UNL     1      -1.372  -3.295  -2.426  0.00  0.00    -0.003 C 
ENDBRANCH  23  25
ENDBRANCH  22  23
ENDBRANCH  19  22
ENDBRANCH   1  19
BRANCH  10  26
ATOM     26  C   UNL     1       2.604   5.847   2.916  0.00  0.00    +0.075 C 
BRANCH  26  27
ATOM     27  C   UNL     1       4.051   5.449   2.775  0.00  0.00    -0.043 A 
ATOM     28  C   UNL     1       5.018   6.074   3.539  0.00  0.00    +0.004 A 
ATOM     29  C   UNL     1       6.344   5.707   3.412  0.00  0.00    +0.003 A 
ATOM     30  C   UNL     1       6.705   4.719   2.514  0.00  0.00    -0.050 A 
ATOM     31  C   UNL     1       5.738   4.097   1.747  0.00  0.00    +0.003 A 
ATOM     32  C   UNL     1       4.411   4.462   1.877  0.00  0.00    +0.004 A 
ATOM     33  C   UNL     1       8.151   4.321   2.373  0.00  0.00    +0.044 C 
ENDBRANCH  26  27
ENDBRANCH  10  26
TORSDOF 8
