REMARK  Name = ZINC36372216
REMARK  15 active torsions:
REMARK  status: ('A' for Active; 'I' for Inactive)
REMARK    1  A    between atoms: C_1  and  C_2
REMARK    2  A    between atoms: C_2  and  O_4
REMARK    3  A    between atoms: O_4  and  C_5
REMARK    4  A    between atoms: C_5  and  C_6
REMARK    5  A    between atoms: C_7  and  O_43
REMARK    6  A    between atoms: C_10  and  O_39
REMARK    7  A    between atoms: C_13  and  O_38
REMARK    8  A    between atoms: C_20  and  O_34
REMARK    9  A    between atoms: C_23  and  C_33
REMARK   10  A    between atoms: C_24  and  O_32
REMARK   11  A    between atoms: C_27  and  C_29
REMARK   12  A    between atoms: O_34  and  C_35
REMARK   13  A    between atoms: C_35  and  C_37
REMARK   14  A    between atoms: O_39  and  C_40
REMARK   15  A    between atoms: C_40  and  C_42
REMARK                            x       y       z     vdW  Elec       q    Type
REMARK                         _______ _______ _______ _____ _____    ______ ____
ROOT
ATOM      1  C   UNL     1      -0.067  -2.996  -1.248  0.00  0.00    +0.066 C 
ATOM      2  C   UNL     1      -1.441  -2.536  -1.717  0.00  0.00    +0.131 C 
ATOM      3  C   UNL     1      -1.677  -1.071  -1.349  0.00  0.00    +0.076 C 
ATOM      4  C   UNL     1      -0.604  -0.180  -1.963  0.00  0.00    +0.182 C 
ATOM      5  C   UNL     1       0.791  -0.647  -1.579  0.00  0.00    +0.080 C 
ATOM      6  C   UNL     1       1.024  -2.123  -1.888  0.00  0.00    +0.081 C 
ATOM      7  C   UNL     1       1.125  -2.327  -3.395  0.00  0.00    +0.036 C 
ATOM      8  C   UNL     1       1.376  -3.811  -3.717  0.00  0.00    +0.009 C 
ATOM      9  C   UNL     1       0.191  -4.576  -3.149  0.00  0.00    +0.029 C 
ATOM     10  C   UNL     1       0.196  -4.451  -1.618  0.00  0.00    +0.050 C 
ATOM     11  C   UNL     1      -0.762  -5.487  -1.060  0.00  0.00    +0.181 C 
ATOM     12  C   UNL     1      -0.161  -6.903  -1.242  0.00  0.00    +0.055 C 
ATOM     13  C   UNL     1       0.605  -6.992  -2.533  0.00  0.00    +0.013 C 
ATOM     14  C   UNL     1       0.058  -6.004  -3.582  0.00  0.00    +0.076 C 
ATOM     15  C   UNL     1       0.843  -6.409  -4.842  0.00  0.00    +0.036 C 
ATOM     16  C   UNL     1       0.867  -7.958  -4.760  0.00  0.00    +0.018 C 
ATOM     17  C   UNL     1       0.572  -8.331  -3.284  0.00  0.00    +0.111 C 
ATOM     18  C   UNL     1       2.099  -6.726  -2.254  0.00  0.00    +0.015 C 
ENDROOT
BRANCH  17  19
ATOM     19  C   UNL     1      -0.741  -9.043  -3.174  0.00  0.00    +0.360 C 
ATOM     20  O   UNL     1      -1.616  -8.840  -3.999  0.00  0.00    -0.246 OA
ATOM     21  O   UNL     1      -0.934  -9.827  -2.261  0.00  0.00    -0.246 OA
ENDBRANCH  17  19
BRANCH  14  22
ATOM     22  O   UNL     1      -1.339  -6.270  -3.829  0.00  0.00    -0.388 OA
ATOM     23  H   UNL     1      -1.733  -5.706  -4.508  0.00  0.00    +0.210 HD
ENDBRANCH  14  22
BRANCH   6  24
ATOM     24  O   UNL     1       2.284  -2.501  -1.300  0.00  0.00    -0.388 OA
ATOM     25  H   UNL     1       3.041  -2.004  -1.640  0.00  0.00    +0.210 HD
ENDBRANCH   6  24
BRANCH   2  26
ATOM     26  O   UNL     1      -2.462  -3.327  -1.098  0.00  0.00    -0.391 OA
ATOM     27  H   UNL     1      -3.361  -3.082  -1.358  0.00  0.00    +0.210 HD
ENDBRANCH   2  26
BRANCH   1  28
ATOM     28  C   UNL     1       0.053  -2.821   0.275  0.00  0.00    +0.244 C 
BRANCH  28  29
ATOM     29  O   UNL     1       1.295  -3.369   0.721  0.00  0.00    -0.464 OA
BRANCH  29  31
ATOM     30  C   UNL     1       2.846  -3.853   2.579  0.00  0.00    +0.136 C 
ATOM     31  C   UNL     1       1.556  -3.296   2.035  0.00  0.00    +0.304 C 
ATOM     32  O   UNL     1       0.757  -2.783   2.782  0.00  0.00    -0.251 OA
ENDBRANCH  29  31
ENDBRANCH  28  29
ENDBRANCH   1  28
BRANCH  11  33
ATOM     33  O   UNL     1      -1.039  -5.306   0.326  0.00  0.00    -0.461 OA
BRANCH  33  34
ATOM     34  C   UNL     1      -2.245  -5.701   0.764  0.00  0.00    +0.304 C 
ATOM     35  O   UNL     1      -3.039  -6.186  -0.008  0.00  0.00    -0.251 OA
ATOM     36  C   UNL     1      -2.610  -5.540   2.217  0.00  0.00    +0.136 C 
ENDBRANCH  33  34
ENDBRANCH  11  33
BRANCH   4  37
ATOM     37  O   UNL     1      -0.753  -0.132  -3.381  0.00  0.00    -0.461 OA
BRANCH  37  38
ATOM     38  C   UNL     1      -1.541   0.835  -3.879  0.00  0.00    +0.304 C 
ATOM     39  O   UNL     1      -2.085   1.614  -3.133  0.00  0.00    -0.251 OA
ATOM     40  C   UNL     1      -1.746   0.948  -5.367  0.00  0.00    +0.136 C 
ENDBRANCH  37  38
ENDBRANCH   4  37
TORSDOF 11
