REMARK  Name = ZINC63237043
REMARK  11 active torsions:
REMARK  status: ('A' for Active; 'I' for Inactive)
REMARK    1  A    between atoms: C_1  and  C_2
REMARK    2  A    between atoms: C_5  and  C_8
REMARK    3  A    between atoms: C_8  and  N_9
REMARK    4  A    between atoms: C_11  and  C_16
REMARK    5  A    between atoms: N_18  and  C_19
REMARK    6  A    between atoms: C_19  and  C_20
REMARK    7  A    between atoms: C_20  and  C_22
REMARK    8  A    between atoms: C_20  and  C_31
REMARK    9  A    between atoms: C_25  and  N_28
REMARK   10  A    between atoms: N_28  and  C_29
REMARK   11  A    between atoms: N_28  and  C_30
REMARK                            x       y       z     vdW  Elec       q    Type
REMARK                         _______ _______ _______ _____ _____    ______ ____
ROOT
ATOM      1  C   UNL     1       7.992  -7.286  -1.595  0.00  0.00    +0.064 C 
ENDROOT
BRANCH   1   2
ATOM      2  C   UNL     1       8.044  -7.745  -0.161  0.00  0.00    -0.033 C 
ATOM      3  C   UNL     1       8.519  -7.052   0.899  0.00  0.00    -0.000 A 
ATOM      4  C   UNL     1       9.108  -5.714   1.028  0.00  0.00    +0.010 A 
ATOM      5  C   UNL     1       9.500  -5.285   2.249  0.00  0.00    +0.001 A 
ATOM      6  C   UNL     1       9.358  -6.084   3.392  0.00  0.00    +0.002 A 
ATOM      7  C   UNL     1       8.826  -7.324   3.353  0.00  0.00    +0.026 A 
ATOM      8  C   UNL     1       8.379  -7.876   2.121  0.00  0.00    +0.043 A 
ATOM      9  N   UNL     1       7.839  -9.034   1.828  0.00  0.00    -0.380 N 
ATOM     10  C   UNL     1       7.569  -9.073   0.386  0.00  0.00    +0.145 C 
ATOM     11  H   UNL     1       7.646  -9.745   2.459  0.00  0.00    +0.160 HD
ENDBRANCH   1   2
BRANCH   1  12
ATOM     12  C   UNL     1       8.794  -8.229  -2.454  0.00  0.00    -0.039 A 
ATOM     13  C   UNL     1       8.446  -9.565  -2.522  0.00  0.00    +0.006 A 
ATOM     14  C   UNL     1       9.179 -10.432  -3.309  0.00  0.00    +0.023 A 
ATOM     15  C   UNL     1      10.268  -9.960  -4.031  0.00  0.00    +0.029 A 
ATOM     16  C   UNL     1      10.615  -8.617  -3.960  0.00  0.00    +0.023 A 
ATOM     17  C   UNL     1       9.874  -7.755  -3.176  0.00  0.00    +0.006 A 
BRANCH  15  18
ATOM     18  N   UNL     1      11.012 -10.835  -4.827  0.00  0.00    -0.336 N 
ATOM     19  C   UNL     1      10.644 -12.251  -4.900  0.00  0.00    +0.129 C 
ATOM     20  C   UNL     1      12.159 -10.335  -5.588  0.00  0.00    +0.129 C 
ENDBRANCH  15  18
ENDBRANCH   1  12
BRANCH   1  21
ATOM     21  C   UNL     1       6.539  -7.271  -2.074  0.00  0.00    +0.116 C 
BRANCH  21  24
ATOM     22  C   UNL     1       4.476  -6.076  -1.570  0.00  0.00    +0.218 C 
ATOM     23  O   UNL     1       3.921  -6.735  -2.423  0.00  0.00    -0.275 OA
ATOM     24  N   UNL     1       5.786  -6.267  -1.318  0.00  0.00    -0.314 N 
ATOM     25  H   UNL     1       6.230  -5.740  -0.635  0.00  0.00    +0.149 HD
BRANCH  22  28
ATOM     26  N   UNL     1       1.447  -4.746  -0.032  0.00  0.00    -0.296 N 
ATOM     27  C   UNL     1       2.226  -5.000  -1.249  0.00  0.00    +0.121 C 
ATOM     28  C   UNL     1       3.701  -5.044  -0.792  0.00  0.00    +0.101 C 
ATOM     29  C   UNL     1       3.560  -5.458   0.691  0.00  0.00    +0.110 C 
ATOM     30  C   UNL     1       2.171  -4.995   1.073  0.00  0.00    +0.217 C 
ATOM     31  O   UNL     1       1.770  -4.869   2.210  0.00  0.00    -0.276 OA
BRANCH  26  32
ATOM     32  C   UNL     1       0.059  -4.275  -0.021  0.00  0.00    +0.142 C 
BRANCH  32  37
ATOM     33  C   UNL     1      -0.018   1.503   0.010  0.00  0.00    +0.044 C 
ATOM     34  C   UNL     1       0.002  -0.004   0.002  0.00  0.00    -0.050 A 
ATOM     35  C   UNL     1       0.006  -0.689  -1.199  0.00  0.00    +0.003 A 
ATOM     36  C   UNL     1       0.025  -2.071  -1.206  0.00  0.00    +0.005 A 
ATOM     37  C   UNL     1       0.040  -2.768  -0.013  0.00  0.00    -0.030 A 
ATOM     38  C   UNL     1       0.037  -2.084   1.188  0.00  0.00    +0.005 A 
ATOM     39  C   UNL     1       0.023  -0.702   1.195  0.00  0.00    +0.003 A 
ENDBRANCH  32  37
ENDBRANCH  26  32
ENDBRANCH  22  28
ENDBRANCH  21  24
ENDBRANCH   1  21
TORSDOF 8
