REMARK  Name = ZINC39966857
REMARK  7 active torsions:
REMARK  status: ('A' for Active; 'I' for Inactive)
REMARK    1  A    between atoms: C_10  and  N_11
REMARK    2  A    between atoms: C_12  and  C_14
REMARK    3  A    between atoms: C_14  and  S_15
REMARK    4  A    between atoms: S_15  and  C_16
REMARK    5  A    between atoms: C_19  and  C_28
REMARK    6  A    between atoms: N_20  and  C_21
REMARK    7  A    between atoms: C_21  and  C_22
REMARK                            x       y       z     vdW  Elec       q    Type
REMARK                         _______ _______ _______ _____ _____    ______ ____
ROOT
ATOM      1  C   UNL     1      10.143   0.127   0.275  0.00  0.00    +0.192 A 
ATOM      2  N   UNL     1      10.137   1.425   0.469  0.00  0.00    -0.122 NA
ATOM      3  N   UNL     1      11.339   1.855   0.617  0.00  0.00    -0.128 NA
ATOM      4  C   UNL     1      12.187   0.857   0.526  0.00  0.00    +0.166 A 
ATOM      5  N   UNL     1      11.448  -0.282   0.310  0.00  0.00    -0.300 N 
ENDROOT
BRANCH   4   6
ATOM      6  C   UNL     1      13.659   0.941   0.640  0.00  0.00    +0.030 A 
ATOM      7  C   UNL     1      14.336   0.066   1.438  0.00  0.00    +0.057 A 
ATOM      8  S   UNL     1      16.026   0.596   1.214  0.00  0.00    -0.101 S 
ATOM      9  C   UNL     1      15.717   1.926   0.080  0.00  0.00    -0.006 A 
ATOM     10  C   UNL     1      14.371   1.922  -0.079  0.00  0.00    -0.026 A 
ATOM     11  C   UNL     1      13.658   2.935  -0.972  0.00  0.00    +0.036 C 
ATOM     12  C   UNL     1      14.602   3.416  -2.068  0.00  0.00    +0.005 C 
ATOM     13  C   UNL     1      15.388   4.641  -1.605  0.00  0.00    +0.001 C 
ATOM     14  C   UNL     1      16.266   4.280  -0.411  0.00  0.00    +0.005 C 
ATOM     15  C   UNL     1      16.720   2.829  -0.561  0.00  0.00    +0.043 C 
ENDBRANCH   4   6
BRANCH   1  16
ATOM     16  S   UNL     1       8.732  -0.898   0.023  0.00  0.00    -0.077 S 
BRANCH  16  17
ATOM     17  C   UNL     1       7.334   0.256   0.090  0.00  0.00    +0.173 C 
BRANCH  17  19
ATOM     18  N   UNL     1       4.870   0.153  -0.103  0.00  0.00    -0.284 N 
ATOM     19  C   UNL     1       6.047  -0.502  -0.113  0.00  0.00    +0.228 C 
ATOM     20  O   UNL     1       6.072  -1.703  -0.286  0.00  0.00    -0.275 OA
ATOM     21  H   UNL     1       4.855   1.121  -0.043  0.00  0.00    +0.155 HD
BRANCH  18  31
ATOM     22  C   UNL     1       0.132   1.295  -1.416  0.00  0.00    +0.001 A 
ATOM     23  C   UNL     1       1.316   2.026  -1.346  0.00  0.00    +0.001 A 
ATOM     24  C   UNL     1       2.478   1.440  -0.946  0.00  0.00    +0.010 A 
ATOM     25  C   UNL     1       2.487   0.080  -0.599  0.00  0.00    +0.003 A 
ATOM     26  C   UNL     1       1.284  -0.664  -0.669  0.00  0.00    -0.016 A 
ATOM     27  C   UNL     1       0.103  -0.025  -1.086  0.00  0.00    +0.008 A 
ATOM     28  C   UNL     1       1.291  -2.025  -0.321  0.00  0.00    +0.008 A 
ATOM     29  C   UNL     1       2.450  -2.618   0.080  0.00  0.00    +0.002 A 
ATOM     30  C   UNL     1       3.638  -1.897   0.154  0.00  0.00    +0.024 A 
ATOM     31  C   UNL     1       3.673  -0.560  -0.179  0.00  0.00    +0.041 A 
ENDBRANCH  18  31
ENDBRANCH  17  19
ENDBRANCH  16  17
ENDBRANCH   1  16
BRANCH   5  32
ATOM     32  C   UNL     1      11.952  -1.648   0.147  0.00  0.00    +0.157 C 
BRANCH  32  33
ATOM     33  C   UNL     1      12.108  -1.960  -1.342  0.00  0.00    +0.138 C 
ATOM     34  C   UNL     1      12.524  -3.436  -1.527  0.00  0.00    +0.035 C 
ATOM     35  C   UNL     1      13.548  -3.346  -2.691  0.00  0.00    +0.031 C 
ATOM     36  C   UNL     1      14.208  -1.975  -2.397  0.00  0.00    +0.160 C 
ATOM     37  O   UNL     1      13.143  -1.144  -1.904  0.00  0.00    -0.375 OA
ENDBRANCH  32  33
ENDBRANCH   5  32
TORSDOF 7
