REMARK  Name = ZINC12035946
REMARK  10 active torsions:
REMARK  status: ('A' for Active; 'I' for Inactive)
REMARK    1  A    between atoms: C_1  and  N_68
REMARK    2  A    between atoms: C_2  and  N_68
REMARK    3  A    between atoms: C_3  and  C_4
REMARK    4  A    between atoms: C_3  and  N_68
REMARK    5  A    between atoms: C_4  and  N_5
REMARK    6  A    between atoms: C_8  and  C_12
REMARK    7  A    between atoms: C_8  and  C_20
REMARK    8  A    between atoms: C_12  and  C_13
REMARK    9  A    between atoms: C_13  and  C_14
REMARK   10  A    between atoms: C_26  and  C_28
REMARK                            x       y       z     vdW  Elec       q    Type
REMARK                         _______ _______ _______ _____ _____    ______ ____
ROOT
ATOM      1  N   UNL     1      -0.464  -4.490   1.853  0.00  0.00    -0.226 N 
ATOM      2  C   UNL     1      -0.352  -3.257   2.386  0.00  0.00    +0.247 C 
ATOM      3  O   UNL     1       0.630  -2.769   2.902  0.00  0.00    -0.273 OA
ATOM      4  C   UNL     1      -1.710  -2.608   2.205  0.00  0.00    +0.116 C 
ATOM      5  N   UNL     1      -2.504  -3.649   1.529  0.00  0.00    -0.285 N 
ATOM      6  C   UNL     1      -1.691  -4.708   1.367  0.00  0.00    +0.309 C 
ATOM      7  O   UNL     1      -2.033  -5.748   0.838  0.00  0.00    -0.252 OA
ATOM      8  H   UNL     1      -3.432  -3.583   1.254  0.00  0.00    +0.151 HD
ENDROOT
BRANCH   4   9
ATOM      9  C   UNL     1      -1.598  -1.361   1.327  0.00  0.00    +0.024 C 
ATOM     10  C   UNL     1      -1.032  -1.749  -0.041  0.00  0.00    +0.025 C 
ATOM     11  C   UNL     1      -0.889  -0.493  -0.906  0.00  0.00    +0.108 C 
ATOM     12  N   UNL     1      -2.187   0.193  -0.963  0.00  0.00    -0.297 N 
ATOM     13  C   UNL     1      -2.863   0.532   0.297  0.00  0.00    +0.108 C 
ATOM     14  C   UNL     1      -2.984  -0.736   1.148  0.00  0.00    +0.025 C 
ATOM     15  C   UNL     1      -2.747   0.505  -2.148  0.00  0.00    +0.249 C 
ATOM     16  O   UNL     1      -3.862   0.987  -2.185  0.00  0.00    -0.270 OA
BRANCH  15  17
ATOM     17  C   UNL     1      -2.006   0.262  -3.402  0.00  0.00    +0.075 A 
ATOM     18  C   UNL     1      -0.667   0.647  -3.512  0.00  0.00    +0.016 A 
ATOM     19  C   UNL     1       0.021   0.412  -4.683  0.00  0.00    +0.004 A 
ATOM     20  C   UNL     1      -0.611  -0.195  -5.755  0.00  0.00    +0.041 A 
ATOM     21  C   UNL     1      -1.938  -0.574  -5.659  0.00  0.00    +0.159 A 
ATOM     22  C   UNL     1      -2.642  -0.350  -4.486  0.00  0.00    +0.170 A 
ATOM     23  F   UNL     1      -3.937  -0.721  -4.391  0.00  0.00    -0.202 F 
ATOM     24  F   UNL     1      -2.549  -1.165  -6.709  0.00  0.00    -0.202 F 
ENDBRANCH  15  17
ENDBRANCH   4   9
BRANCH   1  25
ATOM     25  C   UNL     1       0.625  -5.470   1.812  0.00  0.00    +0.099 C 
BRANCH  25  26
ATOM     26  C   UNL     1       0.588  -6.327   3.079  0.00  0.00    -0.060 C 
BRANCH  26  29
ATOM     27  C   UNL     1       2.988  -6.646   3.102  0.00  0.00    -0.097 C 
ATOM     28  C   UNL     1       1.537  -8.300   4.113  0.00  0.00    -0.097 C 
ATOM     29  N   UNL     1       1.677  -7.324   3.012  0.00  0.00    +0.377 N 
ATOM     30  H   UNL     1       1.620  -7.821   2.116  0.00  0.00    -0.083 HD
ENDBRANCH  26  29
ENDBRANCH  25  26
ENDBRANCH   1  25
BRANCH   4  31
ATOM     31  C   UNL     1      -2.323  -2.257   3.562  0.00  0.00    +0.040 C 
BRANCH  31  32
ATOM     32  C   UNL     1      -2.423  -3.520   4.420  0.00  0.00    +0.038 C 
BRANCH  32  33
ATOM     33  C   UNL     1      -3.027  -3.173   5.756  0.00  0.00    -0.047 A 
ATOM     34  C   UNL     1      -2.210  -2.809   6.810  0.00  0.00    +0.003 A 
ATOM     35  C   UNL     1      -2.764  -2.486   8.035  0.00  0.00    +0.000 A 
ATOM     36  C   UNL     1      -4.135  -2.538   8.209  0.00  0.00    +0.000 A 
ATOM     37  C   UNL     1      -4.951  -2.907   7.156  0.00  0.00    +0.000 A 
ATOM     38  C   UNL     1      -4.397  -3.225   5.930  0.00  0.00    +0.003 A 
ENDBRANCH  32  33
ENDBRANCH  31  32
ENDBRANCH   4  31
TORSDOF 8
