REMARK  Name = ZINC03954279
REMARK  8 active torsions:
REMARK  status: ('A' for Active; 'I' for Inactive)
REMARK    1  A    between atoms: C_1  and  C_2
REMARK    2  A    between atoms: C_4  and  C_12
REMARK    3  A    between atoms: C_6  and  C_9
REMARK    4  A    between atoms: C_7  and  O_8
REMARK    5  A    between atoms: C_12  and  C_23
REMARK    6  A    between atoms: C_25  and  C_33
REMARK    7  A    between atoms: C_26  and  O_32
REMARK    8  A    between atoms: C_27  and  C_29
REMARK                            x       y       z     vdW  Elec       q    Type
REMARK                         _______ _______ _______ _____ _____    ______ ____
ROOT
ATOM      1  C   UNL     1       0.027  -2.804  -2.534  0.00  0.00    +0.175 C 
ATOM      2  C   UNL     1      -0.461  -4.211  -2.314  0.00  0.00    +0.023 A 
ATOM      3  C   UNL     1      -0.240  -5.110  -1.283  0.00  0.00    +0.009 A 
ATOM      4  C   UNL     1      -0.804  -6.370  -1.329  0.00  0.00    +0.000 A 
ATOM      5  C   UNL     1      -1.593  -6.750  -2.398  0.00  0.00    +0.002 A 
ATOM      6  C   UNL     1      -1.824  -5.853  -3.429  0.00  0.00    +0.030 A 
ATOM      7  C   UNL     1      -1.267  -4.602  -3.375  0.00  0.00    +0.124 A 
ATOM      8  S   UNL     1      -1.326  -3.175  -4.423  0.00  0.00    +0.114 S 
ATOM      9  O   UNL     1      -0.359  -3.356  -5.448  0.00  0.00    -0.142 OA
ATOM     10  O   UNL     1      -2.694  -2.890  -4.681  0.00  0.00    -0.142 OA
ATOM     11  O   UNL     1      -0.793  -2.087  -3.468  0.00  0.00    -0.213 OA
ENDROOT
BRANCH   1  15
ATOM     12  C   UNL     1      -1.878   0.754   0.422  0.00  0.00    +0.047 C 
ATOM     13  C   UNL     1      -0.892  -0.364   0.200  0.00  0.00    -0.008 A 
ATOM     14  C   UNL     1      -0.878  -1.042  -1.003  0.00  0.00    +0.014 A 
ATOM     15  C   UNL     1       0.024  -2.072  -1.217  0.00  0.00    -0.003 A 
ATOM     16  C   UNL     1       0.917  -2.431  -0.232  0.00  0.00    +0.026 A 
ATOM     17  C   UNL     1       0.915  -1.752   0.991  0.00  0.00    +0.105 A 
ATOM     18  C   UNL     1       0.004  -0.707   1.202  0.00  0.00    +0.134 A 
BRANCH  17  19
ATOM     19  C   UNL     1       1.867  -2.130   2.049  0.00  0.00    +0.390 C 
ATOM     20  O   UNL     1       2.663  -3.039   1.859  0.00  0.00    -0.240 OA
ATOM     21  O   UNL     1       1.862  -1.534   3.117  0.00  0.00    -0.240 OA
ENDBRANCH  17  19
BRANCH  18  22
ATOM     22  O   UNL     1      -0.005  -0.038   2.381  0.00  0.00    -0.506 OA
ATOM     23  H   UNL     1      -0.591  -0.422   3.047  0.00  0.00    +0.292 HD
ENDBRANCH  18  22
ENDBRANCH   1  15
BRANCH   1  24
ATOM     24  C   UNL     1       1.438  -2.855  -3.062  0.00  0.00    -0.003 A 
ATOM     25  C   UNL     1       1.912  -1.829  -3.864  0.00  0.00    +0.014 A 
ATOM     26  C   UNL     1       3.203  -1.864  -4.353  0.00  0.00    -0.008 A 
ATOM     27  C   UNL     1       4.036  -2.929  -4.044  0.00  0.00    +0.134 A 
ATOM     28  C   UNL     1       3.560  -3.969  -3.232  0.00  0.00    +0.105 A 
ATOM     29  C   UNL     1       2.252  -3.918  -2.739  0.00  0.00    +0.026 A 
ATOM     30  C   UNL     1       3.707  -0.743  -5.226  0.00  0.00    +0.047 C 
BRANCH  28  31
ATOM     31  C   UNL     1       4.434  -5.105  -2.896  0.00  0.00    +0.390 C 
ATOM     32  O   UNL     1       4.015  -6.011  -2.188  0.00  0.00    -0.240 OA
ATOM     33  O   UNL     1       5.579  -5.144  -3.326  0.00  0.00    -0.240 OA
ENDBRANCH  28  31
BRANCH  27  34
ATOM     34  O   UNL     1       5.303  -2.964  -4.524  0.00  0.00    -0.506 OA
ATOM     35  H   UNL     1       5.955  -2.544  -3.946  0.00  0.00    +0.292 HD
ENDBRANCH  27  34
ENDBRANCH   1  24
TORSDOF 6
