REMARK  Name = ZINC39456237
REMARK  8 active torsions:
REMARK  status: ('A' for Active; 'I' for Inactive)
REMARK    1  A    between atoms: C_1  and  C_2
REMARK    2  A    between atoms: C_2  and  O_3
REMARK    3  A    between atoms: O_3  and  N_4
REMARK    4  A    between atoms: C_18  and  S_19
REMARK    5  A    between atoms: S_19  and  C_20
REMARK    6  A    between atoms: C_22  and  S_27
REMARK    7  A    between atoms: S_27  and  O_30
REMARK    8  A    between atoms: O_30  and  C_31
REMARK                            x       y       z     vdW  Elec       q    Type
REMARK                         _______ _______ _______ _____ _____    ______ ____
ROOT
ATOM      1  N   UNL     1      -1.431  -1.912   0.005  0.00  0.00    -0.138 N 
ATOM      2  C   UNL     1      -1.481  -2.575  -1.216  0.00  0.00    +0.150 A 
ATOM      3  C   UNL     1      -1.566  -3.952  -1.272  0.00  0.00    +0.086 A 
ATOM      4  C   UNL     1      -1.613  -4.737  -0.026  0.00  0.00    +0.100 A 
ATOM      5  C   UNL     1      -1.562  -4.033   1.206  0.00  0.00    +0.070 A 
ATOM      6  C   UNL     1      -1.462  -2.566   1.180  0.00  0.00    +0.293 A 
ATOM      7  O   UNL     1      -1.412  -1.942   2.224  0.00  0.00    -0.264 OA
ATOM      8  C   UNL     1      -1.600  -4.724   2.410  0.00  0.00    +0.026 A 
ATOM      9  C   UNL     1      -1.690  -6.120   2.358  0.00  0.00    +0.015 A 
ATOM     10  C   UNL     1      -1.741  -6.781   1.052  0.00  0.00    +0.073 A 
ATOM     11  N   UNL     1      -1.700  -6.054  -0.065  0.00  0.00    -0.245 NA
ATOM     12  C   UNL     1      -1.833  -8.183   1.009  0.00  0.00    +0.028 A 
ATOM     13  C   UNL     1      -1.872  -8.897   2.168  0.00  0.00    +0.003 A 
ATOM     14  C   UNL     1      -1.823  -8.282   3.412  0.00  0.00    +0.015 A 
ATOM     15  C   UNL     1      -1.734  -6.909   3.529  0.00  0.00    +0.017 A 
ATOM     16  N   UNL     1      -1.601  -4.591  -2.496  0.00  0.00    -0.316 N 
ATOM     17  C   UNL     1      -0.977  -3.924  -3.649  0.00  0.00    +0.263 C 
ATOM     18  C   UNL     1      -1.552  -2.507  -3.751  0.00  0.00    +0.130 C 
ATOM     19  C   UNL     1      -1.440  -1.825  -2.413  0.00  0.00    +0.188 C 
ATOM     20  O   UNL     1      -1.312  -0.618  -2.362  0.00  0.00    -0.290 OA
ATOM     21  H   UNL     1      -2.025  -5.458  -2.593  0.00  0.00    +0.148 HD
ENDROOT
BRANCH  17  22
ATOM     22  S   UNL     1       0.820  -3.841  -3.409  0.00  0.00    +0.140 S 
ATOM     23  O   UNL     1       1.449  -3.362  -4.590  0.00  0.00    -0.135 OA
ATOM     24  O   UNL     1       1.119  -3.266  -2.144  0.00  0.00    -0.135 OA
BRANCH  22  25
ATOM     25  O   UNL     1       1.266  -5.291  -3.292  0.00  0.00    -0.345 OA
BRANCH  25  26
ATOM     26  C   UNL     1       1.285  -5.961  -4.475  0.00  0.00    +0.156 A 
ATOM     27  C   UNL     1       0.153  -6.636  -4.909  0.00  0.00    +0.048 A 
ATOM     28  C   UNL     1       0.174  -7.315  -6.112  0.00  0.00    +0.004 A 
ATOM     29  C   UNL     1       1.322  -7.324  -6.882  0.00  0.00    +0.000 A 
ATOM     30  C   UNL     1       2.452  -6.653  -6.451  0.00  0.00    +0.004 A 
ATOM     31  C   UNL     1       2.434  -5.967  -5.252  0.00  0.00    +0.048 A 
ENDBRANCH  25  26
ENDBRANCH  22  25
ENDBRANCH  17  22
BRANCH  15  32
ATOM     32  S   UNL     1      -1.673  -6.150   5.119  0.00  0.00    -0.128 S 
ATOM     33  C   UNL     1      -1.756  -7.546   6.274  0.00  0.00    +0.090 C 
ENDBRANCH  15  32
BRANCH   1  34
ATOM     34  O   UNL     1      -1.339  -0.499   0.012  0.00  0.00    -0.408 OA
BRANCH  34  36
ATOM     35  C   UNL     1      -0.019   1.526   0.010  0.00  0.00    +0.051 C 
ATOM     36  C   UNL     1       0.002  -0.004   0.002  0.00  0.00    +0.257 C 
ENDBRANCH  34  36
ENDBRANCH   1  34
TORSDOF 6
