REMARK  Name = ZINC27695647
REMARK  12 active torsions:
REMARK  status: ('A' for Active; 'I' for Inactive)
REMARK    1  A    between atoms: C_2  and  C_3
REMARK    2  A    between atoms: C_3  and  N_4
REMARK    3  A    between atoms: N_4  and  C_5
REMARK    4  A    between atoms: N_4  and  C_8
REMARK    5  A    between atoms: C_5  and  C_6
REMARK    6  A    between atoms: C_8  and  C_9
REMARK    7  A    between atoms: C_9  and  C_11
REMARK    8  A    between atoms: C_9  and  O_34
REMARK    9  A    between atoms: C_11  and  N_12
REMARK   10  A    between atoms: C_20  and  C_21
REMARK   11  A    between atoms: C_21  and  C_22
REMARK   12  A    between atoms: C_21  and  C_28
REMARK                            x       y       z     vdW  Elec       q    Type
REMARK                         _______ _______ _______ _____ _____    ______ ____
ROOT
ATOM      1  N   UNL     1       3.469   4.044   0.570  0.00  0.00    -0.324 N 
ATOM      2  C   UNL     1       2.994   2.779   0.289  0.00  0.00    +0.069 A 
ATOM      3  C   UNL     1       3.593   1.540   0.102  0.00  0.00    +0.028 A 
ATOM      4  C   UNL     1       2.812   0.438  -0.173  0.00  0.00    +0.002 A 
ATOM      5  C   UNL     1       1.433   0.560  -0.268  0.00  0.00    +0.002 A 
ATOM      6  C   UNL     1       0.825   1.769  -0.080  0.00  0.00    +0.030 A 
ATOM      7  C   UNL     1       1.597   2.900   0.199  0.00  0.00    +0.089 A 
ATOM      8  N   UNL     1       1.298   4.205   0.424  0.00  0.00    -0.231 NA
ATOM      9  C   UNL     1       2.393   4.874   0.641  0.00  0.00    +0.123 A 
ENDROOT
BRANCH   1  10
ATOM     10  C   UNL     1       4.872   4.423   0.757  0.00  0.00    +0.153 C 
BRANCH  10  11
ATOM     11  C   UNL     1       5.476   4.825  -0.590  0.00  0.00    +0.118 C 
BRANCH  11  12
ATOM     12  O   UNL     1       5.503   3.690  -1.457  0.00  0.00    -0.392 OA
ATOM     13  H   UNL     1       4.566   3.182  -1.727  0.00  0.00    +0.210 HD
ENDBRANCH  11  12
BRANCH  11  14
ATOM     14  C   UNL     1       6.901   5.339  -0.376  0.00  0.00    -0.045 C 
BRANCH  14  15
ATOM     15  N   UNL     1       7.438   5.837  -1.650  0.00  0.00    +0.386 N 
ATOM     16  H   UNL     1       7.303   5.048  -2.405  0.00  0.00    -0.081 HD
BRANCH  15  17
ATOM     17  C   UNL     1       6.702   7.025  -2.103  0.00  0.00    -0.051 C 
BRANCH  17  19
ATOM     18  C   UNL     1       7.351   9.283  -1.440  0.00  0.00    +0.002 C 
ATOM     19  C   UNL     1       6.850   8.126  -1.085  0.00  0.00    -0.053 C 
ENDBRANCH  17  19
ENDBRANCH  15  17
BRANCH  15  20
ATOM     20  C   UNL     1       8.876   6.118  -1.542  0.00  0.00    -0.051 C 
BRANCH  20  21
ATOM     21  C   UNL     1       9.469   6.241  -2.921  0.00  0.00    -0.053 C 
ATOM     22  C   UNL     1      10.133   7.320  -3.255  0.00  0.00    +0.002 C 
ENDBRANCH  20  21
ENDBRANCH  15  20
ENDBRANCH  14  15
ENDBRANCH  11  14
ENDBRANCH  10  11
ENDBRANCH   1  10
BRANCH   9  23
ATOM     23  C   UNL     1       2.460   6.351   0.929  0.00  0.00    +0.115 C 
BRANCH  23  24
ATOM     24  C   UNL     1       1.873   7.116  -0.229  0.00  0.00    -0.033 A 
ATOM     25  C   UNL     1       0.622   6.784  -0.714  0.00  0.00    +0.004 A 
ATOM     26  C   UNL     1       0.082   7.488  -1.773  0.00  0.00    +0.000 A 
ATOM     27  C   UNL     1       0.797   8.518  -2.355  0.00  0.00    +0.000 A 
ATOM     28  C   UNL     1       2.051   8.847  -1.874  0.00  0.00    +0.000 A 
ATOM     29  C   UNL     1       2.589   8.146  -0.811  0.00  0.00    +0.004 A 
ENDBRANCH  23  24
BRANCH  23  30
ATOM     30  C   UNL     1       1.677   6.655   2.180  0.00  0.00    -0.033 A 
ATOM     31  C   UNL     1       0.333   6.340   2.248  0.00  0.00    +0.004 A 
ATOM     32  C   UNL     1      -0.385   6.614   3.397  0.00  0.00    +0.000 A 
ATOM     33  C   UNL     1       0.240   7.213   4.475  0.00  0.00    +0.000 A 
ATOM     34  C   UNL     1       1.583   7.534   4.405  0.00  0.00    +0.000 A 
ATOM     35  C   UNL     1       2.301   7.255   3.258  0.00  0.00    +0.004 A 
ENDBRANCH  23  30
ENDBRANCH   9  23
TORSDOF 12
