REMARK  Name = ZINC20851015
REMARK  10 active torsions:
REMARK  status: ('A' for Active; 'I' for Inactive)
REMARK    1  A    between atoms: C_1  and  C_2
REMARK    2  A    between atoms: C_2  and  O_3
REMARK    3  A    between atoms: O_3  and  C_4
REMARK    4  A    between atoms: C_7  and  C_10
REMARK    5  A    between atoms: C_13  and  C_15
REMARK    6  A    between atoms: C_24  and  C_29
REMARK    7  A    between atoms: C_32  and  O_37
REMARK    8  A    between atoms: C_33  and  O_35
REMARK    9  A    between atoms: O_35  and  C_36
REMARK   10  A    between atoms: O_37  and  C_38
REMARK                            x       y       z     vdW  Elec       q    Type
REMARK                         _______ _______ _______ _____ _____    ______ ____
ROOT
ATOM      1  C   UNL     1       2.278  -1.576  -3.284  0.00  0.00    +0.072 A 
ATOM      2  C   UNL     1       2.540  -0.291  -2.842  0.00  0.00    +0.029 A 
ATOM      3  C   UNL     1       1.786   0.228  -1.764  0.00  0.00    +0.037 A 
ATOM      4  C   UNL     1       0.808  -0.535  -1.155  0.00  0.00    +0.030 A 
ATOM      5  N   UNL     1       0.549  -1.788  -1.589  0.00  0.00    -0.325 N 
ATOM      6  H   UNL     1      -0.235  -2.388  -1.103  0.00  0.00    +0.169 HD
ATOM      7  C   UNL     1       1.226  -2.340  -2.609  0.00  0.00    +0.259 A 
ATOM      8  O   UNL     1       0.965  -3.473  -2.973  0.00  0.00    -0.267 OA
ATOM      9  C   UNL     1       0.002  -0.004   0.002  0.00  0.00    +0.062 C 
ATOM     10  C   UNL     1      -0.019   1.521   0.010  0.00  0.00    +0.032 C 
ATOM     11  C   UNL     1       1.424   2.046  -0.001  0.00  0.00    +0.088 C 
ATOM     12  C   UNL     1       2.053   1.601  -1.304  0.00  0.00    +0.165 C 
ATOM     13  O   UNL     1       2.754   2.353  -1.948  0.00  0.00    -0.292 OA
ENDROOT
BRANCH  10  14
ATOM     14  C   UNL     1      -0.722   2.009   1.251  0.00  0.00    -0.040 A 
ATOM     15  C   UNL     1      -0.230   1.674   2.499  0.00  0.00    +0.008 A 
ATOM     16  C   UNL     1      -0.872   2.119   3.640  0.00  0.00    +0.049 A 
ATOM     17  C   UNL     1      -2.010   2.902   3.534  0.00  0.00    +0.161 A 
ATOM     18  C   UNL     1      -2.505   3.238   2.278  0.00  0.00    +0.162 A 
ATOM     19  C   UNL     1      -1.854   2.794   1.138  0.00  0.00    +0.053 A 
BRANCH  18  20
ATOM     20  O   UNL     1      -3.622   4.006   2.169  0.00  0.00    -0.491 OA
ATOM     21  C   UNL     1      -4.073   4.312   0.848  0.00  0.00    +0.277 C 
ENDBRANCH  18  20
BRANCH  17  22
ATOM     22  O   UNL     1      -2.642   3.340   4.656  0.00  0.00    -0.491 OA
ATOM     23  C   UNL     1      -2.078   2.956   5.911  0.00  0.00    +0.277 C 
ENDBRANCH  17  22
ENDBRANCH  10  14
BRANCH   1  27
ATOM     24  C   UNL     1       3.700  -3.724  -5.965  0.00  0.00    +0.079 A 
ATOM     25  C   UNL     1       4.633  -2.845  -6.450  0.00  0.00    +0.075 A 
ATOM     26  S   UNL     1       4.354  -1.441  -5.378  0.00  0.00    -0.075 S 
ATOM     27  C   UNL     1       3.039  -2.162  -4.405  0.00  0.00    +0.114 A 
ATOM     28  N   UNL     1       2.933  -3.363  -4.954  0.00  0.00    -0.239 NA
BRANCH  24  32
ATOM     29  C   UNL     1       3.294  -7.590  -7.693  0.00  0.00    +0.121 A 
ATOM     30  C   UNL     1       2.479  -7.216  -6.633  0.00  0.00    +0.046 A 
ATOM     31  C   UNL     1       2.609  -5.963  -6.071  0.00  0.00    +0.013 A 
ATOM     32  C   UNL     1       3.559  -5.072  -6.568  0.00  0.00    +0.001 A 
ATOM     33  C   UNL     1       4.372  -5.449  -7.635  0.00  0.00    +0.013 A 
ATOM     34  C   UNL     1       4.241  -6.705  -8.190  0.00  0.00    +0.046 A 
BRANCH  29  35
ATOM     35  O   UNL     1       3.164  -8.825  -8.246  0.00  0.00    -0.492 OA
BRANCH  35  37
ATOM     36  C   UNL     1       3.741 -10.565  -9.820  0.00  0.00    +0.048 C 
ATOM     37  C   UNL     1       4.034  -9.144  -9.334  0.00  0.00    +0.225 C 
ENDBRANCH  35  37
ENDBRANCH  29  35
ENDBRANCH  24  32
ENDBRANCH   1  27
TORSDOF 7
