REMARK  Name = ZINC32876268
REMARK  9 active torsions:
REMARK  status: ('A' for Active; 'I' for Inactive)
REMARK    1  A    between atoms: C_1  and  C_2
REMARK    2  A    between atoms: C_4  and  C_34
REMARK    3  A    between atoms: C_5  and  C_33
REMARK    4  A    between atoms: C_6  and  S_9
REMARK    5  A    between atoms: C_7  and  C_8
REMARK    6  A    between atoms: S_9  and  N_12
REMARK    7  A    between atoms: C_15  and  C_18
REMARK    8  A    between atoms: N_20  and  C_21
REMARK    9  A    between atoms: C_23  and  C_29
REMARK                            x       y       z     vdW  Elec       q    Type
REMARK                         _______ _______ _______ _____ _____    ______ ____
ROOT
ATOM      1  N   UNL     1       1.248   1.628   0.097  0.00  0.00    -0.177 NA
ATOM      2  C   UNL     1      -0.210   1.502  -0.037  0.00  0.00    +0.110 C 
ATOM      3  C   UNL     1      -0.623   0.088   0.384  0.00  0.00    +0.030 C 
ATOM      4  C   UNL     1       0.173  -0.936  -0.427  0.00  0.00    +0.078 C 
ATOM      5  C   UNL     1       1.667  -0.764  -0.142  0.00  0.00    +0.030 C 
ATOM      6  C   UNL     1       2.107   0.640  -0.570  0.00  0.00    +0.110 C 
ENDROOT
BRANCH   4   7
ATOM      7  C   UNL     1      -0.255  -2.327  -0.040  0.00  0.00    +0.220 C 
ATOM      8  O   UNL     1      -1.113  -2.485   0.803  0.00  0.00    -0.275 OA
ATOM      9  N   UNL     1       0.315  -3.397  -0.629  0.00  0.00    -0.281 N 
ATOM     10  H   UNL     1       1.143  -3.257  -1.340  0.00  0.00    +0.155 HD
BRANCH   9  11
ATOM     11  C   UNL     1      -0.146  -4.687  -0.336  0.00  0.00    +0.099 A 
ATOM     12  C   UNL     1       0.708  -5.631   0.167  0.00  0.00    +0.042 A 
ATOM     13  C   UNL     1       0.218  -6.912   0.456  0.00  0.00    +0.073 A 
ATOM     14  C   UNL     1      -1.082  -7.208   0.228  0.00  0.00    +0.098 A 
ATOM     15  N   UNL     1      -1.931  -6.274  -0.276  0.00  0.00    -0.327 N 
ATOM     16  H   UNL     1      -2.985  -6.530  -0.456  0.00  0.00    +0.168 HD
ATOM     17  C   UNL     1      -1.497  -5.031  -0.561  0.00  0.00    +0.270 A 
ATOM     18  O   UNL     1      -2.271  -4.203  -1.014  0.00  0.00    -0.266 OA
BRANCH  13  19
ATOM     19  C   UNL     1       1.143  -7.963   1.016  0.00  0.00    +0.419 C 
ATOM     20  F   UNL     1       0.432  -9.151   1.215  0.00  0.00    -0.166 F 
ATOM     21  F   UNL     1       2.189  -8.190   0.116  0.00  0.00    -0.166 F 
ATOM     22  F   UNL     1       1.666  -7.521   2.236  0.00  0.00    -0.166 F 
ENDBRANCH  13  19
ENDBRANCH   9  11
ENDBRANCH   4   7
BRANCH   1  23
ATOM     23  S   UNL     1       1.910   2.860   0.983  0.00  0.00    +0.061 S 
ATOM     24  O   UNL     1       3.204   3.096   0.446  0.00  0.00    -0.153 OA
ATOM     25  O   UNL     1       0.922   3.877   1.066  0.00  0.00    -0.153 OA
BRANCH  23  31
ATOM     26  C   UNL     1       4.961   0.943   4.770  0.00  0.00    +0.044 C 
ATOM     27  C   UNL     1       3.591   1.379   4.319  0.00  0.00    -0.045 A 
ATOM     28  C   UNL     1       2.520   1.303   5.190  0.00  0.00    +0.007 A 
ATOM     29  C   UNL     1       1.263   1.703   4.777  0.00  0.00    -0.045 A 
ATOM     30  C   UNL     1       1.077   2.178   3.492  0.00  0.00    -0.021 A 
ATOM     31  C   UNL     1       2.148   2.254   2.621  0.00  0.00    +0.112 A 
ATOM     32  C   UNL     1       3.404   1.850   3.033  0.00  0.00    -0.021 A 
ATOM     33  C   UNL     1       4.570   1.927   2.081  0.00  0.00    +0.046 C 
ATOM     34  C   UNL     1      -0.293   2.614   3.041  0.00  0.00    +0.046 C 
ATOM     35  C   UNL     1       0.096   1.620   5.726  0.00  0.00    +0.044 C 
ENDBRANCH  23  31
ENDBRANCH   1  23
TORSDOF 5
