REMARK  Name = ZINC35067072
REMARK  17 active torsions:
REMARK  status: ('A' for Active; 'I' for Inactive)
REMARK    1  A    between atoms: C_1  and  C_2
REMARK    2  A    between atoms: C_2  and  C_3
REMARK    3  A    between atoms: C_3  and  C_4
REMARK    4  A    between atoms: C_4  and  C_5
REMARK    5  A    between atoms: C_5  and  C_7
REMARK    6  A    between atoms: C_5  and  C_9
REMARK    7  A    between atoms: C_7  and  C_8
REMARK    8  A    between atoms: N_11  and  C_12
REMARK    9  A    between atoms: N_11  and  C_17
REMARK   10  A    between atoms: C_12  and  C_13
REMARK   11  A    between atoms: C_13  and  N_14
REMARK   12  A    between atoms: N_14  and  C_15
REMARK   13  A    between atoms: N_14  and  C_16
REMARK   14  A    between atoms: C_17  and  C_19
REMARK   15  A    between atoms: C_17  and  C_21
REMARK   16  A    between atoms: C_19  and  C_20
REMARK   17  A    between atoms: N_31  and  C_32
REMARK                            x       y       z     vdW  Elec       q    Type
REMARK                         _______ _______ _______ _____ _____    ______ ____
ROOT
ATOM      1  C   UNL     1      -5.190  -4.660  -0.251  0.00  0.00    +0.142 C 
ENDROOT
BRANCH   1   2
ATOM      2  C   UNL     1      -6.231  -5.719  -0.502  0.00  0.00    +0.138 A 
ATOM      3  N   UNL     1      -7.411  -5.559   0.018  0.00  0.00    -0.231 NA
ATOM      4  C   UNL     1      -8.398  -6.471  -0.165  0.00  0.00    +0.078 A 
ATOM      5  C   UNL     1      -9.667  -6.298   0.393  0.00  0.00    +0.028 A 
ATOM      6  C   UNL     1     -10.640  -7.249   0.182  0.00  0.00    +0.002 A 
ATOM      7  C   UNL     1     -10.376  -8.379  -0.581  0.00  0.00    +0.001 A 
ATOM      8  C   UNL     1      -9.133  -8.572  -1.142  0.00  0.00    +0.015 A 
ATOM      9  C   UNL     1      -8.134  -7.621  -0.940  0.00  0.00    +0.065 A 
ATOM     10  C   UNL     1      -6.789  -7.773  -1.515  0.00  0.00    +0.266 A 
ATOM     11  O   UNL     1      -6.497  -8.741  -2.192  0.00  0.00    -0.267 OA
ATOM     12  N   UNL     1      -5.891  -6.792  -1.265  0.00  0.00    -0.263 N 
BRANCH  12  13
ATOM     13  C   UNL     1      -4.596  -6.886  -1.793  0.00  0.00    +0.051 A 
ATOM     14  C   UNL     1      -3.568  -7.416  -1.024  0.00  0.00    +0.029 A 
ATOM     15  C   UNL     1      -2.293  -7.508  -1.547  0.00  0.00    +0.040 A 
ATOM     16  C   UNL     1      -2.039  -7.071  -2.836  0.00  0.00    +0.124 A 
ATOM     17  C   UNL     1      -3.063  -6.542  -3.604  0.00  0.00    +0.040 A 
ATOM     18  C   UNL     1      -4.340  -6.454  -3.088  0.00  0.00    +0.029 A 
ATOM     19  F   UNL     1      -0.791  -7.162  -3.345  0.00  0.00    -0.205 F 
ENDBRANCH  12  13
ENDBRANCH   1   2
BRANCH   1  22
ATOM     20  C   UNL     1      -3.744  -3.818  -2.023  0.00  0.00    +0.219 C 
ATOM     21  O   UNL     1      -2.837  -4.479  -1.561  0.00  0.00    -0.275 OA
ATOM     22  N   UNL     1      -4.974  -3.888  -1.478  0.00  0.00    -0.293 N 
BRANCH  20  23
ATOM     23  C   UNL     1      -3.493  -2.920  -3.207  0.00  0.00    +0.075 C 
BRANCH  23  24
ATOM     24  C   UNL     1      -3.467  -1.462  -2.744  0.00  0.00    +0.009 C 
ATOM     25  C   UNL     1      -3.875  -0.551  -3.904  0.00  0.00    +0.004 C 
ENDBRANCH  23  24
BRANCH  23  26
ATOM     26  C   UNL     1      -2.148  -3.277  -3.843  0.00  0.00    +0.013 C 
BRANCH  26  27
ATOM     27  C   UNL     1      -1.970  -2.484  -5.139  0.00  0.00    +0.000 C 
BRANCH  27  29
ATOM     28  C   UNL     1      -0.535  -2.174  -7.160  0.00  0.00    +0.004 C 
ATOM     29  C   UNL     1      -0.713  -2.968  -5.864  0.00  0.00    -0.003 C 
ENDBRANCH  27  29
ENDBRANCH  26  27
ENDBRANCH  23  26
ENDBRANCH  20  23
BRANCH  22  30
ATOM     30  C   UNL     1      -6.096  -3.190  -2.111  0.00  0.00    +0.090 C 
BRANCH  30  31
ATOM     31  C   UNL     1      -6.746  -4.108  -3.149  0.00  0.00    -0.060 C 
BRANCH  31  32
ATOM     32  N   UNL     1      -7.772  -3.361  -3.889  0.00  0.00    +0.377 N 
ATOM     33  C   UNL     1      -8.312  -4.204  -4.963  0.00  0.00    -0.097 C 
ATOM     34  C   UNL     1      -8.856  -2.979  -2.974  0.00  0.00    -0.097 C 
ATOM     35  H   UNL     1      -7.361  -2.530  -4.288  0.00  0.00    -0.083 HD
ENDBRANCH  31  32
ENDBRANCH  30  31
ENDBRANCH  22  30
ENDBRANCH   1  22
BRANCH   1  36
ATOM     36  C   UNL     1      -5.669  -3.726   0.862  0.00  0.00    +0.027 C 
ATOM     37  C   UNL     1      -4.554  -2.740   1.216  0.00  0.00    +0.006 C 
ENDBRANCH   1  36
TORSDOF 12
