REMARK  Name = ZINC02297688
REMARK  9 active torsions:
REMARK  status: ('A' for Active; 'I' for Inactive)
REMARK    1  A    between atoms: C_1  and  O_2
REMARK    2  A    between atoms: O_2  and  C_3
REMARK    3  A    between atoms: C_3  and  C_5
REMARK    4  A    between atoms: C_7  and  C_29
REMARK    5  A    between atoms: C_9  and  C_27
REMARK    6  A    between atoms: C_10  and  S_14
REMARK    7  A    between atoms: S_14  and  C_15
REMARK    8  A    between atoms: C_15  and  C_16
REMARK    9  A    between atoms: N_18  and  C_19
REMARK                            x       y       z     vdW  Elec       q    Type
REMARK                         _______ _______ _______ _____ _____    ______ ____
ROOT
ATOM      1  C   UNL     1      -0.001   0.027   0.003  0.00  0.00    +0.196 C 
ATOM      2  C   UNL     1       1.445  -0.472  -0.017  0.00  0.00    +0.084 C 
ATOM      3  C   UNL     1       2.075  -0.239   1.332  0.00  0.00    +0.066 C 
ATOM      4  C   UNL     1       1.323  -0.334   2.463  0.00  0.00    +0.082 C 
ATOM      5  N   UNL     1      -0.019  -0.644   2.388  0.00  0.00    -0.279 N 
ATOM      6  C   UNL     1      -0.695  -0.491   1.235  0.00  0.00    +0.232 C 
ATOM      7  O   UNL     1      -1.874  -0.774   1.187  0.00  0.00    -0.275 OA
ATOM      8  H   UNL     1      -0.479  -0.975   3.174  0.00  0.00    +0.155 HD
ENDROOT
BRANCH   2   9
ATOM      9  C   UNL     1       1.464  -1.946  -0.332  0.00  0.00    -0.038 A 
ATOM     10  C   UNL     1       0.819  -2.839   0.502  0.00  0.00    +0.006 A 
ATOM     11  C   UNL     1       0.831  -4.190   0.211  0.00  0.00    +0.020 A 
ATOM     12  C   UNL     1       1.498  -4.649  -0.911  0.00  0.00    +0.041 A 
ATOM     13  C   UNL     1       2.148  -3.755  -1.743  0.00  0.00    +0.020 A 
ATOM     14  C   UNL     1       2.131  -2.404  -1.453  0.00  0.00    +0.006 A 
ATOM     15 CL   UNL     1       1.519  -6.347  -1.274  0.00  0.00    -0.084 Cl
ENDBRANCH   2   9
BRANCH   1  16
ATOM     16  C   UNL     1      -0.012   1.534   0.018  0.00  0.00    +0.320 C 
ATOM     17  O   UNL     1       1.030   2.146   0.013  0.00  0.00    -0.250 OA
BRANCH  16  19
ATOM     18  C   UNL     1      -1.113   3.647   0.043  0.00  0.00    +0.280 C 
ATOM     19  O   UNL     1      -1.179   2.196   0.030  0.00  0.00    -0.467 OA
ENDBRANCH  16  19
ENDBRANCH   1  16
BRANCH   3  20
ATOM     20  C   UNL     1       3.467   0.084   1.424  0.00  0.00    +0.098 C 
ATOM     21  N   UNL     1       4.572   0.339   1.498  0.00  0.00    -0.191 NA
ENDBRANCH   3  20
BRANCH   4  22
ATOM     22  S   UNL     1       2.070  -0.060   4.035  0.00  0.00    -0.100 S 
BRANCH  22  23
ATOM     23  C   UNL     1       0.638  -0.314   5.112  0.00  0.00    +0.171 C 
BRANCH  23  24
ATOM     24  C   UNL     1       1.050  -0.125   6.549  0.00  0.00    +0.227 C 
ATOM     25  O   UNL     1       2.199   0.154   6.819  0.00  0.00    -0.275 OA
ATOM     26  N   UNL     1       0.142  -0.266   7.535  0.00  0.00    -0.285 N 
ATOM     27  H   UNL     1      -0.790  -0.422   7.317  0.00  0.00    +0.155 HD
BRANCH  26  28
ATOM     28  C   UNL     1       0.544  -0.186   8.873  0.00  0.00    +0.036 A 
ATOM     29  C   UNL     1      -0.076  -0.975   9.833  0.00  0.00    +0.043 A 
ATOM     30  C   UNL     1       0.327  -0.899  11.153  0.00  0.00    +0.044 A 
ATOM     31  C   UNL     1       1.339  -0.029  11.520  0.00  0.00    +0.040 A 
ATOM     32  C   UNL     1       1.954   0.763  10.566  0.00  0.00    +0.044 A 
ATOM     33  C   UNL     1       1.559   0.686   9.243  0.00  0.00    +0.043 A 
ATOM     34 CL   UNL     1       3.222   1.853  11.030  0.00  0.00    -0.083 Cl
ATOM     35 CL   UNL     1      -0.442  -1.890  12.353  0.00  0.00    -0.083 Cl
ENDBRANCH  26  28
ENDBRANCH  23  24
ENDBRANCH  22  23
ENDBRANCH   4  22
TORSDOF 8
