REMARK  Name = ZINC13064944
REMARK  12 active torsions:
REMARK  status: ('A' for Active; 'I' for Inactive)
REMARK    1  A    between atoms: C_1  and  C_2
REMARK    2  A    between atoms: C_2  and  C_3
REMARK    3  A    between atoms: C_3  and  C_5
REMARK    4  A    between atoms: C_3  and  N_69
REMARK    5  A    between atoms: N_9  and  C_10
REMARK    6  A    between atoms: C_10  and  C_11
REMARK    7  A    between atoms: C_18  and  C_19
REMARK    8  A    between atoms: C_18  and  N_69
REMARK    9  A    between atoms: C_26  and  C_27
REMARK   10  A    between atoms: C_26  and  N_69
REMARK   11  A    between atoms: C_30  and  C_40
REMARK   12  A    between atoms: C_32  and  C_39
REMARK                            x       y       z     vdW  Elec       q    Type
REMARK                         _______ _______ _______ _____ _____    ______ ____
ROOT
ATOM      1  N   UNL     1       1.484  -2.696  -2.494  0.00  0.00    +0.392 N 
ATOM      2  H   UNL     1       2.270  -2.148  -2.863  0.00  0.00    -0.080 HD
ENDROOT
BRANCH   1   3
ATOM      3  C   UNL     1       1.789  -4.135  -2.643  0.00  0.00    +0.003 C 
BRANCH   3   4
ATOM      4  C   UNL     1       3.280  -4.323  -2.533  0.00  0.00    +0.138 A 
ATOM      5  N   UNL     1       4.108  -3.609  -1.809  0.00  0.00    -0.115 NA
ATOM      6  N   UNL     1       5.294  -4.081  -1.979  0.00  0.00    -0.023 NA
ATOM      7  N   UNL     1       5.246  -5.073  -2.799  0.00  0.00    -0.044 NA
ATOM      8  N   UNL     1       4.022  -5.253  -3.163  0.00  0.00    -0.226 N 
BRANCH   8   9
ATOM      9  C   UNL     1       3.530  -6.277  -4.088  0.00  0.00    +0.182 C 
BRANCH   9  10
ATOM     10  C   UNL     1       3.554  -5.736  -5.495  0.00  0.00    -0.026 A 
ATOM     11  C   UNL     1       2.447  -5.083  -6.003  0.00  0.00    +0.008 A 
ATOM     12  C   UNL     1       2.470  -4.582  -7.291  0.00  0.00    +0.038 A 
ATOM     13  C   UNL     1       3.599  -4.745  -8.076  0.00  0.00    +0.123 A 
ATOM     14  C   UNL     1       4.705  -5.404  -7.568  0.00  0.00    +0.038 A 
ATOM     15  C   UNL     1       4.682  -5.899  -6.278  0.00  0.00    +0.008 A 
ATOM     16  F   UNL     1       3.620  -4.260  -9.337  0.00  0.00    -0.205 F 
ENDBRANCH   9  10
ENDBRANCH   8   9
ENDBRANCH   3   4
BRANCH   3  18
ATOM     17  C   UNL     1      -0.425  -4.829  -1.718  0.00  0.00    +0.002 C 
ATOM     18  C   UNL     1       1.091  -4.944  -1.548  0.00  0.00    -0.011 C 
ENDBRANCH   3  18
ENDBRANCH   1   3
BRANCH   1  19
ATOM     19  C   UNL     1       1.297  -2.365  -1.065  0.00  0.00    -0.042 C 
BRANCH  19  20
ATOM     20  C   UNL     1       2.652  -2.260  -0.413  0.00  0.00    -0.064 A 
ATOM     21  C   UNL     1       3.414  -1.120  -0.585  0.00  0.00    +0.004 A 
ATOM     22  C   UNL     1       4.657  -1.022   0.013  0.00  0.00    +0.038 A 
ATOM     23  C   UNL     1       5.137  -2.067   0.784  0.00  0.00    +0.123 A 
ATOM     24  C   UNL     1       4.372  -3.209   0.955  0.00  0.00    +0.038 A 
ATOM     25  C   UNL     1       3.130  -3.304   0.356  0.00  0.00    +0.004 A 
ATOM     26  F   UNL     1       6.352  -1.974   1.368  0.00  0.00    -0.205 F 
ENDBRANCH  19  20
ENDBRANCH   1  19
BRANCH   1  27
ATOM     27  C   UNL     1       0.263  -2.357  -3.255  0.00  0.00    -0.036 C 
BRANCH  27  28
ATOM     28  C   UNL     1       0.234  -0.867  -3.482  0.00  0.00    +0.001 A 
ATOM     29  C   UNL     1       0.760  -0.347  -4.618  0.00  0.00    +0.017 A 
ATOM     30  C   UNL     1       0.716   1.104  -4.808  0.00  0.00    +0.002 A 
ATOM     31  C   UNL     1       1.241   1.700  -5.960  0.00  0.00    -0.041 A 
ATOM     32  C   UNL     1       1.184   3.057  -6.107  0.00  0.00    +0.007 A 
ATOM     33  C   UNL     1       0.609   3.850  -5.124  0.00  0.00    -0.048 A 
ATOM     34  C   UNL     1       0.085   3.285  -3.981  0.00  0.00    +0.029 A 
ATOM     35  C   UNL     1       0.131   1.906  -3.809  0.00  0.00    +0.050 A 
ATOM     36  N   UNL     1      -0.386   1.314  -2.677  0.00  0.00    -0.322 N 
ATOM     37  H   UNL     1      -0.788   1.868  -1.989  0.00  0.00    +0.169 HD
ATOM     38  C   UNL     1      -0.346  -0.020  -2.513  0.00  0.00    +0.251 A 
ATOM     39  O   UNL     1      -0.817  -0.509  -1.501  0.00  0.00    -0.268 OA
ATOM     40  C   UNL     1       0.557   5.345  -5.308  0.00  0.00    +0.044 C 
ATOM     41  C   UNL     1       1.869   0.848  -7.033  0.00  0.00    +0.044 C 
ENDBRANCH  27  28
ENDBRANCH   1  27
TORSDOF 9
