REMARK  Name = ZINC20789053
REMARK  9 active torsions:
REMARK  status: ('A' for Active; 'I' for Inactive)
REMARK    1  A    between atoms: C_1  and  C_2
REMARK    2  A    between atoms: C_7  and  N_8
REMARK    3  A    between atoms: C_9  and  C_30
REMARK    4  A    between atoms: C_12  and  S_13
REMARK    5  A    between atoms: S_13  and  C_14
REMARK    6  A    between atoms: C_14  and  C_16
REMARK    7  A    between atoms: C_14  and  C_17
REMARK    8  A    between atoms: N_19  and  C_20
REMARK    9  A    between atoms: C_23  and  N_27
REMARK                            x       y       z     vdW  Elec       q    Type
REMARK                         _______ _______ _______ _____ _____    ______ ____
ROOT
ATOM      1  N   UNL     1       1.334  -0.404  -0.057  0.00  0.00    -0.270 N 
ATOM      2  C   UNL     1       0.010  -0.021  -0.051  0.00  0.00    +0.169 A 
ATOM      3  N   UNL     1      -0.011   1.292  -0.040  0.00  0.00    -0.128 NA
ATOM      4  N   UNL     1       1.189   1.751  -0.039  0.00  0.00    -0.122 NA
ATOM      5  C   UNL     1       2.053   0.759  -0.050  0.00  0.00    +0.197 A 
ENDROOT
BRANCH   1  12
ATOM      6  C   UNL     1       1.836  -1.676   2.438  0.00  0.00    +0.046 C 
ATOM      7  C   UNL     1       2.097  -2.369   1.125  0.00  0.00    -0.026 A 
ATOM      8  C   UNL     1       2.588  -3.659   1.110  0.00  0.00    +0.005 A 
ATOM      9  C   UNL     1       2.834  -4.293  -0.094  0.00  0.00    +0.000 A 
ATOM     10  C   UNL     1       2.582  -3.639  -1.287  0.00  0.00    +0.002 A 
ATOM     11  C   UNL     1       2.085  -2.350  -1.278  0.00  0.00    +0.026 A 
ATOM     12  C   UNL     1       1.838  -1.712  -0.070  0.00  0.00    +0.053 A 
ENDBRANCH   1  12
BRANCH   2  13
ATOM     13  C   UNL     1      -1.164  -0.919  -0.054  0.00  0.00    +0.022 A 
ATOM     14  C   UNL     1      -1.029  -2.281   0.239  0.00  0.00    +0.031 A 
ATOM     15  C   UNL     1      -2.151  -3.082   0.229  0.00  0.00    +0.111 A 
ATOM     16  N   UNL     1      -3.337  -2.582  -0.063  0.00  0.00    -0.263 NA
ATOM     17  C   UNL     1      -3.508  -1.305  -0.350  0.00  0.00    +0.111 A 
ATOM     18  C   UNL     1      -2.441  -0.432  -0.358  0.00  0.00    +0.031 A 
ENDBRANCH   2  13
BRANCH   5  19
ATOM     19  S   UNL     1       3.809   0.903  -0.054  0.00  0.00    -0.073 S 
BRANCH  19  20
ATOM     20  C   UNL     1       3.977   2.705  -0.039  0.00  0.00    +0.137 C 
ATOM     21  C   UNL     1       3.422   3.258   1.275  0.00  0.00    +0.029 C 
BRANCH  20  22
ATOM     22  C   UNL     1       5.433   3.075  -0.165  0.00  0.00    +0.230 C 
ATOM     23  O   UNL     1       6.290   2.261   0.105  0.00  0.00    -0.274 OA
ATOM     24  N   UNL     1       5.781   4.310  -0.576  0.00  0.00    -0.283 N 
ATOM     25  H   UNL     1       5.005   5.024  -0.891  0.00  0.00    +0.155 HD
BRANCH  24  26
ATOM     26  C   UNL     1       7.129   4.684  -0.603  0.00  0.00    +0.052 A 
ATOM     27  C   UNL     1       8.105   3.749  -0.922  0.00  0.00    +0.027 A 
ATOM     28  C   UNL     1       9.435   4.121  -0.948  0.00  0.00    +0.034 A 
ATOM     29  C   UNL     1       9.796   5.424  -0.657  0.00  0.00    +0.128 A 
ATOM     30  C   UNL     1       8.828   6.359  -0.339  0.00  0.00    +0.054 A 
ATOM     31  C   UNL     1       7.494   5.994  -0.317  0.00  0.00    +0.064 A 
ATOM     32 CL   UNL     1       6.278   7.169   0.075  0.00  0.00    -0.082 Cl
BRANCH  29  33
ATOM     33  N   UNL     1      11.222   5.819  -0.685  0.00  0.00    +0.056 N 
ATOM     34  O   UNL     1      12.076   4.997  -0.965  0.00  0.00    -0.126 OA
ATOM     35  O   UNL     1      11.542   6.966  -0.429  0.00  0.00    -0.126 OA
ENDBRANCH  29  33
ENDBRANCH  24  26
ENDBRANCH  20  22
ENDBRANCH  19  20
ENDBRANCH   5  19
TORSDOF 7
