REMARK  Name = ZINC39928727
REMARK  16 active torsions:
REMARK  status: ('A' for Active; 'I' for Inactive)
REMARK    1  A    between atoms: C_1  and  C_2
REMARK    2  A    between atoms: C_2  and  O_3
REMARK    3  A    between atoms: O_3  and  C_4
REMARK    4  A    between atoms: C_6  and  C_16
REMARK    5  A    between atoms: C_8  and  O_13
REMARK    6  A    between atoms: C_9  and  O_10
REMARK    7  A    between atoms: O_10  and  C_11
REMARK    8  A    between atoms: C_11  and  C_12
REMARK    9  A    between atoms: O_13  and  C_14
REMARK   10  A    between atoms: C_14  and  C_15
REMARK   11  A    between atoms: N_18  and  C_19
REMARK   12  A    between atoms: N_18  and  C_33
REMARK   13  A    between atoms: C_19  and  C_20
REMARK   14  A    between atoms: C_25  and  C_32
REMARK   15  A    between atoms: C_37  and  O_39
REMARK   16  A    between atoms: O_39  and  C_40
REMARK                            x       y       z     vdW  Elec       q    Type
REMARK                         _______ _______ _______ _____ _____    ______ ____
ROOT
ATOM      1  C   UNL     1       6.361  -7.935  -9.036  0.00  0.00    +0.251 C 
ATOM      2  O   UNL     1       6.869  -7.208  -9.868  0.00  0.00    -0.270 OA
ATOM      3  N   UNL     1       5.095  -8.367  -9.202  0.00  0.00    -0.266 N 
ENDROOT
BRANCH   1   6
ATOM      4  C   UNL     1       7.379  -8.426  -5.454  0.00  0.00    +0.166 A 
ATOM      5  C   UNL     1       6.657  -8.041  -6.567  0.00  0.00    +0.062 A 
ATOM      6  C   UNL     1       7.130  -8.345  -7.846  0.00  0.00    +0.044 A 
ATOM      7  C   UNL     1       8.334  -9.039  -7.995  0.00  0.00    +0.062 A 
ATOM      8  C   UNL     1       9.053  -9.422  -6.878  0.00  0.00    +0.166 A 
ATOM      9  C   UNL     1       8.581  -9.113  -5.605  0.00  0.00    +0.204 A 
BRANCH   4  10
ATOM     10  O   UNL     1       6.919  -8.129  -4.209  0.00  0.00    -0.488 OA
BRANCH  10  12
ATOM     11  C   UNL     1       5.326  -7.181  -2.658  0.00  0.00    +0.048 C 
ATOM     12  C   UNL     1       5.679  -7.423  -4.127  0.00  0.00    +0.226 C 
ENDBRANCH  10  12
ENDBRANCH   4  10
BRANCH   9  13
ATOM     13  O   UNL     1       9.292  -9.486  -4.509  0.00  0.00    -0.485 OA
BRANCH  13  14
ATOM     14  C   UNL     1       9.003 -10.771  -3.955  0.00  0.00    +0.226 C 
ATOM     15  C   UNL     1       9.895 -11.013  -2.736  0.00  0.00    +0.048 C 
ENDBRANCH  13  14
ENDBRANCH   9  13
BRANCH   8  16
ATOM     16  O   UNL     1      10.224 -10.098  -7.023  0.00  0.00    -0.488 OA
BRANCH  16  17
ATOM     17  C   UNL     1      10.180 -11.516  -6.851  0.00  0.00    +0.226 C 
ATOM     18  C   UNL     1      11.604 -12.055  -6.696  0.00  0.00    +0.048 C 
ENDBRANCH  16  17
ENDBRANCH   8  16
ENDBRANCH   1   6
BRANCH   3  19
ATOM     19  C   UNL     1       4.147  -7.537  -9.810  0.00  0.00    +0.040 A 
ATOM     20  C   UNL     1       4.040  -6.206  -9.427  0.00  0.00    +0.024 A 
ATOM     21  C   UNL     1       3.104  -5.387 -10.028  0.00  0.00    +0.005 A 
ATOM     22  C   UNL     1       2.272  -5.889 -11.010  0.00  0.00    +0.046 A 
ATOM     23  C   UNL     1       2.374  -7.218 -11.396  0.00  0.00    +0.122 A 
ATOM     24  C   UNL     1       3.316  -8.041 -10.801  0.00  0.00    +0.069 A 
BRANCH  23  25
ATOM     25  O   UNL     1       1.554  -7.710 -12.362  0.00  0.00    -0.495 OA
ATOM     26  C   UNL     1       0.687  -6.779 -13.014  0.00  0.00    +0.277 C 
ENDBRANCH  23  25
ENDBRANCH   3  19
BRANCH   3  27
ATOM     27  C   UNL     1       4.711  -9.705  -8.745  0.00  0.00    +0.131 C 
BRANCH  27  28
ATOM     28  C   UNL     1       4.295  -9.641  -7.274  0.00  0.00    +0.116 C 
ATOM     29  C   UNL     1       5.428 -10.212  -6.444  0.00  0.00    -0.003 C 
ATOM     30  C   UNL     1       5.142 -11.278  -5.644  0.00  0.00    -0.007 A 
ATOM     31  C   UNL     1       6.177 -11.891  -4.811  0.00  0.00    +0.012 A 
ATOM     32  C   UNL     1       5.846 -12.952  -4.030  0.00  0.00    -0.050 A 
ATOM     33  C   UNL     1       4.548 -13.461  -4.009  0.00  0.00    +0.005 A 
ATOM     34  C   UNL     1       3.543 -12.938  -4.759  0.00  0.00    +0.024 A 
ATOM     35  C   UNL     1       3.780 -11.837  -5.602  0.00  0.00    +0.040 A 
ATOM     36  N   UNL     1       2.786 -11.332  -6.333  0.00  0.00    -0.284 N 
ATOM     37  C   UNL     1       2.940 -10.301  -7.146  0.00  0.00    +0.226 C 
ATOM     38  O   UNL     1       1.995  -9.884  -7.788  0.00  0.00    -0.275 OA
ATOM     39  C   UNL     1       6.904 -13.591  -3.168  0.00  0.00    +0.044 C 
ATOM     40  H   UNL     1       1.909 -11.740  -6.265  0.00  0.00    +0.155 HD
ENDBRANCH  27  28
ENDBRANCH   3  27
TORSDOF 11
