REMARK  Name = ZINC19852655
REMARK  9 active torsions:
REMARK  status: ('A' for Active; 'I' for Inactive)
REMARK    1  A    between atoms: C_1  and  O_2
REMARK    2  A    between atoms: O_2  and  C_3
REMARK    3  A    between atoms: C_8  and  O_9
REMARK    4  A    between atoms: O_9  and  C_10
REMARK    5  A    between atoms: C_15  and  C_17
REMARK    6  A    between atoms: C_20  and  N_33
REMARK    7  A    between atoms: N_23  and  C_24
REMARK    8  A    between atoms: N_33  and  C_34
REMARK    9  A    between atoms: C_34  and  C_35
REMARK                            x       y       z     vdW  Elec       q    Type
REMARK                         _______ _______ _______ _____ _____    ______ ____
ROOT
ATOM      1  C   UNL     1       4.385   1.897   0.131  0.00  0.00    +0.142 C 
ATOM      2  C   UNL     1       5.848   1.394   0.065  0.00  0.00    +0.014 C 
ATOM      3  C   UNL     1       5.700  -0.070   0.556  0.00  0.00    -0.056 C 
ATOM      4  C   UNL     1       4.335  -0.495  -0.027  0.00  0.00    +0.070 C 
ATOM      5  N   UNL     1       3.568   0.737  -0.286  0.00  0.00    -0.289 NA
ENDROOT
BRANCH   1  16
ATOM      6  C   UNL     1       5.171   8.165   2.436  0.00  0.00    +0.162 A 
ATOM      7  C   UNL     1       4.561   7.916   1.221  0.00  0.00    +0.053 A 
ATOM      8  C   UNL     1       4.725   6.692   0.584  0.00  0.00    -0.038 A 
ATOM      9  C   UNL     1       5.511   5.721   1.166  0.00  0.00    -0.023 A 
ATOM     10  C   UNL     1       6.121   5.965   2.389  0.00  0.00    +0.054 A 
ATOM     11  C   UNL     1       5.957   7.181   3.027  0.00  0.00    +0.162 A 
ATOM     12  C   UNL     1       5.750   4.385   0.517  0.00  0.00    +0.143 C 
ATOM     13  N   UNL     1       4.838   4.210  -0.618  0.00  0.00    -0.296 N 
ATOM     14  C   UNL     1       4.662   5.355  -1.526  0.00  0.00    +0.113 C 
ATOM     15  C   UNL     1       4.020   6.491  -0.732  0.00  0.00    +0.054 C 
ATOM     16  C   UNL     1       4.182   3.050  -0.818  0.00  0.00    +0.233 C 
ATOM     17  O   UNL     1       3.430   2.933  -1.762  0.00  0.00    -0.274 OA
BRANCH   6  19
ATOM     18  C   UNL     1       4.186  10.329   2.383  0.00  0.00    +0.277 C 
ATOM     19  O   UNL     1       5.006   9.368   3.050  0.00  0.00    -0.491 OA
ENDBRANCH   6  19
BRANCH  11  20
ATOM     20  O   UNL     1       6.559   7.412   4.224  0.00  0.00    -0.491 OA
ATOM     21  C   UNL     1       7.350   6.354   4.768  0.00  0.00    +0.277 C 
ENDBRANCH  11  20
ENDBRANCH   1  16
BRANCH   5  22
ATOM     22  C   UNL     1       2.282   0.716   0.424  0.00  0.00    +0.066 C 
ATOM     23  C   UNL     1       1.401   1.909  -0.001  0.00  0.00    +0.054 C 
ATOM     24  C   UNL     1      -0.017   1.378   0.010  0.00  0.00    -0.043 A 
ATOM     25  C   UNL     1      -1.227   2.051   0.020  0.00  0.00    +0.004 A 
ATOM     26  C   UNL     1      -2.414   1.345   0.031  0.00  0.00    +0.000 A 
ATOM     27  C   UNL     1      -2.396  -0.037   0.023  0.00  0.00    +0.000 A 
ATOM     28  C   UNL     1      -1.190  -0.710   0.009  0.00  0.00    +0.004 A 
ATOM     29  C   UNL     1       0.002  -0.004   0.002  0.00  0.00    -0.043 A 
ATOM     30  C   UNL     1       1.433  -0.496  -0.014  0.00  0.00    +0.054 C 
ENDBRANCH   5  22
BRANCH   3  31
ATOM     31  N   UNL     1       6.778  -0.910   0.019  0.00  0.00    +0.382 N 
ATOM     32  H   UNL     1       6.501  -1.266  -0.984  0.00  0.00    -0.085 HD
ATOM     33  H   UNL     1       7.705  -0.321  -0.044  0.00  0.00    -0.085 HD
BRANCH  31  34
ATOM     34  C   UNL     1       7.018  -2.074   0.882  0.00  0.00    -0.079 C 
BRANCH  34  35
ATOM     35  C   UNL     1       8.146  -2.923   0.291  0.00  0.00    -0.028 C 
ATOM     36  C   UNL     1       7.699  -3.501  -1.053  0.00  0.00    +0.002 C 
ATOM     37  C   UNL     1       8.826  -4.350  -1.643  0.00  0.00    +0.000 C 
ATOM     38  C   UNL     1       9.161  -5.493  -0.683  0.00  0.00    +0.000 C 
ATOM     39  C   UNL     1       9.608  -4.915   0.661  0.00  0.00    +0.000 C 
ATOM     40  C   UNL     1       8.481  -4.066   1.252  0.00  0.00    +0.002 C 
ENDBRANCH  34  35
ENDBRANCH  31  34
ENDBRANCH   3  31
TORSDOF 7
