REMARK  Name = ZINC06832036
REMARK  9 active torsions:
REMARK  status: ('A' for Active; 'I' for Inactive)
REMARK    1  A    between atoms: C_1  and  C_2
REMARK    2  A    between atoms: C_2  and  C_15
REMARK    3  A    between atoms: N_3  and  N_4
REMARK    4  A    between atoms: C_8  and  C_11
REMARK    5  A    between atoms: C_18  and  O_21
REMARK    6  A    between atoms: O_21  and  C_22
REMARK    7  A    between atoms: C_22  and  C_23
REMARK    8  A    between atoms: N_25  and  C_26
REMARK    9  A    between atoms: N_25  and  C_27
REMARK                            x       y       z     vdW  Elec       q    Type
REMARK                         _______ _______ _______ _____ _____    ______ ____
ROOT
ATOM      1  C   UNL     1      -4.079   4.096   6.813  0.00  0.00    +0.068 C 
ATOM      2  C   UNL     1      -4.809   3.823   5.523  0.00  0.00    +0.063 C 
ATOM      3  N   UNL     1      -4.153   3.405   4.483  0.00  0.00    -0.186 NA
ENDROOT
BRANCH   3   4
ATOM      4  N   UNL     1      -2.769   3.207   4.561  0.00  0.00    -0.221 N 
ATOM      5  C   UNL     1      -2.068   2.759   3.448  0.00  0.00    +0.138 A 
ATOM      6  C   UNL     1      -0.692   2.564   3.532  0.00  0.00    +0.045 A 
ATOM      7  C   UNL     1      -0.007   2.118   2.416  0.00  0.00    +0.017 A 
ATOM      8  C   UNL     1      -0.722   1.881   1.250  0.00  0.00    +0.073 A 
ATOM      9  C   UNL     1      -2.085   2.100   1.236  0.00  0.00    +0.125 A 
ATOM     10  N   UNL     1      -2.714   2.521   2.316  0.00  0.00    -0.238 NA
ATOM     11  H   UNL     1      -2.299   3.382   5.391  0.00  0.00    +0.176 HD
BRANCH   8  12
ATOM     12  C   UNL     1      -0.017   1.395   0.010  0.00  0.00    +0.419 C 
ATOM     13  F   UNL     1       0.002  -0.004   0.002  0.00  0.00    -0.166 F 
ATOM     14  F   UNL     1       1.296   1.879  -0.000  0.00  0.00    -0.166 F 
ATOM     15  F   UNL     1      -0.694   1.858  -1.124  0.00  0.00    -0.166 F 
ENDBRANCH   8  12
ENDBRANCH   3   4
BRANCH   2  16
ATOM     16  C   UNL     1      -6.266   4.032   5.441  0.00  0.00    -0.002 A 
ATOM     17  C   UNL     1      -6.974   4.477   6.560  0.00  0.00    +0.013 A 
ATOM     18  C   UNL     1      -8.335   4.676   6.478  0.00  0.00    +0.046 A 
ATOM     19  C   UNL     1      -9.005   4.424   5.287  0.00  0.00    +0.121 A 
ATOM     20  C   UNL     1      -8.306   3.976   4.174  0.00  0.00    +0.046 A 
ATOM     21  C   UNL     1      -6.944   3.780   4.245  0.00  0.00    +0.013 A 
BRANCH  19  22
ATOM     22  O   UNL     1     -10.348   4.616   5.212  0.00  0.00    -0.483 OA
BRANCH  22  23
ATOM     23  C   UNL     1     -11.004   5.078   6.394  0.00  0.00    +0.324 C 
BRANCH  23  24
ATOM     24  C   UNL     1     -12.479   5.231   6.123  0.00  0.00    +0.253 C 
ATOM     25  O   UNL     1     -12.923   4.971   5.025  0.00  0.00    -0.272 OA
ATOM     26  N   UNL     1     -13.303   5.658   7.100  0.00  0.00    -0.305 N 
ATOM     27  C   UNL     1     -14.736   5.807   6.836  0.00  0.00    +0.131 C 
ATOM     28  C   UNL     1     -12.766   5.973   8.426  0.00  0.00    +0.131 C 
ENDBRANCH  23  24
ENDBRANCH  22  23
ENDBRANCH  19  22
ENDBRANCH   2  16
TORSDOF 6
