REMARK  Name = ZINC39609027
REMARK  9 active torsions:
REMARK  status: ('A' for Active; 'I' for Inactive)
REMARK    1  A    between atoms: C_1  and  C_2
REMARK    2  A    between atoms: C_2  and  O_3
REMARK    3  A    between atoms: O_3  and  C_4
REMARK    4  A    between atoms: C_9  and  C_10
REMARK    5  A    between atoms: C_14  and  C_23
REMARK    6  A    between atoms: N_25  and  C_26
REMARK    7  A    between atoms: C_31  and  O_33
REMARK    8  A    between atoms: O_33  and  C_34
REMARK    9  A    between atoms: C_34  and  C_35
REMARK                            x       y       z     vdW  Elec       q    Type
REMARK                         _______ _______ _______ _____ _____    ______ ____
ROOT
ATOM      1  C   UNL     1       1.977  -1.179  -3.671  0.00  0.00    +0.250 C 
ATOM      2  O   UNL     1       1.837   0.029  -3.679  0.00  0.00    -0.270 OA
ATOM      3  N   UNL     1       2.690  -1.781  -4.644  0.00  0.00    -0.296 N 
ATOM      4  C   UNL     1       2.880  -3.234  -4.863  0.00  0.00    +0.121 C 
ATOM      5  C   UNL     1       2.821  -3.408  -6.397  0.00  0.00    +0.100 C 
ATOM      6  C   UNL     1       3.205  -2.031  -6.963  0.00  0.00    -0.004 C 
ATOM      7  C   UNL     1       3.456  -1.139  -5.739  0.00  0.00    +0.115 C 
ATOM      8  C   UNL     1       2.059  -1.463  -7.796  0.00  0.00    -0.010 C 
ATOM      9  C   UNL     1       2.486  -0.120  -8.394  0.00  0.00    -0.082 C 
ATOM     10  N   UNL     1       3.677  -0.311  -9.231  0.00  0.00    +0.379 N 
ATOM     11  C   UNL     1       4.801  -0.769  -8.405  0.00  0.00    -0.082 C 
ATOM     12  C   UNL     1       4.472  -2.140  -7.807  0.00  0.00    -0.010 C 
ATOM     13  H   UNL     1       3.480  -1.001  -9.941  0.00  0.00    -0.086 HD
ATOM     14  H   UNL     1       3.920   0.563  -9.673  0.00  0.00    -0.086 HD
ENDROOT
BRANCH   1  20
ATOM     15  C   UNL     1       0.140  -1.601  -2.038  0.00  0.00    +0.133 A 
ATOM     16  C   UNL     1      -0.429  -2.369  -1.033  0.00  0.00    +0.046 A 
ATOM     17  C   UNL     1       0.214  -3.505  -0.583  0.00  0.00    +0.004 A 
ATOM     18  C   UNL     1       1.430  -3.885  -1.129  0.00  0.00    +0.001 A 
ATOM     19  C   UNL     1       2.008  -3.134  -2.129  0.00  0.00    +0.017 A 
ATOM     20  C   UNL     1       1.365  -1.985  -2.598  0.00  0.00    +0.078 A 
BRANCH  15  21
ATOM     21  O   UNL     1      -0.491  -0.484  -2.481  0.00  0.00    -0.491 OA
BRANCH  21  23
ATOM     22  C   UNL     1      -2.294   1.126  -2.490  0.00  0.00    +0.048 C 
ATOM     23  C   UNL     1      -1.737  -0.155  -1.864  0.00  0.00    +0.226 C 
ENDBRANCH  21  23
ENDBRANCH  15  21
ENDBRANCH   1  20
BRANCH   5  24
ATOM     24  C   UNL     1       1.427  -3.785  -6.830  0.00  0.00    +0.218 C 
ATOM     25  O   UNL     1       0.470  -3.404  -6.190  0.00  0.00    -0.275 OA
ATOM     26  N   UNL     1       1.245  -4.546  -7.927  0.00  0.00    -0.310 N 
ATOM     27  H   UNL     1       2.011  -4.851  -8.438  0.00  0.00    +0.149 HD
BRANCH  26  28
ATOM     28  C   UNL     1      -0.110  -4.913  -8.347  0.00  0.00    +0.102 C 
ATOM     29  C   UNL     1      -0.555  -6.198  -7.627  0.00  0.00    +0.025 C 
ATOM     30  C   UNL     1      -0.828  -7.247  -8.726  0.00  0.00    +0.004 C 
ATOM     31  C   UNL     1      -1.125  -6.403  -9.990  0.00  0.00    +0.033 C 
ATOM     32  C   UNL     1      -0.128  -5.224  -9.858  0.00  0.00    +0.139 C 
BRANCH  32  33
ATOM     33  O   UNL     1      -0.591  -4.091 -10.596  0.00  0.00    -0.370 OA
BRANCH  33  34
ATOM     34  C   UNL     1      -0.043  -3.992 -11.912  0.00  0.00    +0.195 C 
BRANCH  34  35
ATOM     35  C   UNL     1      -0.597  -2.768 -12.595  0.00  0.00    -0.022 A 
ATOM     36  C   UNL     1      -1.763  -2.855 -13.332  0.00  0.00    +0.006 A 
ATOM     37  C   UNL     1      -2.271  -1.732 -13.958  0.00  0.00    +0.000 A 
ATOM     38  C   UNL     1      -1.612  -0.522 -13.848  0.00  0.00    +0.000 A 
ATOM     39  C   UNL     1      -0.446  -0.435 -13.111  0.00  0.00    +0.000 A 
ATOM     40  C   UNL     1       0.060  -1.556 -12.481  0.00  0.00    +0.006 A 
ENDBRANCH  34  35
ENDBRANCH  33  34
ENDBRANCH  32  33
ENDBRANCH  26  28
ENDBRANCH   5  24
TORSDOF 8
