REMARK  Name = ZINC38938425
REMARK  10 active torsions:
REMARK  status: ('A' for Active; 'I' for Inactive)
REMARK    1  A    between atoms: C_1  and  C_2
REMARK    2  A    between atoms: C_2  and  O_3
REMARK    3  A    between atoms: O_3  and  C_4
REMARK    4  A    between atoms: C_4  and  C_6
REMARK    5  A    between atoms: C_7  and  C_36
REMARK    6  A    between atoms: C_14  and  C_15
REMARK    7  A    between atoms: C_25  and  C_27
REMARK    8  A    between atoms: C_30  and  C_33
REMARK    9  A    between atoms: C_33  and  C_34
REMARK   10  A    between atoms: C_33  and  C_35
REMARK                            x       y       z     vdW  Elec       q    Type
REMARK                         _______ _______ _______ _____ _____    ______ ____
ROOT
ATOM      1  C   UNL     1      -2.870  -2.505   0.139  0.00  0.00    +0.085 C 
ATOM      2  C   UNL     1      -3.037  -3.786  -0.302  0.00  0.00    +0.053 C 
ATOM      3  N   UNL     1      -4.253  -4.271  -0.525  0.00  0.00    -0.228 NA
ATOM      4  C   UNL     1      -5.365  -3.605  -0.355  0.00  0.00    +0.178 A 
ATOM      5  N   UNL     1      -5.423  -2.302   0.083  0.00  0.00    -0.275 N 
ATOM      6  C   UNL     1      -6.622  -1.721   0.219  0.00  0.00    +0.268 A 
ATOM      7  O   UNL     1      -6.723  -0.571   0.602  0.00  0.00    -0.266 OA
ATOM      8  C   UNL     1      -7.818  -2.523  -0.112  0.00  0.00    +0.080 A 
ATOM      9  C   UNL     1      -9.152  -2.173  -0.060  0.00  0.00    +0.026 C 
ATOM     10  S   UNL     1      -7.068  -4.070  -0.596  0.00  0.00    -0.046 S 
ATOM     11  C   UNL     1      -4.106  -1.665   0.369  0.00  0.00    +0.162 C 
ATOM     12  C   UNL     1      -1.830  -4.658  -0.537  0.00  0.00    +0.066 C 
ENDROOT
BRANCH   9  13
ATOM     13  C   UNL     1      -9.517  -0.838   0.129  0.00  0.00    -0.018 C 
ATOM     14  C   UNL     1     -10.801  -0.297   0.067  0.00  0.00    +0.003 A 
ATOM     15  C   UNL     1     -12.066  -0.869  -0.187  0.00  0.00    +0.010 A 
ATOM     16  C   UNL     1     -13.172  -0.083  -0.184  0.00  0.00    +0.001 A 
ATOM     17  C   UNL     1     -13.096   1.292   0.065  0.00  0.00    +0.002 A 
ATOM     18  C   UNL     1     -11.917   1.908   0.316  0.00  0.00    +0.026 A 
ATOM     19  C   UNL     1     -10.713   1.151   0.331  0.00  0.00    +0.043 A 
ATOM     20  N   UNL     1      -9.466   1.505   0.545  0.00  0.00    -0.380 N 
ATOM     21  C   UNL     1      -8.602   0.324   0.450  0.00  0.00    +0.149 C 
ATOM     22  H   UNL     1      -9.164   2.406   0.738  0.00  0.00    +0.160 HD
ENDBRANCH   9  13
BRANCH  11  23
ATOM     23  C   UNL     1      -4.104  -1.221   1.809  0.00  0.00    -0.020 A 
ATOM     24  C   UNL     1      -4.521  -2.089   2.801  0.00  0.00    +0.006 A 
ATOM     25  C   UNL     1      -4.518  -1.682   4.122  0.00  0.00    +0.004 A 
ATOM     26  C   UNL     1      -4.099  -0.406   4.451  0.00  0.00    -0.045 A 
ATOM     27  C   UNL     1      -3.682   0.462   3.459  0.00  0.00    +0.004 A 
ATOM     28  C   UNL     1      -3.679   0.052   2.139  0.00  0.00    +0.006 A 
BRANCH  26  29
ATOM     29  C   UNL     1      -4.098   0.038   5.891  0.00  0.00    +0.013 C 
ATOM     30  C   UNL     1      -2.675   0.417   6.306  0.00  0.00    +0.012 C 
ATOM     31  C   UNL     1      -5.015   1.252   6.051  0.00  0.00    +0.012 C 
ENDBRANCH  26  29
ENDBRANCH  11  23
BRANCH   1  32
ATOM     32  C   UNL     1      -1.586  -1.982   0.378  0.00  0.00    +0.339 C 
ATOM     33  O   UNL     1      -0.612  -2.711   0.318  0.00  0.00    -0.245 OA
BRANCH  32  34
ATOM     34  O   UNL     1      -1.433  -0.674   0.675  0.00  0.00    -0.462 OA
BRANCH  34  36
ATOM     35  C   UNL     1      -0.128   1.284   1.225  0.00  0.00    +0.048 C 
ATOM     36  C   UNL     1      -0.101  -0.212   0.906  0.00  0.00    +0.229 C 
ENDBRANCH  34  36
ENDBRANCH  32  34
ENDBRANCH   1  32
TORSDOF 6
