REMARK  Name = ZINC09338569
REMARK  7 active torsions:
REMARK  status: ('A' for Active; 'I' for Inactive)
REMARK    1  A    between atoms: C_1  and  C_2
REMARK    2  A    between atoms: C_2  and  C_4
REMARK    3  A    between atoms: C_2  and  S_18
REMARK    4  A    between atoms: N_6  and  C_7
REMARK    5  A    between atoms: C_8  and  C_15
REMARK    6  A    between atoms: S_18  and  C_19
REMARK    7  A    between atoms: N_23  and  C_24
REMARK                            x       y       z     vdW  Elec       q    Type
REMARK                         _______ _______ _______ _____ _____    ______ ____
ROOT
ATOM      1  C   UNL     1       2.714   0.526  -1.281  0.00  0.00    +0.029 C 
ATOM      2  C   UNL     1       2.415   0.865   0.181  0.00  0.00    +0.137 C 
ENDROOT
BRANCH   2   3
ATOM      3  C   UNL     1       1.091   1.580   0.270  0.00  0.00    +0.231 C 
ATOM      4  O   UNL     1       1.056   2.792   0.284  0.00  0.00    -0.274 OA
ATOM      5  N   UNL     1      -0.054   0.872   0.335  0.00  0.00    -0.278 N 
ATOM      6  H   UNL     1      -0.026  -0.098   0.324  0.00  0.00    +0.155 HD
BRANCH   5   7
ATOM      7  C   UNL     1      -1.272   1.530   0.412  0.00  0.00    +0.084 A 
ATOM      8  C   UNL     1      -2.542   0.983   0.474  0.00  0.00    +0.068 A 
ATOM      9  C   UNL     1      -3.674   1.906   0.554  0.00  0.00    -0.023 A 
ATOM     10  C   UNL     1      -3.347   3.211   0.548  0.00  0.00    -0.004 A 
ATOM     11  S   UNL     1      -1.574   3.233   0.445  0.00  0.00    -0.077 S 
ATOM     12  C   UNL     1      -4.561   4.096   0.630  0.00  0.00    +0.043 C 
ATOM     13  C   UNL     1      -5.690   3.165   1.125  0.00  0.00    +0.010 C 
ATOM     14  C   UNL     1      -5.196   1.788   0.639  0.00  0.00    +0.037 C 
BRANCH   8  15
ATOM     15  C   UNL     1      -2.746  -0.469   0.466  0.00  0.00    +0.244 C 
ATOM     16  O   UNL     1      -2.772  -1.086   1.514  0.00  0.00    -0.270 OA
ATOM     17  N   UNL     1      -2.903  -1.120  -0.704  0.00  0.00    -0.325 N 
ATOM     18  H   UNL     1      -2.881  -0.628  -1.540  0.00  0.00    +0.145 HD
ATOM     19  H   UNL     1      -3.037  -2.081  -0.710  0.00  0.00    +0.145 HD
ENDBRANCH   8  15
ENDBRANCH   5   7
ENDBRANCH   2   3
BRANCH   2  20
ATOM     20  S   UNL     1       3.726   1.936   0.833  0.00  0.00    -0.073 S 
BRANCH  20  21
ATOM     21  C   UNL     1       5.164   0.919   0.799  0.00  0.00    +0.198 A 
ATOM     22  N   UNL     1       5.220  -0.324   0.385  0.00  0.00    -0.120 NA
ATOM     23  N   UNL     1       6.542  -0.768   0.521  0.00  0.00    -0.112 NA
ATOM     24  C   UNL     1       7.253   0.217   1.013  0.00  0.00    +0.225 A 
ATOM     25  N   UNL     1       6.422   1.289   1.194  0.00  0.00    -0.259 N 
ATOM     26  N   UNL     1       8.612   0.180   1.297  0.00  0.00    -0.299 N 
ATOM     27  C   UNL     1       9.394  -0.110   0.088  0.00  0.00    +0.108 C 
ATOM     28  C   UNL     1      10.887   0.001   0.406  0.00  0.00    +0.019 C 
ATOM     29  C   UNL     1      11.242  -0.992   1.517  0.00  0.00    +0.003 C 
ATOM     30  C   UNL     1      10.379  -0.699   2.747  0.00  0.00    +0.019 C 
ATOM     31  C   UNL     1       8.901  -0.789   2.361  0.00  0.00    +0.108 C 
BRANCH  25  32
ATOM     32  C   UNL     1       6.793   2.545   1.697  0.00  0.00    +0.052 A 
ATOM     33  C   UNL     1       7.649   3.360   0.971  0.00  0.00    +0.026 A 
ATOM     34  C   UNL     1       8.008   4.598   1.467  0.00  0.00    +0.002 A 
ATOM     35  C   UNL     1       7.525   5.020   2.692  0.00  0.00    +0.000 A 
ATOM     36  C   UNL     1       6.676   4.208   3.420  0.00  0.00    +0.002 A 
ATOM     37  C   UNL     1       6.308   2.971   2.926  0.00  0.00    +0.026 A 
ENDBRANCH  25  32
ENDBRANCH  20  21
ENDBRANCH   2  20
TORSDOF 6
