REMARK  Name = ZINC67217360
REMARK  8 active torsions:
REMARK  status: ('A' for Active; 'I' for Inactive)
REMARK    1  A    between atoms: C_1  and  C_2
REMARK    2  A    between atoms: C_5  and  N_9
REMARK    3  A    between atoms: C_6  and  C_8
REMARK    4  A    between atoms: C_18  and  S_19
REMARK    5  A    between atoms: S_19  and  C_20
REMARK    6  A    between atoms: C_20  and  C_21
REMARK    7  A    between atoms: N_23  and  C_24
REMARK    8  A    between atoms: C_24  and  C_25
REMARK                            x       y       z     vdW  Elec       q    Type
REMARK                         _______ _______ _______ _____ _____    ______ ____
ROOT
ATOM      1  N   UNL     1       0.057  -4.171  -0.021  0.00  0.00    -0.255 N 
ATOM      2  C   UNL     1      -1.102  -4.872  -0.024  0.00  0.00    +0.274 A 
ATOM      3  O   UNL     1      -2.179  -4.300  -0.021  0.00  0.00    -0.266 OA
ATOM      4  C   UNL     1      -1.032  -6.262  -0.033  0.00  0.00    +0.102 A 
ATOM      5  C   UNL     1       0.201  -6.938  -0.037  0.00  0.00    +0.086 A 
ATOM      6  C   UNL     1       0.122  -8.338  -0.045  0.00  0.00    +0.036 A 
ATOM      7  C   UNL     1      -1.082  -8.950  -0.047  0.00  0.00    +0.048 A 
ATOM      8  S   UNL     1      -2.222  -7.577  -0.039  0.00  0.00    -0.090 S 
ATOM      9  N   UNL     1       1.319  -6.152  -0.033  0.00  0.00    -0.222 NA
ATOM     10  C   UNL     1       1.246  -4.848  -0.031  0.00  0.00    +0.177 A 
ENDROOT
BRANCH   1  15
ATOM     11  C   UNL     1      -0.018   1.503   0.010  0.00  0.00    +0.044 C 
ATOM     12  C   UNL     1       0.002  -0.004   0.002  0.00  0.00    -0.050 A 
ATOM     13  C   UNL     1       0.006  -0.688  -1.200  0.00  0.00    +0.005 A 
ATOM     14  C   UNL     1       0.024  -2.068  -1.211  0.00  0.00    +0.027 A 
ATOM     15  C   UNL     1       0.039  -2.771  -0.013  0.00  0.00    +0.055 A 
ATOM     16  C   UNL     1       0.036  -2.082   1.192  0.00  0.00    -0.026 A 
ATOM     17  C   UNL     1       0.023  -0.700   1.196  0.00  0.00    +0.008 A 
ATOM     18  C   UNL     1       0.052  -2.840   2.494  0.00  0.00    +0.046 C 
ENDBRANCH   1  15
BRANCH  10  19
ATOM     19  S   UNL     1       2.744  -3.921  -0.033  0.00  0.00    -0.078 S 
BRANCH  19  20
ATOM     20  C   UNL     1       4.043  -5.186  -0.047  0.00  0.00    +0.173 C 
BRANCH  20  21
ATOM     21  C   UNL     1       5.395  -4.518  -0.050  0.00  0.00    +0.224 C 
ATOM     22  O   UNL     1       5.473  -3.308  -0.043  0.00  0.00    -0.275 OA
ATOM     23  N   UNL     1       6.516  -5.266  -0.059  0.00  0.00    -0.311 N 
ATOM     24  H   UNL     1       6.453  -6.234  -0.065  0.00  0.00    +0.149 HD
BRANCH  23  25
ATOM     25  C   UNL     1       7.829  -4.617  -0.062  0.00  0.00    +0.139 C 
BRANCH  25  26
ATOM     26  C   UNL     1       8.909  -5.668  -0.074  0.00  0.00    -0.027 A 
ATOM     27  C   UNL     1       9.405  -6.161   1.119  0.00  0.00    +0.009 A 
ATOM     28  C   UNL     1      10.395  -7.125   1.114  0.00  0.00    +0.050 A 
ATOM     29  C   UNL     1      10.893  -7.601  -0.088  0.00  0.00    +0.166 A 
ATOM     30  C   UNL     1      10.393  -7.105  -1.290  0.00  0.00    +0.167 A 
ATOM     31  C   UNL     1       9.397  -6.143  -1.277  0.00  0.00    +0.054 A 
ATOM     32  O   UNL     1      11.039  -7.726  -2.320  0.00  0.00    -0.453 OA
ATOM     33  C   UNL     1      12.222  -8.306  -1.739  0.00  0.00    +0.466 C 
ATOM     34  O   UNL     1      11.852  -8.532  -0.365  0.00  0.00    -0.453 OA
ENDBRANCH  25  26
ENDBRANCH  23  25
ENDBRANCH  20  21
ENDBRANCH  19  20
ENDBRANCH  10  19
TORSDOF 6
