REMARK  Name = ZINC39370942
REMARK  8 active torsions:
REMARK  status: ('A' for Active; 'I' for Inactive)
REMARK    1  A    between atoms: C_1  and  C_2
REMARK    2  A    between atoms: C_4  and  C_25
REMARK    3  A    between atoms: C_5  and  C_24
REMARK    4  A    between atoms: C_6  and  C_9
REMARK    5  A    between atoms: C_7  and  C_8
REMARK    6  A    between atoms: C_11  and  C_22
REMARK    7  A    between atoms: C_12  and  N_21
REMARK    8  A    between atoms: C_17  and  C_20
REMARK                            x       y       z     vdW  Elec       q    Type
REMARK                         _______ _______ _______ _____ _____    ______ ____
ROOT
ATOM      1  C   UNL     1       0.054  -2.844   2.489  0.00  0.00    +0.098 C 
ATOM      2  C   UNL     1       1.262  -2.444   3.316  0.00  0.00    +0.097 C 
ATOM      3  C   UNL     1       1.143  -2.050   4.601  0.00  0.00    +0.195 C 
ATOM      4  O   UNL     1       0.000  -1.932   5.303  0.00  0.00    -0.448 OA
ATOM      5  C   UNL     1      -1.134  -2.669   4.840  0.00  0.00    +0.343 C 
ATOM      6  C   UNL     1      -1.145  -2.478   3.320  0.00  0.00    +0.030 C 
ATOM      7  C   UNL     1      -2.321  -1.970   3.049  0.00  0.00    +0.066 C 
ATOM      8  N   UNL     1      -3.004  -1.724   4.196  0.00  0.00    -0.155 NA
ATOM      9  N   UNL     1      -2.404  -2.060   5.245  0.00  0.00    -0.138 NA
ATOM     10  C   UNL     1      -2.842  -1.698   1.661  0.00  0.00    +0.067 C 
ENDROOT
BRANCH   1  16
ATOM     11  C   UNL     1      -0.018   1.503   0.010  0.00  0.00    +0.044 C 
ATOM     12  C   UNL     1       0.002  -0.004   0.002  0.00  0.00    -0.047 A 
ATOM     13  C   UNL     1       0.006  -0.689  -1.199  0.00  0.00    +0.007 A 
ATOM     14  C   UNL     1       0.025  -2.071  -1.206  0.00  0.00    -0.047 A 
ATOM     15  C   UNL     1       0.040  -2.768  -0.013  0.00  0.00    -0.043 A 
ATOM     16  C   UNL     1       0.037  -2.084   1.188  0.00  0.00    -0.029 A 
ATOM     17  C   UNL     1       0.023  -0.702   1.195  0.00  0.00    -0.043 A 
ATOM     18  C   UNL     1       0.025   0.045   2.505  0.00  0.00    +0.044 C 
ATOM     19  C   UNL     1       0.059  -4.275  -0.021  0.00  0.00    +0.044 C 
ATOM     20  C   UNL     1       0.027  -2.817  -2.516  0.00  0.00    +0.044 C 
ENDBRANCH   1  16
BRANCH   3  21
ATOM     21  N   UNL     1       2.305  -1.738   5.260  0.00  0.00    -0.329 N 
ATOM     22  H   UNL     1       3.156  -1.806   4.800  0.00  0.00    +0.145 HD
ATOM     23  H   UNL     1       2.276  -1.449   6.185  0.00  0.00    +0.145 HD
ENDBRANCH   3  21
BRANCH   2  24
ATOM     24  C   UNL     1       2.562  -2.486   2.717  0.00  0.00    +0.101 C 
ATOM     25  N   UNL     1       3.593  -2.519   2.242  0.00  0.00    -0.191 NA
ENDBRANCH   2  24
TORSDOF 3
