REMARK  Name = ZINC22132786
REMARK  11 active torsions:
REMARK  status: ('A' for Active; 'I' for Inactive)
REMARK    1  A    between atoms: C_1  and  C_2
REMARK    2  A    between atoms: C_2  and  C_4
REMARK    3  A    between atoms: C_2  and  S_19
REMARK    4  A    between atoms: C_4  and  C_6
REMARK    5  A    between atoms: C_8  and  C_17
REMARK    6  A    between atoms: C_8  and  C_18
REMARK    7  A    between atoms: N_15  and  C_16
REMARK    8  A    between atoms: S_19  and  C_20
REMARK    9  A    between atoms: C_22  and  C_25
REMARK   10  A    between atoms: C_28  and  O_31
REMARK   11  A    between atoms: O_31  and  C_32
REMARK                            x       y       z     vdW  Elec       q    Type
REMARK                         _______ _______ _______ _____ _____    ______ ____
ROOT
ATOM      1  C   UNL     1      -1.046  10.375  -0.733  0.00  0.00    +0.028 C 
ATOM      2  C   UNL     1      -1.042   9.638   0.608  0.00  0.00    +0.122 C 
ENDROOT
BRANCH   2   3
ATOM      3  C   UNL     1      -0.812   8.168   0.372  0.00  0.00    +0.171 C 
ATOM      4  O   UNL     1       0.311   7.709   0.447  0.00  0.00    -0.291 OA
BRANCH   3   5
ATOM      5  C   UNL     1      -1.893   7.329   0.067  0.00  0.00    +0.067 C 
ATOM      6  C   UNL     1      -1.706   5.990  -0.033  0.00  0.00    +0.024 C 
ATOM      7  C   UNL     1      -0.390   5.253   0.094  0.00  0.00    +0.030 C 
ATOM      8  C   UNL     1      -0.761   3.800  -0.100  0.00  0.00    -0.015 A 
ATOM      9  C   UNL     1      -0.018   2.640  -0.099  0.00  0.00    +0.006 A 
ATOM     10  C   UNL     1      -0.641   1.422  -0.309  0.00  0.00    +0.000 A 
ATOM     11  C   UNL     1      -2.007   1.374  -0.519  0.00  0.00    +0.002 A 
ATOM     12  C   UNL     1      -2.752   2.534  -0.525  0.00  0.00    +0.024 A 
ATOM     13  C   UNL     1      -2.133   3.765  -0.310  0.00  0.00    +0.038 A 
ATOM     14  N   UNL     1      -2.664   5.053  -0.267  0.00  0.00    -0.305 N 
ATOM     15  C   UNL     1      -4.084   5.362  -0.450  0.00  0.00    +0.135 C 
ATOM     16  C   UNL     1       0.214   5.470   1.483  0.00  0.00    +0.022 C 
ATOM     17  C   UNL     1       0.586   5.706  -0.993  0.00  0.00    +0.022 C 
ENDBRANCH   3   5
ENDBRANCH   2   3
BRANCH   2  18
ATOM     18  S   UNL     1       0.280  10.296   1.655  0.00  0.00    -0.075 S 
BRANCH  18  19
ATOM     19  C   UNL     1      -0.304  11.942   1.888  0.00  0.00    +0.185 A 
ATOM     20  N   UNL     1       0.305  12.922   2.620  0.00  0.00    -0.201 NA
ATOM     21  C   UNL     1      -0.509  14.025   2.512  0.00  0.00    +0.182 A 
ATOM     22  N   UNL     1      -1.525  13.682   1.755  0.00  0.00    -0.152 NA
ATOM     23  N   UNL     1      -1.406  12.455   1.391  0.00  0.00    -0.253 N 
ATOM     24  H   UNL     1      -2.174  11.994   0.752  0.00  0.00    +0.191 HD
BRANCH  21  25
ATOM     25  C   UNL     1      -0.282  15.348   3.131  0.00  0.00    +0.021 A 
ATOM     26  C   UNL     1       0.853  15.570   3.913  0.00  0.00    +0.015 A 
ATOM     27  C   UNL     1       1.063  16.806   4.485  0.00  0.00    +0.046 A 
ATOM     28  C   UNL     1       0.142  17.828   4.293  0.00  0.00    +0.120 A 
ATOM     29  C   UNL     1      -0.991  17.610   3.520  0.00  0.00    +0.046 A 
ATOM     30  C   UNL     1      -1.206  16.378   2.940  0.00  0.00    +0.015 A 
BRANCH  28  31
ATOM     31  O   UNL     1       0.350  19.044   4.862  0.00  0.00    -0.495 OA
ATOM     32  C   UNL     1       1.536  19.199   5.645  0.00  0.00    +0.277 C 
ENDBRANCH  28  31
ENDBRANCH  21  25
ENDBRANCH  18  19
ENDBRANCH   2  18
TORSDOF 6
