REMARK  Name = ZINC22607489
REMARK  11 active torsions:
REMARK  status: ('A' for Active; 'I' for Inactive)
REMARK    1  A    between atoms: C_1  and  C_2
REMARK    2  A    between atoms: C_5  and  N_8
REMARK    3  A    between atoms: C_14  and  C_19
REMARK    4  A    between atoms: C_19  and  C_20
REMARK    5  A    between atoms: N_22  and  C_23
REMARK    6  A    between atoms: C_25  and  C_33
REMARK    7  A    between atoms: C_27  and  C_29
REMARK    8  A    between atoms: C_29  and  O_31
REMARK    9  A    between atoms: O_31  and  C_32
REMARK   10  A    between atoms: C_33  and  O_35
REMARK   11  A    between atoms: O_35  and  C_36
REMARK                            x       y       z     vdW  Elec       q    Type
REMARK                         _______ _______ _______ _____ _____    ______ ____
ROOT
ATOM      1  N   UNL     1       0.068  -4.348   0.109  0.00  0.00    -0.215 NA
ATOM      2  C   UNL     1       1.040  -4.872   0.818  0.00  0.00    +0.202 C 
ATOM      3  N   UNL     1       1.279  -6.222   0.762  0.00  0.00    -0.369 N 
ATOM      4  N   UNL     1       1.819  -4.068   1.618  0.00  0.00    -0.295 N 
ATOM      5  C   UNL     1       2.784  -4.631   2.434  0.00  0.00    +0.230 C 
ATOM      6  N   UNL     1       3.492  -3.949   3.290  0.00  0.00    -0.236 NA
ATOM      7  C   UNL     1       4.390  -4.914   3.949  0.00  0.00    +0.208 C 
ATOM      8  C   UNL     1       4.031  -6.231   3.289  0.00  0.00    +0.274 C 
ATOM      9  O   UNL     1       4.568  -7.439   3.536  0.00  0.00    -0.268 OA
ATOM     10  N   UNL     1       3.087  -5.946   2.434  0.00  0.00    -0.176 NA
ATOM     11  H   UNL     1       0.798  -6.774   0.125  0.00  0.00    +0.159 HD
ATOM     12  H   UNL     1       1.692  -3.106   1.609  0.00  0.00    +0.172 HD
ATOM     13  H   UNL     1       1.929  -6.625   1.359  0.00  0.00    +0.159 HD
ENDROOT
BRANCH   1  18
ATOM     14  C   UNL     1      -0.997   1.187   0.434  0.00  0.00    +0.044 C 
ATOM     15  C   UNL     1      -0.713  -0.290   0.347  0.00  0.00    -0.050 A 
ATOM     16  C   UNL     1      -0.428  -0.866  -0.878  0.00  0.00    +0.005 A 
ATOM     17  C   UNL     1      -0.167  -2.217  -0.965  0.00  0.00    +0.028 A 
ATOM     18  C   UNL     1      -0.190  -3.005   0.188  0.00  0.00    +0.068 A 
ATOM     19  C   UNL     1      -0.477  -2.417   1.421  0.00  0.00    +0.028 A 
ATOM     20  C   UNL     1      -0.732  -1.063   1.494  0.00  0.00    +0.005 A 
ENDBRANCH   1  18
BRANCH   7  21
ATOM     21  C   UNL     1       5.854  -4.556   3.685  0.00  0.00    +0.132 C 
BRANCH  21  22
ATOM     22  C   UNL     1       6.181  -3.249   4.361  0.00  0.00    +0.220 C 
ATOM     23  O   UNL     1       5.328  -2.662   4.992  0.00  0.00    -0.275 OA
ATOM     24  N   UNL     1       7.423  -2.733   4.265  0.00  0.00    -0.285 N 
ATOM     25  H   UNL     1       8.082  -3.159   3.695  0.00  0.00    +0.155 HD
BRANCH  24  26
ATOM     26  C   UNL     1       7.760  -1.583   4.987  0.00  0.00    +0.035 A 
ATOM     27  C   UNL     1       7.202  -1.362   6.238  0.00  0.00    +0.038 A 
ATOM     28  C   UNL     1       7.537  -0.215   6.961  0.00  0.00    +0.062 A 
ATOM     29  C   UNL     1       8.433   0.708   6.425  0.00  0.00    +0.030 A 
ATOM     30  C   UNL     1       8.992   0.483   5.169  0.00  0.00    +0.062 A 
ATOM     31  C   UNL     1       8.657  -0.669   4.453  0.00  0.00    +0.038 A 
BRANCH  30  32
ATOM     32  C   UNL     1       9.942   1.459   4.596  0.00  0.00    +0.339 C 
ATOM     33  O   UNL     1      10.429   1.262   3.501  0.00  0.00    -0.245 OA
BRANCH  32  34
ATOM     34  O   UNL     1      10.269   2.567   5.289  0.00  0.00    -0.464 OA
ATOM     35  C   UNL     1      11.194   3.467   4.675  0.00  0.00    +0.280 C 
ENDBRANCH  32  34
ENDBRANCH  30  32
BRANCH  28  36
ATOM     36  C   UNL     1       6.941   0.019   8.293  0.00  0.00    +0.339 C 
ATOM     37  O   UNL     1       6.160  -0.786   8.759  0.00  0.00    -0.245 OA
BRANCH  36  38
ATOM     38  O   UNL     1       7.264   1.125   8.990  0.00  0.00    -0.464 OA
ATOM     39  C   UNL     1       6.651   1.288  10.270  0.00  0.00    +0.280 C 
ENDBRANCH  36  38
ENDBRANCH  28  36
ENDBRANCH  24  26
ENDBRANCH  21  22
ENDBRANCH   7  21
TORSDOF 8
