REMARK  Name = ZINC04574498
REMARK  18 active torsions:
REMARK  status: ('A' for Active; 'I' for Inactive)
REMARK    1  A    between atoms: C_1  and  C_2
REMARK    2  A    between atoms: C_2  and  C_3
REMARK    3  A    between atoms: C_3  and  C_5
REMARK    4  A    between atoms: C_3  and  C_6
REMARK    5  A    between atoms: C_6  and  C_8
REMARK    6  A    between atoms: C_6  and  N_11
REMARK    7  A    between atoms: C_12  and  C_14
REMARK    8  A    between atoms: C_20  and  C_22
REMARK    9  A    between atoms: C_22  and  C_24
REMARK   10  A    between atoms: C_22  and  N_28
REMARK   11  A    between atoms: C_24  and  C_25
REMARK   12  A    between atoms: C_25  and  C_26
REMARK   13  A    between atoms: C_25  and  C_27
REMARK   14  A    between atoms: C_29  and  O_31
REMARK   15  A    between atoms: O_31  and  C_32
REMARK   16  A    between atoms: C_32  and  C_33
REMARK   17  A    between atoms: C_32  and  C_34
REMARK   18  A    between atoms: C_32  and  C_35
REMARK                            x       y       z     vdW  Elec       q    Type
REMARK                         _______ _______ _______ _____ _____    ______ ____
ROOT
ATOM      1  C   UNL     1      -1.115   2.753  -1.361  0.00  0.00    +0.162 C 
ATOM      2  C   UNL     1      -0.004   3.288  -0.424  0.00  0.00    +0.033 C 
ATOM      3  C   UNL     1       0.440   1.991   0.309  0.00  0.00    +0.021 C 
ATOM      4  C   UNL     1       0.305   0.914  -0.788  0.00  0.00    +0.109 C 
ATOM      5  N   UNL     1      -0.638   1.426  -1.793  0.00  0.00    -0.288 N 
ATOM      6  C   UNL     1      -1.006   0.789  -2.922  0.00  0.00    +0.237 C 
ATOM      7  O   UNL     1      -1.851   1.274  -3.645  0.00  0.00    -0.274 OA
ENDROOT
BRANCH   1   9
ATOM      8  N   UNL     1      -2.193   4.655  -2.518  0.00  0.00    -0.302 N 
ATOM      9  C   UNL     1      -1.281   3.663  -2.551  0.00  0.00    +0.234 C 
ATOM     10  O   UNL     1      -0.594   3.503  -3.537  0.00  0.00    -0.274 OA
ATOM     11  H   UNL     1      -2.742   4.783  -1.729  0.00  0.00    +0.150 HD
BRANCH   8  12
ATOM     12  C   UNL     1      -2.354   5.540  -3.674  0.00  0.00    +0.161 C 
BRANCH  12  13
ATOM     13  C   UNL     1      -1.347   6.659  -3.595  0.00  0.00    +0.231 C 
ATOM     14  O   UNL     1      -0.742   6.858  -2.563  0.00  0.00    -0.274 OA
ATOM     15  N   UNL     1      -1.118   7.437  -4.672  0.00  0.00    -0.328 N 
ATOM     16  H   UNL     1      -1.652   7.324  -5.474  0.00  0.00    +0.145 HD
ATOM     17  H   UNL     1      -0.420   8.109  -4.644  0.00  0.00    +0.145 HD
ENDBRANCH  12  13
BRANCH  12  18
ATOM     18  C   UNL     1      -3.767   6.126  -3.675  0.00  0.00    +0.015 C 
ATOM     19  C   UNL     1      -4.787   4.996  -3.829  0.00  0.00    +0.010 C 
BRANCH  18  21
ATOM     20  C   UNL     1      -5.391   7.530  -2.397  0.00  0.00    +0.004 C 
ATOM     21  C   UNL     1      -4.016   6.861  -2.357  0.00  0.00    +0.002 C 
ENDBRANCH  18  21
ENDBRANCH  12  18
ENDBRANCH   8  12
ENDBRANCH   1   9
BRANCH   6  22
ATOM     22  C   UNL     1      -0.366  -0.526  -3.287  0.00  0.00    +0.162 C 
BRANCH  22  23
ATOM     23  N   UNL     1      -0.779  -0.912  -4.639  0.00  0.00    -0.270 N 
ATOM     24  C   UNL     1      -0.018  -1.758  -5.360  0.00  0.00    +0.401 C 
ATOM     25  O   UNL     1       1.056  -2.128  -4.928  0.00  0.00    -0.226 OA
ATOM     26  H   UNL     1      -1.601  -0.558  -5.014  0.00  0.00    +0.153 HD
BRANCH  24  27
ATOM     27  O   UNL     1      -0.447  -2.193  -6.560  0.00  0.00    -0.445 OA
BRANCH  27  28
ATOM     28  C   UNL     1       0.424  -3.103  -7.282  0.00  0.00    +0.107 C 
ATOM     29  C   UNL     1       0.652  -4.363  -6.445  0.00  0.00    +0.055 C 
ATOM     30  C   UNL     1      -0.227  -3.485  -8.612  0.00  0.00    +0.055 C 
ATOM     31  C   UNL     1       1.767  -2.418  -7.549  0.00  0.00    +0.055 C 
ENDBRANCH  27  28
ENDBRANCH  24  27
ENDBRANCH  22  23
BRANCH  22  32
ATOM     32  C   UNL     1      -0.809  -1.602  -2.292  0.00  0.00    +0.035 C 
BRANCH  32  33
ATOM     33  C   UNL     1      -2.315  -1.834  -2.430  0.00  0.00    -0.015 C 
ATOM     34  C   UNL     1      -2.708  -3.098  -1.662  0.00  0.00    +0.007 C 
ATOM     35  C   UNL     1      -3.071  -0.634  -1.857  0.00  0.00    +0.007 C 
ENDBRANCH  32  33
ENDBRANCH  22  32
ENDBRANCH   6  22
TORSDOF 11
