REMARK  Name = ZINC02450854
REMARK  8 active torsions:
REMARK  status: ('A' for Active; 'I' for Inactive)
REMARK    1  A    between atoms: C_1  and  N_2
REMARK    2  A    between atoms: N_2  and  C_3
REMARK    3  A    between atoms: N_2  and  C_30
REMARK    4  A    between atoms: C_3  and  C_4
REMARK    5  A    between atoms: C_5  and  C_15
REMARK    6  A    between atoms: N_17  and  N_18
REMARK    7  A    between atoms: C_19  and  C_20
REMARK    8  A    between atoms: C_23  and  C_26
REMARK                            x       y       z     vdW  Elec       q    Type
REMARK                         _______ _______ _______ _____ _____    ______ ____
ROOT
ATOM      1  C   UNL     1       3.121  -2.200  -0.045  0.00  0.00    +0.063 A 
ATOM      2  C   UNL     1       3.084  -3.566  -0.048  0.00  0.00    +0.170 A 
ATOM      3  N   UNL     1       1.798  -3.957  -0.037  0.00  0.00    -0.124 NA
ATOM      4  N   UNL     1       1.032  -2.922  -0.024  0.00  0.00    -0.058 NA
ATOM      5  N   UNL     1       1.838  -1.775  -0.025  0.00  0.00    -0.194 N 
ATOM      6  C   UNL     1       1.399  -0.446  -0.014  0.00  0.00    +0.240 A 
ATOM      7  C   UNL     1       0.002  -0.004   0.002  0.00  0.00    +0.206 A 
ATOM      8  N   UNL     1      -0.016   1.300   0.009  0.00  0.00    -0.032 NA
ATOM      9  O   UNL     1       1.327   1.753  -0.001  0.00  0.00    -0.239 OA
ATOM     10  N   UNL     1       2.164   0.609  -0.015  0.00  0.00    -0.027 NA
ATOM     11  N   UNL     1      -1.114  -0.833   0.009  0.00  0.00    -0.337 N 
ATOM     12  H   UNL     1      -2.123  -0.397   0.021  0.00  0.00    +0.144 HD
ATOM     13  H   UNL     1      -0.987  -1.926   0.002  0.00  0.00    +0.144 HD
ENDROOT
BRANCH   2  14
ATOM     14  C   UNL     1       4.256  -4.460  -0.065  0.00  0.00    +0.285 C 
ATOM     15  O   UNL     1       5.379  -3.991  -0.073  0.00  0.00    -0.267 OA
ATOM     16  N   UNL     1       4.085  -5.796  -0.071  0.00  0.00    -0.202 N 
ATOM     17  H   UNL     1       3.070  -6.221  -0.063  0.00  0.00    +0.178 HD
BRANCH  16  18
ATOM     18  N   UNL     1       5.199  -6.646  -0.087  0.00  0.00    -0.187 NA
ATOM     19  C   UNL     1       5.033  -7.933  -0.093  0.00  0.00    +0.138 C 
BRANCH  19  20
ATOM     20  C   UNL     1       6.206  -8.827  -0.110  0.00  0.00    -0.005 A 
ATOM     21  C   UNL     1       7.496  -8.292  -0.126  0.00  0.00    +0.010 A 
ATOM     22  C   UNL     1       8.588  -9.135  -0.136  0.00  0.00    +0.013 A 
ATOM     23  C   UNL     1       8.408 -10.507  -0.142  0.00  0.00    +0.055 A 
ATOM     24  C   UNL     1       7.133 -11.043  -0.132  0.00  0.00    +0.013 A 
ATOM     25  C   UNL     1       6.031 -10.213  -0.116  0.00  0.00    +0.010 A 
BRANCH  23  26
ATOM     26  C   UNL     1       9.606 -11.420  -0.161  0.00  0.00    +0.417 C 
ATOM     27  F   UNL     1       9.963 -11.695  -1.485  0.00  0.00    -0.166 F 
ATOM     28  F   UNL     1      10.677 -10.799   0.492  0.00  0.00    -0.166 F 
ATOM     29  F   UNL     1       9.291 -12.616   0.495  0.00  0.00    -0.166 F 
ENDBRANCH  23  26
ENDBRANCH  19  20
ENDBRANCH  16  18
ENDBRANCH   2  14
BRANCH   1  30
ATOM     30  C   UNL     1       4.355  -1.335  -0.059  0.00  0.00    -0.020 C 
BRANCH  30  32
ATOM     31  C   UNL     1       5.218  -2.289   1.992  0.00  0.00    -0.095 C 
ATOM     32  N   UNL     1       4.775  -1.059   1.322  0.00  0.00    +0.383 N 
ATOM     33  H   UNL     1       3.904  -0.671   1.869  0.00  0.00    -0.081 HD
BRANCH  32  34
ATOM     34  C   UNL     1       5.825  -0.033   1.357  0.00  0.00    -0.068 C 
ATOM     35  C   UNL     1       7.083  -0.566   0.669  0.00  0.00    -0.015 C 
ATOM     36  C   UNL     1       8.177   0.504   0.707  0.00  0.00    -0.002 C 
ATOM     37  C   UNL     1       8.500   0.853   2.161  0.00  0.00    -0.000 C 
ATOM     38  C   UNL     1       7.241   1.386   2.849  0.00  0.00    -0.002 C 
ATOM     39  C   UNL     1       6.148   0.316   2.812  0.00  0.00    -0.015 C 
ENDBRANCH  32  34
ENDBRANCH  30  32
ENDBRANCH   1  30
TORSDOF 7
