REMARK  Name = ZINC18180898
REMARK  11 active torsions:
REMARK  status: ('A' for Active; 'I' for Inactive)
REMARK    1  A    between atoms: C_1  and  C_2
REMARK    2  A    between atoms: C_2  and  C_3
REMARK    3  A    between atoms: C_15  and  C_17
REMARK    4  A    between atoms: C_20  and  C_23
REMARK    5  A    between atoms: C_27  and  C_30
REMARK    6  A    between atoms: C_32  and  O_40
REMARK    7  A    between atoms: C_33  and  O_38
REMARK    8  A    between atoms: C_34  and  O_36
REMARK    9  A    between atoms: O_36  and  C_37
REMARK   10  A    between atoms: O_38  and  C_39
REMARK   11  A    between atoms: O_40  and  C_41
REMARK                            x       y       z     vdW  Elec       q    Type
REMARK                         _______ _______ _______ _____ _____    ______ ____
ROOT
ATOM      1  C   UNL     1       4.853  -0.410   3.367  0.00  0.00    +0.220 C 
ATOM      2  O   UNL     1       4.862  -1.540   2.926  0.00  0.00    -0.275 OA
ATOM      3  N   UNL     1       3.697   0.281   3.429  0.00  0.00    -0.258 N 
ATOM      4  C   UNL     1       3.699   1.579   3.937  0.00  0.00    +0.058 A 
ATOM      5  C   UNL     1       3.972   1.830   5.272  0.00  0.00    +0.025 A 
ATOM      6  C   UNL     1       3.885   3.124   5.754  0.00  0.00    +0.002 A 
ATOM      7  C   UNL     1       3.529   4.163   4.912  0.00  0.00    +0.002 A 
ATOM      8  C   UNL     1       3.278   3.920   3.573  0.00  0.00    +0.025 A 
ATOM      9  C   UNL     1       3.384   2.628   3.087  0.00  0.00    +0.053 A 
ATOM     10  N   UNL     1       3.196   2.319   1.745  0.00  0.00    -0.316 N 
ATOM     11  C   UNL     1       2.202   1.530   1.261  0.00  0.00    +0.017 C 
ATOM     12  C   UNL     1       1.850   0.336   1.766  0.00  0.00    +0.037 C 
ATOM     13  C   UNL     1       2.472  -0.337   2.967  0.00  0.00    +0.147 C 
ATOM     14  C   UNL     1       0.797  -0.405   1.179  0.00  0.00    +0.163 C 
ATOM     15  O   UNL     1       0.519  -1.495   1.639  0.00  0.00    -0.292 OA
ATOM     16  C   UNL     1       0.011   0.108   0.009  0.00  0.00    +0.088 C 
ATOM     17  C   UNL     1       0.024   1.641   0.047  0.00  0.00    +0.032 C 
ATOM     18  C   UNL     1       1.484   2.092   0.045  0.00  0.00    +0.059 C 
ATOM     19  H   UNL     1       3.821   2.695   1.106  0.00  0.00    +0.152 HD
ENDROOT
BRANCH  13  20
ATOM     20  C   UNL     1       1.474  -0.320   4.096  0.00  0.00    -0.022 A 
ATOM     21  C   UNL     1       1.053   0.884   4.629  0.00  0.00    +0.006 A 
ATOM     22  C   UNL     1       0.134   0.899   5.661  0.00  0.00    +0.004 A 
ATOM     23  C   UNL     1      -0.358  -0.290   6.166  0.00  0.00    -0.050 A 
ATOM     24  C   UNL     1       0.067  -1.494   5.637  0.00  0.00    +0.004 A 
ATOM     25  C   UNL     1       0.983  -1.509   4.601  0.00  0.00    +0.006 A 
ATOM     26  C   UNL     1      -1.357  -0.274   7.294  0.00  0.00    +0.044 C 
ENDBRANCH  13  20
BRANCH  17  27
ATOM     27  C   UNL     1      -0.681   2.188  -1.167  0.00  0.00    -0.036 A 
ATOM     28  C   UNL     1      -0.209   1.890  -2.431  0.00  0.00    +0.053 A 
ATOM     29  C   UNL     1      -0.859   2.387  -3.551  0.00  0.00    +0.165 A 
ATOM     30  C   UNL     1      -1.980   3.195  -3.400  0.00  0.00    +0.204 A 
ATOM     31  C   UNL     1      -2.448   3.497  -2.127  0.00  0.00    +0.165 A 
ATOM     32  C   UNL     1      -1.796   2.991  -1.013  0.00  0.00    +0.053 A 
BRANCH  31  33
ATOM     33  O   UNL     1      -3.544   4.287  -1.974  0.00  0.00    -0.491 OA
ATOM     34  C   UNL     1      -3.969   4.555  -0.636  0.00  0.00    +0.277 C 
ENDBRANCH  31  33
BRANCH  30  35
ATOM     35  O   UNL     1      -2.617   3.689  -4.497  0.00  0.00    -0.488 OA
ATOM     36  C   UNL     1      -2.174   4.955  -4.989  0.00  0.00    +0.277 C 
ENDBRANCH  30  35
BRANCH  29  37
ATOM     37  O   UNL     1      -0.397   2.089  -4.795  0.00  0.00    -0.491 OA
ATOM     38  C   UNL     1       0.759   1.253  -4.874  0.00  0.00    +0.277 C 
ENDBRANCH  29  37
ENDBRANCH  17  27
BRANCH   1  40
ATOM     39  C   UNL     1       7.289  -0.766   3.666  0.00  0.00    +0.013 C 
ATOM     40  C   UNL     1       6.135   0.223   3.845  0.00  0.00    +0.093 C 
ENDBRANCH   1  40
TORSDOF 6
