REMARK  Name = ZINC05562157
REMARK  1 active torsions:
REMARK  status: ('A' for Active; 'I' for Inactive)
REMARK    1  A    between atoms: N_3  and  C_10
REMARK                            x       y       z     vdW  Elec       q    Type
REMARK                         _______ _______ _______ _____ _____    ______ ____
ROOT
ATOM      1  C   UNL     1      -0.019   1.530   0.011  0.00  0.00    +0.130 C 
ATOM      2  C   UNL     1       0.002  -0.004   0.002  0.00  0.00    +0.127 C 
ATOM      3  N   UNL     1       0.924  -0.467   1.048  0.00  0.00    -0.289 N 
ATOM      4  C   UNL     1       2.310   0.021   1.038  0.00  0.00    +0.127 C 
ATOM      5  C   UNL     1       2.289   1.555   1.046  0.00  0.00    +0.130 C 
ATOM      6  N   UNL     1       1.367   2.018  -0.000  0.00  0.00    -0.262 N 
ATOM      7  C   UNL     1       1.785   2.875  -0.953  0.00  0.00    +0.446 C 
ATOM      8  O   UNL     1       1.014   3.250  -1.813  0.00  0.00    -0.222 OA
ATOM      9  O   UNL     1       3.058   3.315  -0.951  0.00  0.00    -0.222 OA
ENDROOT
BRANCH   3  10
ATOM     10  C   UNL     1       0.506  -1.324   2.001  0.00  0.00    +0.285 C 
ATOM     11  S   UNL     1      -1.112  -1.883   1.999  0.00  0.00    +0.011 S 
ATOM     12  O   UNL     1       1.362  -1.740   2.955  0.00  0.00    -0.262 OA
ENDBRANCH   3  10
TORSDOF 1
