REMARK  Name = ZINC03441573
REMARK  14 active torsions:
REMARK  status: ('A' for Active; 'I' for Inactive)
REMARK    1  A    between atoms: C_1  and  C_2
REMARK    2  A    between atoms: C_2  and  C_3
REMARK    3  A    between atoms: C_2  and  C_4
REMARK    4  A    between atoms: C_2  and  C_10
REMARK    5  A    between atoms: C_13  and  O_16
REMARK    6  A    between atoms: O_16  and  C_17
REMARK    7  A    between atoms: C_17  and  C_18
REMARK    8  A    between atoms: C_18  and  C_20
REMARK    9  A    between atoms: C_18  and  O_34
REMARK   10  A    between atoms: C_20  and  N_69
REMARK   11  A    between atoms: C_25  and  O_32
REMARK   12  A    between atoms: C_26  and  O_30
REMARK   13  A    between atoms: O_30  and  C_31
REMARK   14  A    between atoms: O_32  and  C_33
REMARK                            x       y       z     vdW  Elec       q    Type
REMARK                         _______ _______ _______ _____ _____    ______ ____
ROOT
ATOM      1  C   UNL     1       7.202   7.347  -0.291  0.00  0.00    +0.135 C 
ENDROOT
BRANCH   1   2
ATOM      2  O   UNL     1       8.024   7.168   0.864  0.00  0.00    -0.390 OA
ATOM      3  H   UNL     1       7.574   7.354   1.700  0.00  0.00    +0.210 HD
ENDBRANCH   1   2
BRANCH   1   4
ATOM      4  C   UNL     1       5.996   6.409  -0.209  0.00  0.00    +0.258 C 
BRANCH   4   5
ATOM      5  O   UNL     1       6.442   5.053  -0.269  0.00  0.00    -0.489 OA
BRANCH   5   9
ATOM      6  C   UNL     1       3.547   2.119  -0.084  0.00  0.00    -0.037 A 
ATOM      7  C   UNL     1       3.183   3.452  -0.037  0.00  0.00    +0.008 A 
ATOM      8  C   UNL     1       4.151   4.436  -0.093  0.00  0.00    +0.046 A 
ATOM      9  C   UNL     1       5.489   4.086  -0.208  0.00  0.00    +0.121 A 
ATOM     10  C   UNL     1       5.851   2.748  -0.261  0.00  0.00    +0.046 A 
ATOM     11  C   UNL     1       4.880   1.768  -0.199  0.00  0.00    +0.008 A 
BRANCH   6  13
ATOM     12  C   UNL     1       3.133  -0.319  -0.260  0.00  0.00    +0.021 C 
ATOM     13  C   UNL     1       2.490   1.048  -0.016  0.00  0.00    +0.015 C 
ATOM     14  C   UNL     1       1.428   1.310  -1.086  0.00  0.00    +0.021 C 
BRANCH  13  15
ATOM     15  C   UNL     1       1.845   1.063   1.346  0.00  0.00    -0.037 A 
ATOM     16  C   UNL     1       0.758   0.250   1.606  0.00  0.00    +0.004 A 
ATOM     17  C   UNL     1       0.164   0.269   2.853  0.00  0.00    +0.000 A 
ATOM     18  C   UNL     1       0.662   1.093   3.845  0.00  0.00    +0.000 A 
ATOM     19  C   UNL     1       1.749   1.907   3.585  0.00  0.00    +0.000 A 
ATOM     20  C   UNL     1       2.341   1.892   2.336  0.00  0.00    +0.004 A 
ENDBRANCH  13  15
ENDBRANCH   6  13
ENDBRANCH   5   9
ENDBRANCH   4   5
ENDBRANCH   1   4
BRANCH   1  21
ATOM     21  C   UNL     1       6.718   8.797  -0.352  0.00  0.00    -0.043 C 
BRANCH  21  31
ATOM     22  C   UNL     1       7.473  11.099  -0.401  0.00  0.00    -0.074 C 
ATOM     23  C   UNL     1       8.738  11.944  -0.251  0.00  0.00    +0.017 C 
ATOM     24  C   UNL     1       9.714  11.610  -1.351  0.00  0.00    -0.044 A 
ATOM     25  C   UNL     1      10.753  12.495  -1.601  0.00  0.00    +0.053 A 
ATOM     26  C   UNL     1      11.677  12.225  -2.594  0.00  0.00    +0.162 A 
ATOM     27  C   UNL     1      11.561  11.059  -3.346  0.00  0.00    +0.162 A 
ATOM     28  C   UNL     1      10.522  10.182  -3.094  0.00  0.00    +0.051 A 
ATOM     29  C   UNL     1       9.596  10.457  -2.097  0.00  0.00    -0.057 A 
ATOM     30  C   UNL     1       8.481   9.471  -1.864  0.00  0.00    -0.042 C 
ATOM     31  N   UNL     1       7.886   9.688  -0.535  0.00  0.00    +0.384 N 
ATOM     32  H   UNL     1       8.586   9.473   0.185  0.00  0.00    -0.081 HD
BRANCH  27  33
ATOM     33  O   UNL     1      12.465  10.784  -4.324  0.00  0.00    -0.491 OA
ATOM     34  C   UNL     1      12.281   9.570  -5.054  0.00  0.00    +0.277 C 
ENDBRANCH  27  33
BRANCH  26  35
ATOM     35  O   UNL     1      12.694  13.095  -2.836  0.00  0.00    -0.491 OA
ATOM     36  C   UNL     1      12.749  14.270  -2.025  0.00  0.00    +0.277 C 
ENDBRANCH  26  35
ENDBRANCH  21  31
ENDBRANCH   1  21
TORSDOF 10
