REMARK  Name = ZINC39738302
REMARK  4 active torsions:
REMARK  status: ('A' for Active; 'I' for Inactive)
REMARK    1  A    between atoms: C_4  and  C_7
REMARK    2  A    between atoms: C_9  and  N_13
REMARK    3  A    between atoms: C_17  and  C_20
REMARK    4  A    between atoms: C_20  and  C_22
REMARK                            x       y       z     vdW  Elec       q    Type
REMARK                         _______ _______ _______ _____ _____    ______ ____
ROOT
ATOM      1  N   UNL     1       5.818  -2.885   1.211  0.00  0.00    -0.215 N 
ATOM      2  C   UNL     1       6.956  -2.403   1.829  0.00  0.00    +0.146 C 
ATOM      3  N   UNL     1       7.869  -1.601   1.356  0.00  0.00    -0.380 N 
ATOM      4  S   UNL     1       6.854  -3.162   3.449  0.00  0.00    -0.063 S 
ATOM      5  C   UNL     1       5.688  -4.510   2.976  0.00  0.00    +0.208 C 
ATOM      6  N   UNL     1       5.141  -3.931   1.721  0.00  0.00    -0.215 NA
ATOM      7  H   UNL     1       7.795  -1.262   0.450  0.00  0.00    +0.158 HD
ATOM      8  H   UNL     1       4.160  -3.715   1.817  0.00  0.00    +0.146 HD
ATOM      9  H   UNL     1       8.623  -1.344   1.910  0.00  0.00    +0.158 HD
ENDROOT
BRANCH   1  12
ATOM     10  C   UNL     1       3.699  -0.689  -0.037  0.00  0.00    +0.107 C 
ATOM     11  C   UNL     1       3.835  -2.029   0.045  0.00  0.00    +0.068 C 
ATOM     12  C   UNL     1       5.337  -2.244  -0.016  0.00  0.00    +0.270 C 
ATOM     13  N   UNL     1       5.868  -0.876  -0.134  0.00  0.00    -0.157 NA
ATOM     14  N   UNL     1       4.914  -0.095  -0.144  0.00  0.00    -0.151 NA
ATOM     15 BR   UNL     1       2.475  -3.333   0.201  0.00  0.00    -0.049 Br
BRANCH  10  19
ATOM     16  C   UNL     1      -0.016   1.380   0.010  0.00  0.00    +0.000 A 
ATOM     17  C   UNL     1       1.026   1.817   0.806  0.00  0.00    +0.001 A 
ATOM     18  C   UNL     1       2.234   1.150   0.795  0.00  0.00    +0.010 A 
ATOM     19  C   UNL     1       2.402   0.033  -0.021  0.00  0.00    +0.003 A 
ATOM     20  C   UNL     1       1.348  -0.404  -0.821  0.00  0.00    +0.010 A 
ATOM     21  C   UNL     1       0.145   0.271  -0.802  0.00  0.00    +0.001 A 
ENDBRANCH  10  19
ENDBRANCH   1  12
BRANCH   5  22
ATOM     22  C   UNL     1       6.418  -5.804   2.719  0.00  0.00    +0.198 C 
ATOM     23  O   UNL     1       6.041  -6.549   1.837  0.00  0.00    -0.289 OA
BRANCH  22  24
ATOM     24  C   UNL     1       7.539  -6.149   3.504  0.00  0.00    +0.057 A 
ATOM     25  C   UNL     1       8.348  -7.279   3.429  0.00  0.00    +0.019 A 
ATOM     26  C   UNL     1       9.375  -7.336   4.337  0.00  0.00    +0.008 A 
ATOM     27  C   UNL     1       9.532  -6.319   5.223  0.00  0.00    +0.046 A 
ATOM     28  S   UNL     1       8.294  -5.248   4.845  0.00  0.00    -0.094 S 
ENDBRANCH  22  24
ENDBRANCH   5  22
TORSDOF 4
