REMARK  Name = ZINC40075645
REMARK  10 active torsions:
REMARK  status: ('A' for Active; 'I' for Inactive)
REMARK    1  A    between atoms: C_1  and  C_2
REMARK    2  A    between atoms: C_5  and  C_7
REMARK    3  A    between atoms: C_7  and  C_9
REMARK    4  A    between atoms: N_13  and  C_26
REMARK    5  A    between atoms: C_14  and  C_16
REMARK    6  A    between atoms: C_18  and  O_24
REMARK    7  A    between atoms: C_19  and  O_23
REMARK    8  A    between atoms: O_24  and  C_25
REMARK    9  A    between atoms: C_26  and  C_27
REMARK   10  A    between atoms: C_27  and  O_28
REMARK                            x       y       z     vdW  Elec       q    Type
REMARK                         _______ _______ _______ _____ _____    ______ ____
ROOT
ATOM      1  C   UNL     1       2.471  -2.270   0.333  0.00  0.00    +0.079 C 
ATOM      2  C   UNL     1       2.853  -3.561   0.199  0.00  0.00    +0.249 C 
ATOM      3  C   UNL     1       4.282  -3.608  -0.171  0.00  0.00    +0.288 C 
ATOM      4  O   UNL     1       4.919  -4.625  -0.364  0.00  0.00    -0.266 OA
ATOM      5  N   UNL     1       4.775  -2.360  -0.263  0.00  0.00    -0.281 N 
ATOM      6  C   UNL     1       3.687  -1.423   0.037  0.00  0.00    +0.145 C 
ATOM      7  O   UNL     1       2.053  -4.638   0.376  0.00  0.00    -0.282 OA
ENDROOT
BRANCH   6   8
ATOM      8  C   UNL     1       3.421  -0.534  -1.151  0.00  0.00    -0.018 A 
ATOM      9  C   UNL     1       2.972  -1.084  -2.337  0.00  0.00    +0.055 A 
ATOM     10  C   UNL     1       2.727  -0.269  -3.430  0.00  0.00    +0.163 A 
ATOM     11  C   UNL     1       2.935   1.104  -3.332  0.00  0.00    +0.173 A 
ATOM     12  C   UNL     1       3.385   1.649  -2.140  0.00  0.00    +0.063 A 
ATOM     13  C   UNL     1       3.623   0.830  -1.050  0.00  0.00    +0.025 A 
ATOM     14 BR   UNL     1       3.668   3.514  -2.000  0.00  0.00    -0.046 Br
BRANCH  11  15
ATOM     15  O   UNL     1       2.696   1.908  -4.402  0.00  0.00    -0.503 OA
ATOM     16  H   UNL     1       1.792   2.248  -4.446  0.00  0.00    +0.292 HD
ENDBRANCH  11  15
BRANCH  10  17
ATOM     17  O   UNL     1       2.286  -0.809  -4.598  0.00  0.00    -0.491 OA
ATOM     18  C   UNL     1       1.988  -2.206  -4.595  0.00  0.00    +0.277 C 
ENDBRANCH  10  17
ENDBRANCH   6   8
BRANCH   1  19
ATOM     19  C   UNL     1       1.133  -1.786   0.692  0.00  0.00    +0.230 C 
ATOM     20  O   UNL     1       0.204  -2.570   0.775  0.00  0.00    -0.283 OA
BRANCH  19  25
ATOM     21  C   UNL     1       2.031   3.087   1.407  0.00  0.00    +0.086 C 
ATOM     22  C   UNL     1       1.299   1.778   1.265  0.00  0.00    +0.103 A 
ATOM     23  C   UNL     1      -0.039   1.610   1.373  0.00  0.00    +0.045 A 
ATOM     24  C   UNL     1      -0.303   0.247   1.174  0.00  0.00    +0.053 A 
ATOM     25  C   UNL     1       0.914  -0.360   0.950  0.00  0.00    +0.175 A 
ATOM     26  O   UNL     1       1.867   0.593   1.005  0.00  0.00    -0.457 OA
ENDBRANCH  19  25
ENDBRANCH   1  19
BRANCH   5  27
ATOM     27  C   UNL     1       6.153  -2.000  -0.608  0.00  0.00    +0.137 C 
BRANCH  27  28
ATOM     28  C   UNL     1       6.290  -1.910  -2.130  0.00  0.00    +0.175 C 
BRANCH  28  29
ATOM     29  O   UNL     1       5.472  -0.846  -2.620  0.00  0.00    -0.393 OA
ATOM     30  H   UNL     1       5.510  -0.731  -3.579  0.00  0.00    +0.209 HD
ENDBRANCH  28  29
ENDBRANCH  27  28
ENDBRANCH   5  27
TORSDOF 8
