REMARK  Name = ZINC39499680
REMARK  9 active torsions:
REMARK  status: ('A' for Active; 'I' for Inactive)
REMARK    1  A    between atoms: C_1  and  C_2
REMARK    2  A    between atoms: C_2  and  O_3
REMARK    3  A    between atoms: O_3  and  N_4
REMARK    4  A    between atoms: C_8  and  S_27
REMARK    5  A    between atoms: C_9  and  C_20
REMARK    6  A    between atoms: C_13  and  C_14
REMARK    7  A    between atoms: C_25  and  O_26
REMARK    8  A    between atoms: S_27  and  O_30
REMARK    9  A    between atoms: O_30  and  C_31
REMARK                            x       y       z     vdW  Elec       q    Type
REMARK                         _______ _______ _______ _____ _____    ______ ____
ROOT
ATOM      1  N   UNL     1      -1.654  -1.632   0.727  0.00  0.00    -0.248 N 
ATOM      2  C   UNL     1      -2.034  -2.311  -0.516  0.00  0.00    +0.184 C 
ATOM      3  C   UNL     1      -2.383  -3.730  -0.144  0.00  0.00    -0.015 A 
ATOM      4  C   UNL     1      -2.804  -4.812  -0.889  0.00  0.00    +0.037 A 
ATOM      5  C   UNL     1      -3.057  -6.023  -0.274  0.00  0.00    +0.136 A 
ATOM      6  C   UNL     1      -2.888  -6.156   1.105  0.00  0.00    +0.015 A 
ATOM      7  C   UNL     1      -2.464  -5.070   1.861  0.00  0.00    +0.021 A 
ATOM      8  C   UNL     1      -2.209  -3.848   1.237  0.00  0.00    +0.006 A 
ATOM      9  C   UNL     1      -1.753  -2.548   1.766  0.00  0.00    +0.073 C 
ATOM     10  C   UNL     1      -1.476  -2.288   3.063  0.00  0.00    +0.036 C 
ENDROOT
BRANCH  10  11
ATOM     11  C   UNL     1      -1.303  -3.397   4.015  0.00  0.00    -0.023 A 
ATOM     12  C   UNL     1      -0.547  -4.518   3.658  0.00  0.00    +0.008 A 
ATOM     13  C   UNL     1      -0.390  -5.553   4.555  0.00  0.00    +0.001 A 
ATOM     14  C   UNL     1      -0.978  -5.485   5.806  0.00  0.00    +0.000 A 
ATOM     15  C   UNL     1      -1.727  -4.379   6.167  0.00  0.00    +0.001 A 
ATOM     16  C   UNL     1      -1.889  -3.333   5.283  0.00  0.00    +0.008 A 
ENDBRANCH  10  11
BRANCH   6  17
ATOM     17  C   UNL     1      -3.162  -7.457   1.763  0.00  0.00    +0.026 A 
ATOM     18  C   UNL     1      -4.208  -7.573   2.675  0.00  0.00    +0.012 A 
ATOM     19  C   UNL     1      -4.459  -8.786   3.285  0.00  0.00    +0.001 A 
ATOM     20  C   UNL     1      -3.674  -9.888   2.993  0.00  0.00    +0.004 A 
ATOM     21  C   UNL     1      -2.634  -9.784   2.090  0.00  0.00    +0.046 A 
ATOM     22  C   UNL     1      -2.375  -8.574   1.466  0.00  0.00    +0.125 A 
BRANCH  22  23
ATOM     23  O   UNL     1      -1.356  -8.471   0.573  0.00  0.00    -0.506 OA
ATOM     24  H   UNL     1      -0.509  -8.227   0.970  0.00  0.00    +0.292 HD
ENDBRANCH  22  23
ENDBRANCH   6  17
BRANCH   5  25
ATOM     25  S   UNL     1      -3.596  -7.400  -1.231  0.00  0.00    +0.152 S 
ATOM     26  O   UNL     1      -2.426  -8.011  -1.758  0.00  0.00    -0.131 OA
ATOM     27  O   UNL     1      -4.532  -8.110  -0.432  0.00  0.00    -0.131 OA
BRANCH  25  28
ATOM     28  O   UNL     1      -4.370  -6.847  -2.420  0.00  0.00    -0.342 OA
BRANCH  28  29
ATOM     29  C   UNL     1      -5.619  -6.410  -2.111  0.00  0.00    +0.157 A 
ATOM     30  C   UNL     1      -6.678  -7.305  -2.072  0.00  0.00    +0.048 A 
ATOM     31  C   UNL     1      -7.947  -6.859  -1.757  0.00  0.00    +0.004 A 
ATOM     32  C   UNL     1      -8.162  -5.521  -1.481  0.00  0.00    +0.000 A 
ATOM     33  C   UNL     1      -7.108  -4.627  -1.520  0.00  0.00    +0.004 A 
ATOM     34  C   UNL     1      -5.836  -5.069  -1.828  0.00  0.00    +0.048 A 
ENDBRANCH  28  29
ENDBRANCH  25  28
ENDBRANCH   5  25
BRANCH   1  35
ATOM     35  O   UNL     1      -1.251  -0.280   0.847  0.00  0.00    -0.271 OA
BRANCH  35  37
ATOM     36  C   UNL     1       0.475   1.411   0.849  0.00  0.00    +0.037 C 
ATOM     37  C   UNL     1       0.156  -0.078   0.702  0.00  0.00    +0.189 C 
ENDBRANCH  35  37
ENDBRANCH   1  35
TORSDOF 8
