REMARK  Name = ZINC35072837
REMARK  11 active torsions:
REMARK  status: ('A' for Active; 'I' for Inactive)
REMARK    1  A    between atoms: C_1  and  C_2
REMARK    2  A    between atoms: C_2  and  C_3
REMARK    3  A    between atoms: C_3  and  C_5
REMARK    4  A    between atoms: C_3  and  N_23
REMARK    5  A    between atoms: N_15  and  C_16
REMARK    6  A    between atoms: N_23  and  C_24
REMARK    7  A    between atoms: C_24  and  C_25
REMARK    8  A    between atoms: C_25  and  N_26
REMARK    9  A    between atoms: N_26  and  C_27
REMARK   10  A    between atoms: N_26  and  C_28
REMARK   11  A    between atoms: N_31  and  C_32
REMARK                            x       y       z     vdW  Elec       q    Type
REMARK                         _______ _______ _______ _____ _____    ______ ____
ROOT
ATOM      1  C   UNL     1      -1.938  -1.217  -0.318  0.00  0.00    +0.144 C 
ENDROOT
BRANCH   1   2
ATOM      2  C   UNL     1      -1.627  -2.677  -0.524  0.00  0.00    +0.138 A 
ATOM      3  N   UNL     1      -1.067  -3.331   0.448  0.00  0.00    -0.231 NA
ATOM      4  C   UNL     1      -0.758  -4.647   0.334  0.00  0.00    +0.078 A 
ATOM      5  C   UNL     1      -0.156  -5.351   1.379  0.00  0.00    +0.028 A 
ATOM      6  C   UNL     1       0.140  -6.686   1.220  0.00  0.00    +0.002 A 
ATOM      7  C   UNL     1      -0.152  -7.344   0.032  0.00  0.00    +0.001 A 
ATOM      8  C   UNL     1      -0.745  -6.671  -1.013  0.00  0.00    +0.015 A 
ATOM      9  C   UNL     1      -1.054  -5.319  -0.873  0.00  0.00    +0.065 A 
ATOM     10  C   UNL     1      -1.688  -4.550  -1.954  0.00  0.00    +0.266 A 
ATOM     11  O   UNL     1      -1.969  -5.069  -3.018  0.00  0.00    -0.267 OA
ATOM     12  N   UNL     1      -1.952  -3.244  -1.718  0.00  0.00    -0.263 N 
BRANCH  12  13
ATOM     13  C   UNL     1      -2.559  -2.467  -2.713  0.00  0.00    +0.051 A 
ATOM     14  C   UNL     1      -1.787  -1.642  -3.519  0.00  0.00    +0.029 A 
ATOM     15  C   UNL     1      -2.388  -0.877  -4.500  0.00  0.00    +0.040 A 
ATOM     16  C   UNL     1      -3.760  -0.933  -4.679  0.00  0.00    +0.124 A 
ATOM     17  C   UNL     1      -4.532  -1.755  -3.876  0.00  0.00    +0.040 A 
ATOM     18  C   UNL     1      -3.934  -2.526  -2.898  0.00  0.00    +0.029 A 
ATOM     19  F   UNL     1      -4.346  -0.185  -5.639  0.00  0.00    -0.205 F 
ENDBRANCH  12  13
ENDBRANCH   1   2
BRANCH   1  20
ATOM     20  N   UNL     1      -2.939  -1.077   0.743  0.00  0.00    -0.277 N 
ATOM     21  C   UNL     1      -4.124  -0.492   0.477  0.00  0.00    +0.307 C 
ATOM     22  O   UNL     1      -4.362  -0.081  -0.642  0.00  0.00    -0.252 OA
ATOM     23  N   UNL     1      -5.045  -0.363   1.452  0.00  0.00    -0.267 N 
ATOM     24  H   UNL     1      -4.877  -0.736   2.332  0.00  0.00    +0.156 HD
BRANCH  23  25
ATOM     25  C   UNL     1      -6.248   0.311   1.196  0.00  0.00    +0.070 A 
ATOM     26  C   UNL     1      -6.778   0.323  -0.086  0.00  0.00    +0.029 A 
ATOM     27  C   UNL     1      -7.964   0.987  -0.337  0.00  0.00    +0.040 A 
ATOM     28  C   UNL     1      -8.623   1.641   0.690  0.00  0.00    +0.126 A 
ATOM     29  C   UNL     1      -8.097   1.632   1.970  0.00  0.00    +0.078 A 
ATOM     30  C   UNL     1      -6.914   0.963   2.228  0.00  0.00    +0.147 A 
ATOM     31  F   UNL     1      -6.403   0.949   3.478  0.00  0.00    -0.203 F 
ATOM     32  F   UNL     1      -9.782   2.290   0.441  0.00  0.00    -0.205 F 
ENDBRANCH  23  25
BRANCH  20  33
ATOM     33  C   UNL     1      -2.653  -1.572   2.091  0.00  0.00    +0.091 C 
BRANCH  33  34
ATOM     34  C   UNL     1      -1.998  -0.460   2.914  0.00  0.00    -0.060 C 
BRANCH  34  35
ATOM     35  N   UNL     1      -1.711  -0.957   4.266  0.00  0.00    +0.377 N 
ATOM     36  C   UNL     1      -0.707  -2.027   4.192  0.00  0.00    -0.097 C 
ATOM     37  C   UNL     1      -1.194   0.143   5.092  0.00  0.00    -0.097 C 
ATOM     38  H   UNL     1      -2.558  -1.318   4.679  0.00  0.00    -0.083 HD
ENDBRANCH  34  35
ENDBRANCH  33  34
ENDBRANCH  20  33
ENDBRANCH   1  20
BRANCH   1  40
ATOM     39  C   UNL     1      -0.962   1.019   0.221  0.00  0.00    +0.006 C 
ATOM     40  C   UNL     1      -0.662  -0.475   0.085  0.00  0.00    +0.027 C 
ENDBRANCH   1  40
TORSDOF 8
