REMARK  Name = ZINC39522920
REMARK  6 active torsions:
REMARK  status: ('A' for Active; 'I' for Inactive)
REMARK    1  A    between atoms: C_1  and  C_2
REMARK    2  A    between atoms: C_2  and  O_3
REMARK    3  A    between atoms: O_3  and  C_4
REMARK    4  A    between atoms: C_14  and  C_18
REMARK    5  A    between atoms: N_16  and  O_17
REMARK    6  A    between atoms: C_23  and  O_24
REMARK                            x       y       z     vdW  Elec       q    Type
REMARK                         _______ _______ _______ _____ _____    ______ ____
ROOT
ATOM      1  C   UNL     1       0.746  -1.888  -1.280  0.00  0.00    +0.120 C 
ATOM      2  C   UNL     1      -0.484  -2.409  -2.027  0.00  0.00    +0.032 C 
ATOM      3  C   UNL     1      -0.403  -3.933  -2.140  0.00  0.00    +0.004 C 
ATOM      4  C   UNL     1       0.862  -4.321  -2.907  0.00  0.00    +0.025 C 
ATOM      5  C   UNL     1       2.092  -3.800  -2.161  0.00  0.00    +0.050 C 
ATOM      6  C   UNL     1       2.011  -2.276  -2.047  0.00  0.00    +0.056 C 
ATOM      7  C   UNL     1       3.356  -4.187  -2.932  0.00  0.00    +0.025 C 
ATOM      8  C   UNL     1       4.586  -3.684  -2.171  0.00  0.00    +0.004 C 
ATOM      9  C   UNL     1       4.583  -4.277  -0.760  0.00  0.00    +0.026 C 
ATOM     10  C   UNL     1       3.283  -3.886  -0.052  0.00  0.00    +0.118 C 
ATOM     11  N   UNL     1       2.136  -4.391  -0.817  0.00  0.00    -0.177 NA
ENDROOT
BRANCH  10  12
ATOM     12  C   UNL     1       3.266  -4.484   1.331  0.00  0.00    +0.013 A 
ATOM     13  C   UNL     1       2.641  -5.696   1.553  0.00  0.00    +0.009 A 
ATOM     14  C   UNL     1       2.624  -6.245   2.822  0.00  0.00    +0.001 A 
ATOM     15  C   UNL     1       3.233  -5.582   3.872  0.00  0.00    +0.004 A 
ATOM     16  C   UNL     1       3.859  -4.370   3.656  0.00  0.00    +0.046 A 
ATOM     17  C   UNL     1       3.882  -3.820   2.382  0.00  0.00    +0.122 A 
BRANCH  17  18
ATOM     18  O   UNL     1       4.502  -2.631   2.166  0.00  0.00    -0.506 OA
ATOM     19  H   UNL     1       3.927  -1.861   2.277  0.00  0.00    +0.292 HD
ENDBRANCH  17  18
ENDBRANCH  10  12
BRANCH  11  20
ATOM     20  O   UNL     1       0.883  -4.156  -0.100  0.00  0.00    -0.311 OA
ATOM     21  H   UNL     1       0.865  -4.528   0.793  0.00  0.00    +0.237 HD
ENDBRANCH  11  20
BRANCH   1  22
ATOM     22  O   UNL     1       0.671  -0.465  -1.174  0.00  0.00    -0.377 OA
BRANCH  22  24
ATOM     23  C   UNL     1      -0.019   1.526   0.010  0.00  0.00    +0.034 C 
ATOM     24  C   UNL     1       0.002  -0.004   0.002  0.00  0.00    +0.157 C 
ENDBRANCH  22  24
ENDBRANCH   1  22
TORSDOF 5
