REMARK  Name = ZINC18241312
REMARK  13 active torsions:
REMARK  status: ('A' for Active; 'I' for Inactive)
REMARK    1  A    between atoms: C_1  and  C_2
REMARK    2  A    between atoms: C_2  and  C_3
REMARK    3  A    between atoms: C_3  and  N_4
REMARK    4  A    between atoms: N_4  and  C_5
REMARK    5  A    between atoms: C_6  and  N_21
REMARK    6  A    between atoms: N_7  and  C_14
REMARK    7  A    between atoms: C_14  and  C_15
REMARK    8  A    between atoms: C_22  and  C_24
REMARK    9  A    between atoms: C_24  and  O_25
REMARK   10  A    between atoms: O_25  and  C_26
REMARK   11  A    between atoms: C_26  and  C_28
REMARK   12  A    between atoms: C_32  and  C_35
REMARK   13  A    between atoms: C_33  and  O_34
REMARK                            x       y       z     vdW  Elec       q    Type
REMARK                         _______ _______ _______ _____ _____    ______ ____
ROOT
ATOM      1  N   UNL     1       0.768  -1.921   1.268  0.00  0.00    -0.261 N 
ATOM      2  C   UNL     1      -0.191  -2.497   2.023  0.00  0.00    +0.258 C 
ATOM      3  O   UNL     1      -0.200  -3.700   2.180  0.00  0.00    -0.272 OA
ENDROOT
BRANCH   1   4
ATOM      4  C   UNL     1       1.693  -2.725   0.570  0.00  0.00    +0.140 A 
ATOM      5  C   UNL     1       3.032  -2.708   0.905  0.00  0.00    +0.128 A 
ATOM      6  N   UNL     1       3.910  -3.503   0.205  0.00  0.00    -0.276 N 
ATOM      7  C   UNL     1       3.469  -4.288  -0.794  0.00  0.00    +0.331 A 
ATOM      8  O   UNL     1       4.261  -4.983  -1.401  0.00  0.00    -0.246 OA
ATOM      9  N   UNL     1       2.168  -4.318  -1.135  0.00  0.00    -0.273 N 
ATOM     10  H   UNL     1       1.875  -4.893  -1.859  0.00  0.00    +0.173 HD
ATOM     11  C   UNL     1       1.266  -3.563  -0.477  0.00  0.00    +0.277 A 
ATOM     12  O   UNL     1       0.088  -3.602  -0.791  0.00  0.00    -0.266 OA
BRANCH   5  13
ATOM     13  N   UNL     1       3.482  -1.905   1.925  0.00  0.00    -0.343 N 
ATOM     14  H   UNL     1       2.871  -1.298   2.371  0.00  0.00    +0.144 HD
ATOM     15  H   UNL     1       4.412  -1.946   2.200  0.00  0.00    +0.144 HD
ENDBRANCH   5  13
BRANCH   6  16
ATOM     16  C   UNL     1       5.333  -3.494   0.551  0.00  0.00    +0.163 C 
BRANCH  16  17
ATOM     17  C   UNL     1       5.603  -4.547   1.595  0.00  0.00    -0.028 A 
ATOM     18  C   UNL     1       5.508  -4.229   2.937  0.00  0.00    +0.005 A 
ATOM     19  C   UNL     1       5.755  -5.195   3.894  0.00  0.00    +0.000 A 
ATOM     20  C   UNL     1       6.098  -6.478   3.510  0.00  0.00    +0.000 A 
ATOM     21  C   UNL     1       6.193  -6.795   2.168  0.00  0.00    +0.000 A 
ATOM     22  C   UNL     1       5.941  -5.831   1.210  0.00  0.00    +0.005 A 
ENDBRANCH  16  17
ENDBRANCH   6  16
ENDBRANCH   1   4
BRANCH   1  23
ATOM     23  C   UNL     1       0.849  -0.461   1.175  0.00  0.00    +0.114 C 
BRANCH  23  25
ATOM     24  C   UNL     1       0.174   1.537  -0.164  0.00  0.00    +0.005 C 
ATOM     25  C   UNL     1       0.090   0.013  -0.066  0.00  0.00    +0.016 C 
ENDBRANCH  23  25
ENDBRANCH   1  23
BRANCH   2  26
ATOM     26  C   UNL     1      -1.252  -1.645   2.671  0.00  0.00    +0.328 C 
BRANCH  26  27
ATOM     27  O   UNL     1      -2.146  -2.479   3.412  0.00  0.00    -0.452 OA
BRANCH  27  28
ATOM     28  C   UNL     1      -3.160  -1.869   4.056  0.00  0.00    +0.343 C 
ATOM     29  O   UNL     1      -3.281  -0.662   3.992  0.00  0.00    -0.245 OA
BRANCH  28  30
ATOM     30  C   UNL     1      -4.121  -2.666   4.840  0.00  0.00    +0.101 A 
ATOM     31  C   UNL     1      -3.981  -4.054   4.921  0.00  0.00    +0.018 A 
ATOM     32  C   UNL     1      -4.883  -4.793   5.655  0.00  0.00    +0.001 A 
ATOM     33  C   UNL     1      -5.929  -4.167   6.314  0.00  0.00    +0.007 A 
ATOM     34  C   UNL     1      -6.079  -2.796   6.242  0.00  0.00    -0.008 A 
ATOM     35  C   UNL     1      -5.177  -2.035   5.512  0.00  0.00    +0.134 A 
ATOM     36  C   UNL     1      -7.220  -2.125   6.961  0.00  0.00    +0.047 C 
BRANCH  35  37
ATOM     37  O   UNL     1      -5.320  -0.688   5.445  0.00  0.00    -0.506 OA
ATOM     38  H   UNL     1      -5.870  -0.387   4.710  0.00  0.00    +0.292 HD
ENDBRANCH  35  37
ENDBRANCH  28  30
ENDBRANCH  27  28
ENDBRANCH  26  27
ENDBRANCH   2  26
TORSDOF 11
