REMARK  Name = ZINC53582186
REMARK  9 active torsions:
REMARK  status: ('A' for Active; 'I' for Inactive)
REMARK    1  A    between atoms: C_1  and  C_2
REMARK    2  A    between atoms: C_5  and  C_7
REMARK    3  A    between atoms: C_7  and  C_9
REMARK    4  A    between atoms: C_7  and  N_10
REMARK    5  A    between atoms: N_10  and  C_11
REMARK    6  A    between atoms: C_14  and  S_21
REMARK    7  A    between atoms: C_16  and  S_17
REMARK    8  A    between atoms: S_17  and  C_20
REMARK    9  A    between atoms: S_21  and  C_24
REMARK                            x       y       z     vdW  Elec       q    Type
REMARK                         _______ _______ _______ _____ _____    ______ ____
ROOT
ATOM      1  C   UNL     1       2.551  -5.354  -1.509  0.00  0.00    +0.053 A 
ATOM      2  C   UNL     1       1.799  -6.493  -1.253  0.00  0.00    +0.027 A 
ATOM      3  C   UNL     1       2.147  -7.695  -1.837  0.00  0.00    +0.029 A 
ATOM      4  C   UNL     1       3.245  -7.765  -2.676  0.00  0.00    +0.090 A 
ATOM      5  C   UNL     1       3.996  -6.633  -2.933  0.00  0.00    +0.055 A 
ATOM      6  C   UNL     1       3.650  -5.427  -2.357  0.00  0.00    +0.110 A 
ENDROOT
BRANCH   6   7
ATOM      7  S   UNL     1       4.603  -3.983  -2.691  0.00  0.00    -0.004 S 
ATOM      8  O   UNL     1       4.910  -3.447  -1.411  0.00  0.00    -0.170 OA
ATOM      9  O   UNL     1       5.638  -4.426  -3.558  0.00  0.00    -0.170 OA
ATOM     10  C   UNL     1       3.475  -2.875  -3.579  0.00  0.00    +0.200 C 
ENDBRANCH   6   7
BRANCH   4  11
ATOM     11  S   UNL     1       3.686  -9.301  -3.419  0.00  0.00    -0.006 S 
ATOM     12  O   UNL     1       5.082  -9.197  -3.664  0.00  0.00    -0.170 OA
ATOM     13  O   UNL     1       3.178 -10.291  -2.535  0.00  0.00    -0.170 OA
ATOM     14  C   UNL     1       2.777  -9.338  -4.988  0.00  0.00    +0.200 C 
ENDBRANCH   4  11
BRANCH   1  15
ATOM     15  N   UNL     1       2.201  -4.137  -0.921  0.00  0.00    -0.335 N 
ATOM     16  H   UNL     1       2.725  -3.341  -1.103  0.00  0.00    +0.147 HD
BRANCH  15  17
ATOM     17  C   UNL     1       1.043  -4.062  -0.027  0.00  0.00    +0.104 C 
ATOM     18  C   UNL     1       1.465  -4.458   1.389  0.00  0.00    +0.033 C 
BRANCH  17  23
ATOM     19  C   UNL     1      -0.018   1.503   0.010  0.00  0.00    +0.051 C 
ATOM     20  C   UNL     1       0.002  -0.004   0.002  0.00  0.00    -0.013 A 
ATOM     21  C   UNL     1      -1.039  -0.872   0.002  0.00  0.00    +0.011 A 
ATOM     22  C   UNL     1      -0.780  -2.230  -0.007  0.00  0.00    +0.013 A 
ATOM     23  C   UNL     1       0.507  -2.653  -0.016  0.00  0.00    +0.010 A 
ATOM     24  S   UNL     1       1.404  -1.109  -0.018  0.00  0.00    -0.097 S 
ENDBRANCH  17  23
ENDBRANCH  15  17
ENDBRANCH   1  15
TORSDOF 5
