REMARK  Name = ZINC38932699
REMARK  11 active torsions:
REMARK  status: ('A' for Active; 'I' for Inactive)
REMARK    1  A    between atoms: C_1  and  C_2
REMARK    2  A    between atoms: C_2  and  C_3
REMARK    3  A    between atoms: C_2  and  C_4
REMARK    4  A    between atoms: C_2  and  C_5
REMARK    5  A    between atoms: C_8  and  C_11
REMARK    6  A    between atoms: C_15  and  S_23
REMARK    7  A    between atoms: N_16  and  C_17
REMARK    8  A    between atoms: S_23  and  C_24
REMARK    9  A    between atoms: C_24  and  C_25
REMARK   10  A    between atoms: N_27  and  N_28
REMARK   11  A    between atoms: C_29  and  C_30
REMARK                            x       y       z     vdW  Elec       q    Type
REMARK                         _______ _______ _______ _____ _____    ______ ____
ROOT
ATOM      1  C   UNL     1       2.966  -2.036  -4.449  0.00  0.00    +0.213 C 
ATOM      2  N   UNL     1       2.525  -3.317  -5.028  0.00  0.00    -0.242 N 
ATOM      3  N   UNL     1       3.669  -4.119  -5.119  0.00  0.00    -0.162 NA
ATOM      4  C   UNL     1       4.714  -3.502  -4.681  0.00  0.00    +0.180 C 
ATOM      5  N   UNL     1       4.413  -2.217  -4.244  0.00  0.00    -0.254 N 
ATOM      6  H   UNL     1       1.623  -3.556  -5.293  0.00  0.00    +0.170 HD
ENDROOT
BRANCH   1  10
ATOM      7  C   UNL     1       1.003  -1.322  -0.723  0.00  0.00    -0.042 A 
ATOM      8  C   UNL     1       0.390  -2.097  -1.690  0.00  0.00    +0.004 A 
ATOM      9  C   UNL     1       1.025  -2.328  -2.896  0.00  0.00    +0.007 A 
ATOM     10  C   UNL     1       2.273  -1.784  -3.135  0.00  0.00    -0.008 A 
ATOM     11  C   UNL     1       2.886  -1.008  -2.169  0.00  0.00    +0.007 A 
ATOM     12  C   UNL     1       2.249  -0.773  -0.965  0.00  0.00    +0.004 A 
BRANCH   7  14
ATOM     13  C   UNL     1       0.094   0.434   0.774  0.00  0.00    +0.015 C 
ATOM     14  C   UNL     1       0.311  -1.070   0.591  0.00  0.00    -0.013 C 
ATOM     15  C   UNL     1       1.177  -1.602   1.734  0.00  0.00    +0.015 C 
ATOM     16  C   UNL     1      -1.042  -1.785   0.601  0.00  0.00    +0.015 C 
ENDBRANCH   7  14
ENDBRANCH   1  10
BRANCH   5  17
ATOM     17  C   UNL     1       5.305  -1.281  -3.714  0.00  0.00    +0.038 A 
ATOM     18  C   UNL     1       6.002  -1.567  -2.547  0.00  0.00    +0.023 A 
ATOM     19  C   UNL     1       6.883  -0.639  -2.027  0.00  0.00    +0.002 A 
ATOM     20  C   UNL     1       7.072   0.573  -2.666  0.00  0.00    +0.000 A 
ATOM     21  C   UNL     1       6.379   0.860  -3.827  0.00  0.00    +0.002 A 
ATOM     22  C   UNL     1       5.501  -0.065  -4.357  0.00  0.00    +0.023 A 
ENDBRANCH   5  17
BRANCH   4  23
ATOM     23  S   UNL     1       6.330  -4.204  -4.643  0.00  0.00    -0.079 S 
BRANCH  23  24
ATOM     24  C   UNL     1       6.103  -5.867  -5.330  0.00  0.00    +0.174 C 
BRANCH  24  25
ATOM     25  C   UNL     1       7.427  -6.586  -5.355  0.00  0.00    +0.242 C 
ATOM     26  O   UNL     1       8.426  -6.031  -4.949  0.00  0.00    -0.273 OA
ATOM     27  N   UNL     1       7.502  -7.846  -5.828  0.00  0.00    -0.206 N 
ATOM     28  H   UNL     1       6.703  -8.290  -6.152  0.00  0.00    +0.177 HD
BRANCH  27  29
ATOM     29  N   UNL     1       8.733  -8.514  -5.850  0.00  0.00    -0.188 NA
ATOM     30  C   UNL     1       8.804  -9.739  -6.306  0.00  0.00    +0.136 C 
BRANCH  30  31
ATOM     31  C   UNL     1       7.630 -10.462  -6.563  0.00  0.00    +0.000 C 
ATOM     32  C   UNL     1       7.528 -11.807  -6.906  0.00  0.00    +0.004 A 
ATOM     33  C   UNL     1       8.494 -12.820  -7.098  0.00  0.00    +0.010 A 
ATOM     34  C   UNL     1       8.098 -14.072  -7.437  0.00  0.00    +0.001 A 
ATOM     35  C   UNL     1       6.747 -14.394  -7.605  0.00  0.00    +0.002 A 
ATOM     36  C   UNL     1       5.767 -13.474  -7.437  0.00  0.00    +0.026 A 
ATOM     37  C   UNL     1       6.103 -12.141  -7.082  0.00  0.00    +0.043 A 
ATOM     38  N   UNL     1       5.352 -11.081  -6.865  0.00  0.00    -0.380 N 
ATOM     39  C   UNL     1       6.210  -9.944  -6.518  0.00  0.00    +0.150 C 
ATOM     40  H   UNL     1       4.384 -11.058  -6.922  0.00  0.00    +0.160 HD
ENDBRANCH  30  31
ENDBRANCH  27  29
ENDBRANCH  24  25
ENDBRANCH  23  24
ENDBRANCH   4  23
TORSDOF 8
