REMARK  Name = ZINC06408900
REMARK  10 active torsions:
REMARK  status: ('A' for Active; 'I' for Inactive)
REMARK    1  A    between atoms: C_1  and  C_2
REMARK    2  A    between atoms: C_9  and  C_14
REMARK    3  A    between atoms: C_14  and  C_16
REMARK    4  A    between atoms: C_14  and  N_67
REMARK    5  A    between atoms: N_20  and  C_21
REMARK    6  A    between atoms: C_21  and  C_22
REMARK    7  A    between atoms: C_28  and  C_29
REMARK    8  A    between atoms: C_28  and  N_67
REMARK    9  A    between atoms: C_35  and  C_36
REMARK   10  A    between atoms: C_35  and  N_67
REMARK                            x       y       z     vdW  Elec       q    Type
REMARK                         _______ _______ _______ _____ _____    ______ ____
ROOT
ATOM      1  C   UNL     1       1.725   6.675  -1.701  0.00  0.00    +0.040 C 
ENDROOT
BRANCH   1  10
ATOM      2  C   UNL     1      -2.477   1.941  -5.645  0.00  0.00    +0.044 C 
ATOM      3  C   UNL     1      -2.198   3.325  -5.119  0.00  0.00    -0.050 A 
ATOM      4  C   UNL     1      -3.061   4.367  -5.431  0.00  0.00    +0.005 A 
ATOM      5  C   UNL     1      -2.825   5.641  -4.961  0.00  0.00    +0.026 A 
ATOM      6  C   UNL     1      -1.711   5.887  -4.165  0.00  0.00    +0.049 A 
ATOM      7  C   UNL     1      -0.839   4.829  -3.850  0.00  0.00    -0.001 A 
ATOM      8  C   UNL     1      -1.098   3.544  -4.339  0.00  0.00    +0.013 A 
ATOM      9  C   UNL     1       0.331   5.098  -3.011  0.00  0.00    +0.017 A 
ATOM     10  C   UNL     1       0.531   6.363  -2.566  0.00  0.00    +0.011 A 
ATOM     11  C   UNL     1      -0.378   7.388  -2.906  0.00  0.00    +0.251 A 
ATOM     12  O   UNL     1      -0.182   8.518  -2.491  0.00  0.00    -0.268 OA
ATOM     13  N   UNL     1      -1.452   7.151  -3.680  0.00  0.00    -0.322 N 
ATOM     14  H   UNL     1      -2.054   7.880  -3.897  0.00  0.00    +0.169 HD
ENDBRANCH   1  10
BRANCH   1  15
ATOM     15  C   UNL     1       2.694   5.521  -1.748  0.00  0.00    +0.143 A 
ATOM     16  N   UNL     1       3.265   5.023  -2.817  0.00  0.00    -0.115 NA
ATOM     17  N   UNL     1       4.023   4.049  -2.445  0.00  0.00    -0.023 NA
ATOM     18  N   UNL     1       3.953   3.917  -1.166  0.00  0.00    -0.044 NA
ATOM     19  N   UNL     1       3.139   4.803  -0.700  0.00  0.00    -0.226 N 
BRANCH  19  20
ATOM     20  C   UNL     1       2.773   4.995   0.705  0.00  0.00    +0.182 C 
BRANCH  20  21
ATOM     21  C   UNL     1       1.663   4.044   1.070  0.00  0.00    -0.026 A 
ATOM     22  C   UNL     1       1.960   2.750   1.454  0.00  0.00    +0.005 A 
ATOM     23  C   UNL     1       0.941   1.878   1.789  0.00  0.00    +0.000 A 
ATOM     24  C   UNL     1      -0.375   2.298   1.734  0.00  0.00    +0.000 A 
ATOM     25  C   UNL     1      -0.671   3.593   1.355  0.00  0.00    +0.000 A 
ATOM     26  C   UNL     1       0.347   4.466   1.021  0.00  0.00    +0.005 A 
ENDBRANCH  20  21
ENDBRANCH  19  20
ENDBRANCH   1  15
BRANCH   1  27
ATOM     27  N   UNL     1       2.365   7.908  -2.205  0.00  0.00    +0.397 N 
ATOM     28  H   UNL     1       1.634   8.571  -2.490  0.00  0.00    -0.079 HD
BRANCH  27  29
ATOM     29  C   UNL     1       3.183   8.524  -1.139  0.00  0.00    -0.041 C 
BRANCH  29  30
ATOM     30  C   UNL     1       2.269   9.271  -0.201  0.00  0.00    -0.064 A 
ATOM     31  C   UNL     1       1.839  10.545  -0.523  0.00  0.00    +0.002 A 
ATOM     32  C   UNL     1       0.997  11.227   0.335  0.00  0.00    +0.000 A 
ATOM     33  C   UNL     1       0.594  10.641   1.520  0.00  0.00    +0.000 A 
ATOM     34  C   UNL     1       1.028   9.369   1.844  0.00  0.00    +0.000 A 
ATOM     35  C   UNL     1       1.866   8.684   0.984  0.00  0.00    +0.002 A 
ENDBRANCH  29  30
ENDBRANCH  27  29
BRANCH  27  36
ATOM     36  C   UNL     1       3.212   7.596  -3.375  0.00  0.00    -0.001 C 
BRANCH  36  37
ATOM     37  C   UNL     1       2.322   7.252  -4.541  0.00  0.00    +0.089 A 
ATOM     38  C   UNL     1       1.707   8.135  -5.348  0.00  0.00    +0.042 A 
ATOM     39  C   UNL     1       0.980   7.383  -6.299  0.00  0.00    +0.041 A 
ATOM     40  C   UNL     1       1.194   6.085  -6.016  0.00  0.00    +0.195 A 
ATOM     41  O   UNL     1       2.012   6.012  -4.954  0.00  0.00    -0.470 OA
ENDBRANCH  36  37
ENDBRANCH  27  36
ENDBRANCH   1  27
TORSDOF 9
