REMARK  Name = ZINC39690544
REMARK  8 active torsions:
REMARK  status: ('A' for Active; 'I' for Inactive)
REMARK    1  A    between atoms: C_1  and  O_2
REMARK    2  A    between atoms: O_2  and  C_3
REMARK    3  A    between atoms: C_6  and  C_11
REMARK    4  A    between atoms: C_7  and  O_9
REMARK    5  A    between atoms: O_9  and  C_10
REMARK    6  A    between atoms: C_15  and  C_24
REMARK    7  A    between atoms: N_26  and  C_27
REMARK    8  A    between atoms: C_27  and  C_28
REMARK                            x       y       z     vdW  Elec       q    Type
REMARK                         _______ _______ _______ _____ _____    ______ ____
ROOT
ATOM      1  C   UNL     1      -5.150  -2.824  -0.066  0.00  0.00    +0.250 C 
ATOM      2  O   UNL     1      -4.033  -2.351   0.016  0.00  0.00    -0.270 OA
ATOM      3  N   UNL     1      -6.224  -2.012  -0.123  0.00  0.00    -0.296 N 
ATOM      4  C   UNL     1      -6.240  -0.532  -0.200  0.00  0.00    +0.121 C 
ATOM      5  C   UNL     1      -7.388  -0.205  -1.181  0.00  0.00    +0.100 C 
ATOM      6  C   UNL     1      -8.314  -1.431  -1.124  0.00  0.00    -0.004 C 
ATOM      7  C   UNL     1      -7.656  -2.397  -0.129  0.00  0.00    +0.115 C 
ATOM      8  C   UNL     1      -9.699  -1.025  -0.630  0.00  0.00    -0.010 C 
ATOM      9  C   UNL     1     -10.618  -2.249  -0.638  0.00  0.00    -0.082 C 
ATOM     10  N   UNL     1     -10.703  -2.792  -1.999  0.00  0.00    +0.379 N 
ATOM     11  C   UNL     1      -9.382  -3.266  -2.431  0.00  0.00    -0.082 C 
ATOM     12  C   UNL     1      -8.411  -2.084  -2.500  0.00  0.00    -0.010 C 
ATOM     13  H   UNL     1     -11.356  -3.561  -2.013  0.00  0.00    -0.086 HD
ATOM     14  H   UNL     1     -11.022  -2.071  -2.628  0.00  0.00    -0.086 HD
ENDROOT
BRANCH   1  18
ATOM     15  C   UNL     1      -5.669  -7.039  -0.174  0.00  0.00    +0.124 A 
ATOM     16  C   UNL     1      -6.554  -6.246   0.551  0.00  0.00    +0.046 A 
ATOM     17  C   UNL     1      -6.389  -4.881   0.589  0.00  0.00    +0.020 A 
ATOM     18  C   UNL     1      -5.330  -4.286  -0.103  0.00  0.00    +0.079 A 
ATOM     19  C   UNL     1      -4.439  -5.087  -0.834  0.00  0.00    +0.136 A 
ATOM     20  C   UNL     1      -4.612  -6.460  -0.859  0.00  0.00    +0.092 A 
BRANCH  15  22
ATOM     21  C   UNL     1      -6.948  -8.917   0.522  0.00  0.00    +0.277 C 
ATOM     22  O   UNL     1      -5.839  -8.385  -0.205  0.00  0.00    -0.495 OA
ENDBRANCH  15  22
BRANCH  19  23
ATOM     23  O   UNL     1      -3.408  -4.518  -1.508  0.00  0.00    -0.494 OA
ATOM     24  C   UNL     1      -2.542  -5.396  -2.229  0.00  0.00    +0.277 C 
ENDBRANCH  19  23
ENDBRANCH   1  18
BRANCH   5  25
ATOM     25  C   UNL     1      -6.848  -0.016  -2.576  0.00  0.00    +0.218 C 
ATOM     26  O   UNL     1      -5.856  -0.617  -2.928  0.00  0.00    -0.275 OA
ATOM     27  N   UNL     1      -7.469   0.821  -3.431  0.00  0.00    -0.311 N 
ATOM     28  H   UNL     1      -8.263   1.301  -3.149  0.00  0.00    +0.149 HD
BRANCH  27  29
ATOM     29  C   UNL     1      -6.944   1.004  -4.786  0.00  0.00    +0.140 C 
BRANCH  29  30
ATOM     30  C   UNL     1      -7.814   1.983  -5.533  0.00  0.00    -0.016 A 
ATOM     31  C   UNL     1      -8.769   1.522  -6.420  0.00  0.00    +0.006 A 
ATOM     32  C   UNL     1      -9.567   2.420  -7.105  0.00  0.00    +0.000 A 
ATOM     33  C   UNL     1      -9.410   3.778  -6.903  0.00  0.00    +0.001 A 
ATOM     34  C   UNL     1      -8.455   4.240  -6.016  0.00  0.00    +0.015 A 
ATOM     35  C   UNL     1      -7.660   3.342  -5.327  0.00  0.00    +0.023 A 
ATOM     36 BR   UNL     1      -6.359   3.972  -4.108  0.00  0.00    -0.050 Br
ENDBRANCH  29  30
ENDBRANCH  27  29
ENDBRANCH   5  25
TORSDOF 6
