REMARK  Name = ZINC05487922
REMARK  8 active torsions:
REMARK  status: ('A' for Active; 'I' for Inactive)
REMARK    1  A    between atoms: C_7  and  S_15
REMARK    2  A    between atoms: S_15  and  C_16
REMARK    3  A    between atoms: C_16  and  C_17
REMARK    4  A    between atoms: C_17  and  N_59
REMARK    5  A    between atoms: C_18  and  C_19
REMARK    6  A    between atoms: C_18  and  N_59
REMARK    7  A    between atoms: C_19  and  S_20
REMARK    8  A    between atoms: S_20  and  C_21
REMARK                            x       y       z     vdW  Elec       q    Type
REMARK                         _______ _______ _______ _____ _____    ______ ____
ROOT
ATOM      1  N   UNL     1      -5.773   1.971   3.554  0.00  0.00    +0.380 N 
ATOM      2  H   UNL     1      -5.803   2.907   3.975  0.00  0.00    -0.086 HD
ATOM      3  H   UNL     1      -4.994   1.438   3.959  0.00  0.00    -0.086 HD
ENDROOT
BRANCH   1   4
ATOM      4  C   UNL     1      -5.569   2.099   2.099  0.00  0.00    -0.071 C 
BRANCH   4   5
ATOM      5  C   UNL     1      -4.250   2.829   1.839  0.00  0.00    +0.055 C 
BRANCH   5   6
ATOM      6  S   UNL     1      -3.991   2.991   0.055  0.00  0.00    -0.126 S 
BRANCH   6  13
ATOM      7  C   UNL     1      -0.013   1.076   0.008  0.00  0.00    +0.001 A 
ATOM      8  C   UNL     1       1.191   1.781   0.000  0.00  0.00    +0.002 A 
ATOM      9  C   UNL     1       1.209   3.140   0.008  0.00  0.00    +0.028 A 
ATOM     10  C   UNL     1      -0.004   3.858   0.023  0.00  0.00    +0.073 A 
ATOM     11  C   UNL     1      -1.227   3.136   0.031  0.00  0.00    +0.014 A 
ATOM     12  C   UNL     1      -1.205   1.732   0.017  0.00  0.00    +0.011 A 
ATOM     13  C   UNL     1      -2.448   3.841   0.046  0.00  0.00    +0.026 A 
ATOM     14  C   UNL     1      -2.392   5.250   0.053  0.00  0.00    +0.014 A 
ATOM     15  C   UNL     1      -3.567   6.019   0.069  0.00  0.00    +0.011 A 
ATOM     16  C   UNL     1      -3.484   7.378   0.077  0.00  0.00    +0.001 A 
ATOM     17  C   UNL     1      -2.246   8.018   0.069  0.00  0.00    +0.002 A 
ATOM     18  C   UNL     1      -1.087   7.307   0.053  0.00  0.00    +0.028 A 
ATOM     19  C   UNL     1      -1.129   5.898   0.045  0.00  0.00    +0.073 A 
ATOM     20  N   UNL     1      -0.000   5.190   0.030  0.00  0.00    -0.247 NA
ENDBRANCH   6  13
ENDBRANCH   5   6
ENDBRANCH   4   5
ENDBRANCH   1   4
BRANCH   1  21
ATOM     21  C   UNL     1      -7.040   1.270   3.834  0.00  0.00    -0.071 C 
BRANCH  21  22
ATOM     22  C   UNL     1      -7.223   1.152   5.348  0.00  0.00    +0.055 C 
BRANCH  22  23
ATOM     23  S   UNL     1      -8.776   0.292   5.703  0.00  0.00    -0.126 S 
BRANCH  23  24
ATOM     24  C   UNL     1      -8.733   0.296   7.464  0.00  0.00    +0.026 A 
ATOM     25  C   UNL     1      -8.138  -0.762   8.182  0.00  0.00    +0.014 A 
ATOM     26  C   UNL     1      -7.550  -1.847   7.511  0.00  0.00    +0.011 A 
ATOM     27  C   UNL     1      -6.977  -2.852   8.228  0.00  0.00    +0.001 A 
ATOM     28  C   UNL     1      -6.961  -2.817   9.622  0.00  0.00    +0.002 A 
ATOM     29  C   UNL     1      -7.515  -1.780  10.305  0.00  0.00    +0.028 A 
ATOM     30  C   UNL     1      -8.119  -0.719   9.600  0.00  0.00    +0.073 A 
ATOM     31  N   UNL     1      -8.665   0.303  10.258  0.00  0.00    -0.247 NA
ATOM     32  C   UNL     1      -9.243   1.322   9.623  0.00  0.00    +0.073 A 
ATOM     33  C   UNL     1      -9.298   1.355   8.205  0.00  0.00    +0.014 A 
ATOM     34  C   UNL     1      -9.912   2.441   7.558  0.00  0.00    +0.011 A 
ATOM     35  C   UNL     1     -10.449   3.450   8.297  0.00  0.00    +0.001 A 
ATOM     36  C   UNL     1     -10.398   3.421   9.691  0.00  0.00    +0.002 A 
ATOM     37  C   UNL     1      -9.811   2.387  10.351  0.00  0.00    +0.028 A 
ENDBRANCH  23  24
ENDBRANCH  22  23
ENDBRANCH  21  22
ENDBRANCH   1  21
TORSDOF 8
