REMARK  Name = ZINC34849349
REMARK  8 active torsions:
REMARK  status: ('A' for Active; 'I' for Inactive)
REMARK    1  A    between atoms: C_1  and  C_2
REMARK    2  A    between atoms: C_6  and  N_8
REMARK    3  A    between atoms: C_9  and  C_11
REMARK    4  A    between atoms: N_22  and  C_37
REMARK    5  A    between atoms: C_23  and  C_25
REMARK    6  A    between atoms: N_27  and  C_28
REMARK    7  A    between atoms: C_34  and  C_36
REMARK    8  A    between atoms: C_43  and  C_45
REMARK                            x       y       z     vdW  Elec       q    Type
REMARK                         _______ _______ _______ _____ _____    ______ ____
ROOT
ATOM      1  C   UNL     1       0.255  -5.128   3.808  0.00  0.00    +0.123 C 
ATOM      2  C   UNL     1       1.663  -4.803   4.403  0.00  0.00    +0.155 C 
ATOM      3  C   UNL     1       1.813  -5.641   5.678  0.00  0.00    +0.004 C 
ATOM      4  C   UNL     1       1.992  -6.912   5.299  0.00  0.00    +0.009 C 
ATOM      5  C   UNL     1       1.913  -6.853   3.816  0.00  0.00    +0.127 C 
ATOM      6  C   UNL     1       0.409  -6.609   3.421  0.00  0.00    +0.128 C 
ATOM      7  C   UNL     1       0.431  -6.878   1.943  0.00  0.00    +0.224 C 
ATOM      8  O   UNL     1      -0.352  -6.425   1.136  0.00  0.00    -0.275 OA
ATOM      9  N   UNL     1       1.466  -7.707   1.654  0.00  0.00    -0.283 N 
ATOM     10  C   UNL     1       2.286  -7.974   2.898  0.00  0.00    +0.199 C 
ATOM     11  O   UNL     1       2.514  -5.558   3.467  0.00  0.00    -0.358 OA
ENDROOT
BRANCH   9  12
ATOM     12  C   UNL     1       1.728  -8.281   0.332  0.00  0.00    +0.080 C 
ATOM     13  C   UNL     1       2.012  -7.156  -0.665  0.00  0.00    +0.023 C 
ATOM     14  C   UNL     1       0.800  -6.226  -0.744  0.00  0.00    +0.002 C 
ATOM     15  C   UNL     1      -0.424  -7.020  -1.206  0.00  0.00    +0.000 C 
ATOM     16  C   UNL     1      -0.708  -8.145  -0.209  0.00  0.00    +0.005 C 
ATOM     17  C   UNL     1       0.504  -9.075  -0.131  0.00  0.00    +0.006 C 
ATOM     18  C   UNL     1       0.220 -10.200   0.866  0.00  0.00    +0.009 C 
ENDBRANCH   9  12
BRANCH   1  20
ATOM     19  N   UNL     1      -1.298  -3.986   2.257  0.00  0.00    -0.285 N 
ATOM     20  C   UNL     1      -0.026  -4.280   2.595  0.00  0.00    +0.224 C 
ATOM     21  O   UNL     1       0.891  -3.861   1.921  0.00  0.00    -0.275 OA
ATOM     22  H   UNL     1      -2.030  -4.290   2.816  0.00  0.00    +0.155 HD
BRANCH  19  28
ATOM     23  C   UNL     1      -4.171  -3.081  -1.628  0.00  0.00    +0.044 C 
ATOM     24  C   UNL     1      -2.947  -2.784  -0.801  0.00  0.00    -0.049 A 
ATOM     25  C   UNL     1      -2.082  -1.775  -1.185  0.00  0.00    +0.003 A 
ATOM     26  C   UNL     1      -0.958  -1.498  -0.428  0.00  0.00    +0.002 A 
ATOM     27  C   UNL     1      -0.696  -2.230   0.714  0.00  0.00    +0.023 A 
ATOM     28  C   UNL     1      -1.562  -3.243   1.102  0.00  0.00    +0.034 A 
ATOM     29  C   UNL     1      -2.692  -3.515   0.342  0.00  0.00    +0.026 A 
ENDBRANCH  19  28
ENDBRANCH   1  20
BRANCH  10  30
ATOM     30  C   UNL     1       1.943  -9.303   3.520  0.00  0.00    +0.237 C 
ATOM     31  O   UNL     1       0.786  -9.659   3.590  0.00  0.00    -0.274 OA
ATOM     32  N   UNL     1       2.922 -10.097   3.998  0.00  0.00    -0.311 N 
ATOM     33  H   UNL     1       3.840  -9.782   4.008  0.00  0.00    +0.149 HD
BRANCH  32  34
ATOM     34  C   UNL     1       2.601 -11.434   4.503  0.00  0.00    +0.076 C 
ATOM     35  C   UNL     1       2.082 -11.326   5.939  0.00  0.00    +0.022 C 
ATOM     36  C   UNL     1       3.157 -10.691   6.823  0.00  0.00    +0.002 C 
ATOM     37  C   UNL     1       4.415 -11.562   6.800  0.00  0.00    +0.000 C 
ATOM     38  C   UNL     1       4.934 -11.670   5.364  0.00  0.00    +0.005 C 
ATOM     39  C   UNL     1       3.859 -12.304   4.480  0.00  0.00    +0.006 C 
ATOM     40  C   UNL     1       4.377 -12.412   3.045  0.00  0.00    +0.009 C 
ENDBRANCH  32  34
ENDBRANCH  10  30
TORSDOF 5
