REMARK  Name = ZINC39370633
REMARK  12 active torsions:
REMARK  status: ('A' for Active; 'I' for Inactive)
REMARK    1  A    between atoms: C_1  and  C_2
REMARK    2  A    between atoms: C_2  and  O_3
REMARK    3  A    between atoms: O_3  and  C_4
REMARK    4  A    between atoms: C_4  and  C_6
REMARK    5  A    between atoms: C_8  and  N_18
REMARK    6  A    between atoms: C_11  and  O_16
REMARK    7  A    between atoms: O_16  and  C_17
REMARK    8  A    between atoms: N_18  and  C_19
REMARK    9  A    between atoms: C_19  and  N_21
REMARK   10  A    between atoms: N_24  and  C_27
REMARK   11  A    between atoms: C_32  and  O_33
REMARK   12  A    between atoms: O_33  and  C_34
REMARK                            x       y       z     vdW  Elec       q    Type
REMARK                         _______ _______ _______ _____ _____    ______ ____
ROOT
ATOM      1  N   UNL     1      -3.703  -1.334  -2.165  0.00  0.00    -0.297 N 
ATOM      2  H   UNL     1      -2.757  -1.489  -2.017  0.00  0.00    +0.154 HD
ENDROOT
BRANCH   1   4
ATOM      3  C   UNL     1      -4.063  -0.608   0.279  0.00  0.00    +0.234 C 
ATOM      4  C   UNL     1      -4.480  -0.856  -1.154  0.00  0.00    +0.052 C 
ATOM      5  C   UNL     1      -5.816  -0.497  -1.224  0.00  0.00    +0.021 A 
ATOM      6  C   UNL     1      -6.751  -0.504  -2.288  0.00  0.00    +0.057 A 
ATOM      7  C   UNL     1      -8.025  -0.087  -2.066  0.00  0.00    +0.121 A 
ATOM      8  C   UNL     1      -8.443   0.352  -0.802  0.00  0.00    +0.047 A 
ATOM      9  C   UNL     1      -7.599   0.385   0.257  0.00  0.00    +0.029 A 
ATOM     10  C   UNL     1      -6.253  -0.035   0.103  0.00  0.00    +0.045 A 
ATOM     11  N   UNL     1      -5.254  -0.096   0.965  0.00  0.00    -0.367 N 
ATOM     12  H   UNL     1      -5.300   0.157   1.900  0.00  0.00    +0.161 HD
BRANCH   3  13
ATOM     13  C   UNL     1      -3.609  -1.895   0.918  0.00  0.00    +0.336 C 
ATOM     14  O   UNL     1      -4.364  -2.516   1.628  0.00  0.00    -0.248 OA
BRANCH  13  15
ATOM     15  O   UNL     1      -2.366  -2.351   0.699  0.00  0.00    -0.463 OA
BRANCH  15  17
ATOM     16  C   UNL     1      -0.561  -3.934   0.972  0.00  0.00    +0.048 C 
ATOM     17  C   UNL     1      -2.003  -3.577   1.336  0.00  0.00    +0.229 C 
ENDBRANCH  15  17
ENDBRANCH  13  15
ENDBRANCH   3  13
BRANCH   7  18
ATOM     18  O   UNL     1      -8.917  -0.098  -3.094  0.00  0.00    -0.495 OA
ATOM     19  C   UNL     1     -10.243   0.350  -2.807  0.00  0.00    +0.277 C 
ENDBRANCH   7  18
ENDBRANCH   1   4
BRANCH   1  20
ATOM     20  C   UNL     1      -4.248  -1.590  -3.370  0.00  0.00    +0.137 C 
ATOM     21  S   UNL     1      -4.640  -3.199  -3.807  0.00  0.00    -0.018 S 
BRANCH  20  22
ATOM     22  N   UNL     1      -4.485  -0.581  -4.231  0.00  0.00    -0.309 N 
ATOM     23  C   UNL     1      -4.047   0.787  -3.920  0.00  0.00    +0.125 C 
ATOM     24  C   UNL     1      -3.170   1.295  -5.071  0.00  0.00    +0.124 C 
ATOM     25  N   UNL     1      -3.870   1.047  -6.339  0.00  0.00    -0.324 N 
ATOM     26  C   UNL     1      -4.308  -0.320  -6.651  0.00  0.00    +0.124 C 
ATOM     27  C   UNL     1      -5.180  -0.830  -5.502  0.00  0.00    +0.125 C 
BRANCH  25  28
ATOM     28  C   UNL     1      -4.116   2.095  -7.234  0.00  0.00    +0.072 A 
ATOM     29  C   UNL     1      -3.189   2.399  -8.220  0.00  0.00    +0.027 A 
ATOM     30  C   UNL     1      -3.434   3.434  -9.103  0.00  0.00    +0.002 A 
ATOM     31  C   UNL     1      -4.601   4.169  -9.005  0.00  0.00    +0.004 A 
ATOM     32  C   UNL     1      -5.530   3.872  -8.024  0.00  0.00    +0.047 A 
ATOM     33  C   UNL     1      -5.294   2.833  -7.139  0.00  0.00    +0.141 A 
BRANCH  33  34
ATOM     34  O   UNL     1      -6.208   2.536  -6.177  0.00  0.00    -0.493 OA
ATOM     35  C   UNL     1      -7.393   3.334  -6.140  0.00  0.00    +0.277 C 
ENDBRANCH  33  34
ENDBRANCH  25  28
ENDBRANCH  20  22
ENDBRANCH   1  20
TORSDOF 9
