REMARK  Name = ZINC40102070
REMARK  14 active torsions:
REMARK  status: ('A' for Active; 'I' for Inactive)
REMARK    1  A    between atoms: C_2  and  C_3
REMARK    2  A    between atoms: C_3  and  O_4
REMARK    3  A    between atoms: O_4  and  C_5
REMARK    4  A    between atoms: C_9  and  C_11
REMARK    5  A    between atoms: C_11  and  C_13
REMARK    6  A    between atoms: N_17  and  C_33
REMARK    7  A    between atoms: C_18  and  C_20
REMARK    8  A    between atoms: C_24  and  O_26
REMARK    9  A    between atoms: O_26  and  C_27
REMARK   10  A    between atoms: C_33  and  C_34
REMARK   11  A    between atoms: C_34  and  O_35
REMARK   12  A    between atoms: O_35  and  C_36
REMARK   13  A    between atoms: C_36  and  C_37
REMARK   14  A    between atoms: C_37  and  O_38
REMARK                            x       y       z     vdW  Elec       q    Type
REMARK                         _______ _______ _______ _____ _____    ______ ____
ROOT
ATOM      1  C   UNL     1       4.826  -6.577   2.946  0.00  0.00    +0.076 C 
ATOM      2  C   UNL     1       4.906  -7.694   3.708  0.00  0.00    +0.249 C 
ATOM      3  C   UNL     1       6.258  -8.276   3.575  0.00  0.00    +0.288 C 
ATOM      4  O   UNL     1       6.642  -9.283   4.136  0.00  0.00    -0.266 OA
ATOM      5  N   UNL     1       7.001  -7.526   2.741  0.00  0.00    -0.281 N 
ATOM      6  C   UNL     1       6.169  -6.410   2.276  0.00  0.00    +0.145 C 
ATOM      7  O   UNL     1       3.908  -8.196   4.470  0.00  0.00    -0.282 OA
ENDROOT
BRANCH   6   8
ATOM      8  C   UNL     1       6.792  -5.099   2.683  0.00  0.00    -0.019 A 
ATOM      9  C   UNL     1       7.485  -5.004   3.875  0.00  0.00    +0.006 A 
ATOM     10  C   UNL     1       8.058  -3.804   4.251  0.00  0.00    +0.004 A 
ATOM     11  C   UNL     1       7.939  -2.695   3.436  0.00  0.00    +0.046 A 
ATOM     12  C   UNL     1       7.244  -2.787   2.239  0.00  0.00    +0.129 A 
ATOM     13  C   UNL     1       6.675  -3.995   1.861  0.00  0.00    +0.052 A 
BRANCH  12  14
ATOM     14  O   UNL     1       7.125  -1.698   1.435  0.00  0.00    -0.456 OA
BRANCH  14  15
ATOM     15  C   UNL     1       5.891  -1.151   1.280  0.00  0.00    +0.128 A 
ATOM     16  C   UNL     1       4.824  -1.617   2.035  0.00  0.00    +0.046 A 
ATOM     17  C   UNL     1       3.571  -1.059   1.876  0.00  0.00    +0.004 A 
ATOM     18  C   UNL     1       3.378  -0.036   0.966  0.00  0.00    +0.000 A 
ATOM     19  C   UNL     1       4.439   0.430   0.212  0.00  0.00    +0.004 A 
ATOM     20  C   UNL     1       5.696  -0.120   0.372  0.00  0.00    +0.046 A 
ENDBRANCH  14  15
ENDBRANCH  12  14
ENDBRANCH   6   8
BRANCH   1  21
ATOM     21  C   UNL     1       3.659  -5.703   2.796  0.00  0.00    +0.195 C 
ATOM     22  O   UNL     1       3.261  -5.052   3.744  0.00  0.00    -0.287 OA
BRANCH  21  27
ATOM     23  C   UNL     1       1.161  -4.768   0.147  0.00  0.00    +0.122 A 
ATOM     24  C   UNL     1       1.670  -5.447  -0.953  0.00  0.00    +0.046 A 
ATOM     25  C   UNL     1       2.820  -6.205  -0.832  0.00  0.00    +0.004 A 
ATOM     26  C   UNL     1       3.470  -6.292   0.382  0.00  0.00    +0.012 A 
ATOM     27  C   UNL     1       2.966  -5.612   1.493  0.00  0.00    +0.026 A 
ATOM     28  C   UNL     1       1.807  -4.843   1.368  0.00  0.00    +0.057 A 
BRANCH  23  29
ATOM     29  O   UNL     1       0.029  -4.026   0.022  0.00  0.00    -0.488 OA
BRANCH  29  30
ATOM     30  C   UNL     1      -0.586  -3.993  -1.267  0.00  0.00    +0.256 C 
BRANCH  30  32
ATOM     31  C   UNL     1      -2.046  -2.253  -2.163  0.00  0.00    +0.007 C 
ATOM     32  C   UNL     1      -1.818  -3.126  -1.214  0.00  0.00    +0.006 C 
ENDBRANCH  30  32
ENDBRANCH  29  30
ENDBRANCH  23  29
ENDBRANCH  21  27
ENDBRANCH   1  21
BRANCH   5  33
ATOM     33  C   UNL     1       8.392  -7.782   2.360  0.00  0.00    +0.137 C 
BRANCH  33  34
ATOM     34  C   UNL     1       8.426  -8.664   1.111  0.00  0.00    +0.179 C 
BRANCH  34  35
ATOM     35  O   UNL     1       7.857  -7.953   0.010  0.00  0.00    -0.376 OA
BRANCH  35  36
ATOM     36  C   UNL     1       7.839  -8.693  -1.213  0.00  0.00    +0.187 C 
BRANCH  36  37
ATOM     37  C   UNL     1       7.212  -7.838  -2.317  0.00  0.00    +0.184 C 
BRANCH  37  38
ATOM     38  O   UNL     1       8.044  -6.705  -2.572  0.00  0.00    -0.393 OA
ATOM     39  H   UNL     1       7.707  -6.118  -3.263  0.00  0.00    +0.209 HD
ENDBRANCH  37  38
ENDBRANCH  36  37
ENDBRANCH  35  36
ENDBRANCH  34  35
ENDBRANCH  33  34
ENDBRANCH   5  33
TORSDOF 14
