REMARK  Name = ZINC64985917
REMARK  10 active torsions:
REMARK  status: ('A' for Active; 'I' for Inactive)
REMARK    1  A    between atoms: C_1  and  C_2
REMARK    2  A    between atoms: C_5  and  S_8
REMARK    3  A    between atoms: S_8  and  N_11
REMARK    4  A    between atoms: C_13  and  C_23
REMARK    5  A    between atoms: C_19  and  C_22
REMARK    6  A    between atoms: N_25  and  C_26
REMARK    7  A    between atoms: C_30  and  C_33
REMARK    8  A    between atoms: C_31  and  C_32
REMARK    9  A    between atoms: C_33  and  O_35
REMARK   10  A    between atoms: O_35  and  C_36
REMARK                            x       y       z     vdW  Elec       q    Type
REMARK                         _______ _______ _______ _____ _____    ______ ____
ROOT
ATOM      1  N   UNL     1       0.914  -5.181  -0.551  0.00  0.00    -0.195 N 
ATOM      2  C   UNL     1       1.760  -5.456  -1.725  0.00  0.00    +0.186 C 
ATOM      3  C   UNL     1       3.143  -4.847  -1.452  0.00  0.00    +0.278 C 
ATOM      4  O   UNL     1       3.673  -5.425  -0.256  0.00  0.00    -0.476 OA
ATOM      5  C   UNL     1       2.872  -5.454   0.842  0.00  0.00    +0.144 A 
ATOM      6  C   UNL     1       1.491  -5.331   0.719  0.00  0.00    +0.093 A 
ATOM      7  C   UNL     1       0.689  -5.361   1.848  0.00  0.00    +0.031 A 
ATOM      8  C   UNL     1       1.263  -5.505   3.098  0.00  0.00    -0.048 A 
ATOM      9  C   UNL     1       2.635  -5.620   3.221  0.00  0.00    +0.007 A 
ATOM     10  C   UNL     1       3.437  -5.603   2.099  0.00  0.00    +0.048 A 
ATOM     11  C   UNL     1       0.392  -5.538   4.327  0.00  0.00    +0.044 C 
ENDROOT
BRANCH   3  12
ATOM     12  C   UNL     1       4.062  -5.142  -2.609  0.00  0.00    +0.260 C 
ATOM     13  O   UNL     1       5.033  -5.852  -2.447  0.00  0.00    -0.271 OA
ATOM     14  N   UNL     1       3.806  -4.618  -3.824  0.00  0.00    -0.282 N 
ATOM     15  H   UNL     1       3.066  -4.002  -3.940  0.00  0.00    +0.155 HD
BRANCH  14  16
ATOM     16  C   UNL     1       4.609  -4.962  -4.918  0.00  0.00    +0.037 A 
ATOM     17  C   UNL     1       5.933  -5.333  -4.719  0.00  0.00    +0.023 A 
ATOM     18  C   UNL     1       6.730  -5.674  -5.796  0.00  0.00    +0.003 A 
ATOM     19  C   UNL     1       6.215  -5.648  -7.076  0.00  0.00    +0.015 A 
ATOM     20  C   UNL     1       4.886  -5.277  -7.287  0.00  0.00    +0.064 A 
ATOM     21  C   UNL     1       4.080  -4.939  -6.199  0.00  0.00    -0.015 A 
ATOM     22  C   UNL     1       2.643  -4.543  -6.417  0.00  0.00    +0.046 C 
BRANCH  20  23
ATOM     23  C   UNL     1       4.333  -5.249  -8.656  0.00  0.00    +0.339 C 
ATOM     24  O   UNL     1       3.163  -4.975  -8.833  0.00  0.00    -0.245 OA
BRANCH  23  25
ATOM     25  O   UNL     1       5.126  -5.526  -9.709  0.00  0.00    -0.464 OA
ATOM     26  C   UNL     1       4.524  -5.480 -11.005  0.00  0.00    +0.280 C 
ENDBRANCH  23  25
ENDBRANCH  20  23
ENDBRANCH  14  16
ENDBRANCH   3  12
BRANCH   1  27
ATOM     27  S   UNL     1      -0.663  -4.706  -0.725  0.00  0.00    +0.075 S 
ATOM     28  O   UNL     1      -0.800  -4.234  -2.058  0.00  0.00    -0.150 OA
ATOM     29  O   UNL     1      -0.971  -3.900   0.404  0.00  0.00    -0.150 OA
BRANCH  27  34
ATOM     30  C   UNL     1      -4.082  -9.659  -0.288  0.00  0.00    +0.044 C 
ATOM     31  C   UNL     1      -3.228  -8.422  -0.397  0.00  0.00    -0.050 A 
ATOM     32  C   UNL     1      -2.917  -7.694   0.736  0.00  0.00    +0.005 A 
ATOM     33  C   UNL     1      -2.134  -6.559   0.636  0.00  0.00    +0.029 A 
ATOM     34  C   UNL     1      -1.661  -6.153  -0.597  0.00  0.00    +0.109 A 
ATOM     35  C   UNL     1      -1.970  -6.881  -1.731  0.00  0.00    +0.029 A 
ATOM     36  C   UNL     1      -2.750  -8.018  -1.630  0.00  0.00    +0.005 A 
ENDBRANCH  27  34
ENDBRANCH   1  27
TORSDOF 6
