REMARK  Name = ZINC06811847
REMARK  6 active torsions:
REMARK  status: ('A' for Active; 'I' for Inactive)
REMARK    1  A    between atoms: C_1  and  C_2
REMARK    2  A    between atoms: C_2  and  C_3
REMARK    3  A    between atoms: C_9  and  C_23
REMARK    4  A    between atoms: C_11  and  C_14
REMARK    5  A    between atoms: N_16  and  C_17
REMARK    6  A    between atoms: C_26  and  C_29
REMARK                            x       y       z     vdW  Elec       q    Type
REMARK                         _______ _______ _______ _____ _____    ______ ____
ROOT
ATOM      1  C   UNL     1      -2.316   1.578  -1.301  0.00  0.00    +0.151 A 
ATOM      2  N   UNL     1      -2.537   2.084  -2.483  0.00  0.00    -0.132 NA
ATOM      3  N   UNL     1      -1.420   2.367  -3.061  0.00  0.00    -0.121 NA
ATOM      4  C   UNL     1      -0.432   2.054  -2.270  0.00  0.00    +0.209 A 
ATOM      5  N   UNL     1      -0.963   1.534  -1.124  0.00  0.00    -0.225 N 
ATOM      6  N   UNL     1      -0.283   1.068  -0.044  0.00  0.00    -0.272 N 
ATOM      7  C   UNL     1       1.079   1.593   0.065  0.00  0.00    +0.140 C 
ATOM      8  C   UNL     1       1.898   1.224  -1.179  0.00  0.00    +0.166 C 
ATOM      9  S   UNL     1       1.299   2.242  -2.562  0.00  0.00    -0.069 S 
ATOM     10  H   UNL     1      -0.284   0.059  -0.024  0.00  0.00    +0.167 HD
ENDROOT
BRANCH   7  11
ATOM     11  C   UNL     1       1.742   1.007   1.285  0.00  0.00    -0.024 A 
ATOM     12  C   UNL     1       1.539  -0.321   1.611  0.00  0.00    +0.006 A 
ATOM     13  C   UNL     1       2.151  -0.859   2.728  0.00  0.00    +0.004 A 
ATOM     14  C   UNL     1       2.957  -0.068   3.523  0.00  0.00    -0.050 A 
ATOM     15  C   UNL     1       3.156   1.262   3.200  0.00  0.00    +0.004 A 
ATOM     16  C   UNL     1       2.548   1.799   2.081  0.00  0.00    +0.006 A 
ATOM     17  C   UNL     1       3.620  -0.654   4.743  0.00  0.00    +0.044 C 
ENDBRANCH   7  11
BRANCH   8  18
ATOM     18  C   UNL     1       1.708  -0.236  -1.499  0.00  0.00    +0.233 C 
ATOM     19  O   UNL     1       2.393  -1.072  -0.948  0.00  0.00    -0.274 OA
ATOM     20  N   UNL     1       0.778  -0.614  -2.399  0.00  0.00    -0.285 N 
ATOM     21  H   UNL     1       0.278   0.057  -2.890  0.00  0.00    +0.155 HD
BRANCH  20  22
ATOM     22  C   UNL     1       0.535  -1.973  -2.624  0.00  0.00    +0.033 A 
ATOM     23  C   UNL     1       1.582  -2.884  -2.584  0.00  0.00    +0.023 A 
ATOM     24  C   UNL     1       1.337  -4.226  -2.802  0.00  0.00    +0.002 A 
ATOM     25  C   UNL     1       0.052  -4.661  -3.071  0.00  0.00    +0.000 A 
ATOM     26  C   UNL     1      -0.992  -3.755  -3.118  0.00  0.00    +0.002 A 
ATOM     27  C   UNL     1      -0.754  -2.413  -2.896  0.00  0.00    +0.023 A 
ENDBRANCH  20  22
ENDBRANCH   8  18
BRANCH   1  29
ATOM     28  C   UNL     1      -3.747   2.295   0.593  0.00  0.00    +0.012 C 
ATOM     29  C   UNL     1      -3.361   1.125  -0.314  0.00  0.00    +0.074 C 
ENDBRANCH   1  29
TORSDOF 4
