REMARK  Name = ZINC36065850
REMARK  14 active torsions:
REMARK  status: ('A' for Active; 'I' for Inactive)
REMARK    1  A    between atoms: C_1  and  C_2
REMARK    2  A    between atoms: C_2  and  C_3
REMARK    3  A    between atoms: C_3  and  C_5
REMARK    4  A    between atoms: C_3  and  N_6
REMARK    5  A    between atoms: C_7  and  C_9
REMARK    6  A    between atoms: C_12  and  C_14
REMARK    7  A    between atoms: C_14  and  N_15
REMARK    8  A    between atoms: N_15  and  C_16
REMARK    9  A    between atoms: N_15  and  C_26
REMARK   10  A    between atoms: C_16  and  C_17
REMARK   11  A    between atoms: C_20  and  C_23
REMARK   12  A    between atoms: C_23  and  C_24
REMARK   13  A    between atoms: C_23  and  C_25
REMARK   14  A    between atoms: C_26  and  C_27
REMARK                            x       y       z     vdW  Elec       q    Type
REMARK                         _______ _______ _______ _____ _____    ______ ____
ROOT
ATOM      1  N   UNL     1       6.914   3.250   0.095  0.00  0.00    +0.391 N 
ATOM      2  H   UNL     1       6.006   3.650  -0.092  0.00  0.00    -0.080 HD
ENDROOT
BRANCH   1   3
ATOM      3  C   UNL     1       6.767   1.820   0.395  0.00  0.00    +0.020 C 
BRANCH   3   7
ATOM      4  C   UNL     1       3.953   1.360   2.630  0.00  0.00    +0.163 A 
ATOM      5  C   UNL     1       4.970   1.443   3.531  0.00  0.00    +0.230 A 
ATOM      6  O   UNL     1       6.101   1.618   2.829  0.00  0.00    -0.449 OA
ATOM      7  C   UNL     1       5.787   1.642   1.526  0.00  0.00    +0.179 A 
ATOM      8  N   UNL     1       4.504   1.484   1.392  0.00  0.00    -0.210 NA
BRANCH   4  10
ATOM      9  N   UNL     1       1.623   1.097   1.938  0.00  0.00    -0.307 N 
ATOM     10  C   UNL     1       2.525   1.167   2.938  0.00  0.00    +0.266 C 
ATOM     11  O   UNL     1       2.159   1.070   4.094  0.00  0.00    -0.268 OA
ATOM     12  H   UNL     1       1.915   1.174   1.016  0.00  0.00    +0.149 HD
BRANCH   9  13
ATOM     13  C   UNL     1       0.204   0.905   2.244  0.00  0.00    +0.070 C 
ATOM     14  C   UNL     1      -0.084  -0.589   2.411  0.00  0.00    +0.028 C 
BRANCH  13  16
ATOM     15  C   UNL     1      -0.451   2.978   1.013  0.00  0.00    +0.005 C 
ATOM     16  C   UNL     1      -0.645   1.463   1.100  0.00  0.00    +0.018 C 
ENDBRANCH  13  16
ENDBRANCH   9  13
ENDBRANCH   4  10
ENDBRANCH   3   7
ENDBRANCH   1   3
BRANCH   1  17
ATOM     17  C   UNL     1       7.775   3.417  -1.083  0.00  0.00    -0.042 C 
BRANCH  17  18
ATOM     18  C   UNL     1       7.089   2.837  -2.293  0.00  0.00    -0.064 A 
ATOM     19  C   UNL     1       7.370   1.544  -2.694  0.00  0.00    +0.002 A 
ATOM     20  C   UNL     1       6.741   1.012  -3.804  0.00  0.00    +0.004 A 
ATOM     21  C   UNL     1       5.830   1.773  -4.513  0.00  0.00    -0.045 A 
ATOM     22  C   UNL     1       5.548   3.066  -4.112  0.00  0.00    +0.004 A 
ATOM     23  C   UNL     1       6.175   3.596  -2.999  0.00  0.00    +0.002 A 
BRANCH  21  24
ATOM     24  C   UNL     1       5.145   1.193  -5.723  0.00  0.00    +0.013 C 
ATOM     25  C   UNL     1       3.640   1.103  -5.463  0.00  0.00    +0.012 C 
ATOM     26  C   UNL     1       5.400   2.094  -6.934  0.00  0.00    +0.012 C 
ENDBRANCH  21  24
ENDBRANCH  17  18
ENDBRANCH   1  17
BRANCH   1  27
ATOM     27  C   UNL     1       7.521   3.932   1.246  0.00  0.00    -0.042 C 
BRANCH  27  28
ATOM     28  C   UNL     1       7.557   5.417   0.988  0.00  0.00    -0.060 A 
ATOM     29  C   UNL     1       8.700   6.000   0.472  0.00  0.00    +0.005 A 
ATOM     30  C   UNL     1       8.738   7.361   0.234  0.00  0.00    +0.050 A 
ATOM     31  C   UNL     1       7.630   8.145   0.512  0.00  0.00    +0.166 A 
ATOM     32  C   UNL     1       6.479   7.557   1.032  0.00  0.00    +0.166 A 
ATOM     33  C   UNL     1       6.446   6.192   1.263  0.00  0.00    +0.051 A 
ATOM     34  O   UNL     1       5.539   8.530   1.218  0.00  0.00    -0.453 OA
ATOM     35  C   UNL     1       6.263   9.774   1.191  0.00  0.00    +0.466 C 
ATOM     36  O   UNL     1       7.411   9.485   0.372  0.00  0.00    -0.453 OA
ENDBRANCH  27  28
ENDBRANCH   1  27
TORSDOF 10
