REMARK  Name = ZINC20799747
REMARK  1 active torsions:
REMARK  status: ('A' for Active; 'I' for Inactive)
REMARK    1  A    between atoms: C_1  and  N_2
REMARK                            x       y       z     vdW  Elec       q    Type
REMARK                         _______ _______ _______ _____ _____    ______ ____
ROOT
ATOM      1  C   UNL     1      -0.018   1.461   0.010  0.00  0.00    +0.138 C 
ATOM      2  N   UNL     1       0.002  -0.004   0.002  0.00  0.00    -0.271 N 
ATOM      3  C   UNL     1      -1.146  -0.798   0.003  0.00  0.00    +0.043 A 
ATOM      4  C   UNL     1      -2.495  -0.450   0.013  0.00  0.00    +0.024 A 
ATOM      5  C   UNL     1      -3.464  -1.431   0.011  0.00  0.00    +0.002 A 
ATOM      6  C   UNL     1      -3.107  -2.767   0.000  0.00  0.00    +0.001 A 
ATOM      7  C   UNL     1      -1.770  -3.121  -0.008  0.00  0.00    +0.010 A 
ATOM      8  C   UNL     1      -0.799  -2.145  -0.006  0.00  0.00    +0.024 A 
ATOM      9  C   UNL     1       0.707  -2.187  -0.009  0.00  0.00    +0.207 C 
ATOM     10  C   UNL     1       1.129  -0.739  -0.013  0.00  0.00    +0.266 C 
ATOM     11  O   UNL     1       2.266  -0.318  -0.026  0.00  0.00    -0.271 OA
ATOM     12  N   UNL     1       1.203  -2.865   1.195  0.00  0.00    -0.285 N 
ATOM     13  C   UNL     1       1.168  -4.253   1.174  0.00  0.00    +0.180 C 
ATOM     14  N   UNL     1       1.569  -4.866  -0.004  0.00  0.00    -0.270 N 
ATOM     15  C   UNL     1       1.570  -4.165  -1.153  0.00  0.00    +0.139 C 
ATOM     16  N   UNL     1       1.206  -2.872  -1.198  0.00  0.00    -0.294 N 
ATOM     17  S   UNL     1       2.051  -4.944  -2.600  0.00  0.00    -0.018 S 
ATOM     18  N   UNL     1       0.779  -4.944   2.207  0.00  0.00    -0.272 NA
ATOM     19  H   UNL     1       1.848  -5.795   0.001  0.00  0.00    +0.156 HD
ATOM     20  H   UNL     1       0.504  -4.490   3.019  0.00  0.00    +0.189 HD
ATOM     21  H   UNL     1       1.536  -2.371   1.960  0.00  0.00    +0.151 HD
ATOM     22  H   UNL     1       1.275  -2.386  -2.035  0.00  0.00    +0.151 HD
ENDROOT
TORSDOF 0
