REMARK  Name = ZINC06444567
REMARK  11 active torsions:
REMARK  status: ('A' for Active; 'I' for Inactive)
REMARK    1  A    between atoms: C_1  and  C_2
REMARK    2  A    between atoms: C_7  and  C_8
REMARK    3  A    between atoms: C_13  and  C_18
REMARK    4  A    between atoms: C_21  and  O_26
REMARK    5  A    between atoms: C_22  and  O_24
REMARK    6  A    between atoms: O_24  and  C_25
REMARK    7  A    between atoms: O_26  and  C_27
REMARK    8  A    between atoms: C_29  and  C_39
REMARK    9  A    between atoms: C_30  and  C_31
REMARK   10  A    between atoms: C_31  and  O_33
REMARK   11  A    between atoms: O_33  and  C_34
REMARK                            x       y       z     vdW  Elec       q    Type
REMARK                         _______ _______ _______ _____ _____    ______ ____
ROOT
ATOM      1  C   UNL     1      -0.202   5.308  -0.427  0.00  0.00    +0.092 C 
ATOM      2  C   UNL     1      -0.951   5.943   0.717  0.00  0.00    +0.024 C 
ATOM      3  C   UNL     1      -2.241   6.315   0.575  0.00  0.00    +0.016 C 
ATOM      4  C   UNL     1      -3.001   6.939   1.719  0.00  0.00    +0.059 C 
ATOM      5  C   UNL     1      -2.036   7.730   2.606  0.00  0.00    +0.032 C 
ATOM      6  C   UNL     1      -0.948   6.777   3.112  0.00  0.00    +0.088 C 
ATOM      7  C   UNL     1      -0.269   6.138   1.931  0.00  0.00    +0.162 C 
ATOM      8  O   UNL     1       0.889   5.783   2.029  0.00  0.00    -0.292 OA
ATOM      9  N   UNL     1      -2.888   6.135  -0.618  0.00  0.00    -0.321 N 
ATOM     10  C   UNL     1      -2.182   5.954  -1.774  0.00  0.00    +0.016 C 
ATOM     11  C   UNL     1      -0.896   5.564  -1.733  0.00  0.00    +0.065 C 
ATOM     12  C   UNL     1      -2.848   6.194  -3.104  0.00  0.00    +0.061 C 
ATOM     13  H   UNL     1      -3.988   6.135  -0.653  0.00  0.00    +0.152 HD
ENDROOT
BRANCH   1  20
ATOM     14  C   UNL     1       2.381   4.037  -0.175  0.00  0.00    +0.044 C 
ATOM     15  C   UNL     1       1.123   3.214  -0.076  0.00  0.00    -0.046 A 
ATOM     16  C   UNL     1       1.204   1.850   0.136  0.00  0.00    +0.003 A 
ATOM     17  C   UNL     1       0.050   1.095   0.227  0.00  0.00    +0.000 A 
ATOM     18  C   UNL     1      -1.185   1.702   0.101  0.00  0.00    +0.000 A 
ATOM     19  C   UNL     1      -1.267   3.066  -0.106  0.00  0.00    +0.005 A 
ATOM     20  C   UNL     1      -0.113   3.822  -0.197  0.00  0.00    -0.032 A 
ENDBRANCH   1  20
BRANCH   5  21
ATOM     21  C   UNL     1      -2.786   8.310   3.777  0.00  0.00    -0.040 A 
ATOM     22  C   UNL     1      -3.439   7.472   4.662  0.00  0.00    +0.008 A 
ATOM     23  C   UNL     1      -4.128   8.000   5.738  0.00  0.00    +0.049 A 
ATOM     24  C   UNL     1      -4.165   9.371   5.932  0.00  0.00    +0.161 A 
ATOM     25  C   UNL     1      -3.507  10.215   5.042  0.00  0.00    +0.162 A 
ATOM     26  C   UNL     1      -2.814   9.679   3.968  0.00  0.00    +0.053 A 
BRANCH  25  27
ATOM     27  O   UNL     1      -3.541  11.562   5.227  0.00  0.00    -0.491 OA
ATOM     28  C   UNL     1      -2.843  12.366   4.274  0.00  0.00    +0.277 C 
ENDBRANCH  25  27
BRANCH  24  29
ATOM     29  O   UNL     1      -4.843   9.892   6.990  0.00  0.00    -0.491 OA
ATOM     30  C   UNL     1      -5.494   8.966   7.862  0.00  0.00    +0.277 C 
ENDBRANCH  24  29
ENDBRANCH   5  21
BRANCH  11  31
ATOM     31  C   UNL     1      -0.184   5.390  -2.943  0.00  0.00    +0.338 C 
ATOM     32  O   UNL     1      -0.736   5.594  -4.008  0.00  0.00    -0.245 OA
BRANCH  31  33
ATOM     33  O   UNL     1       1.107   4.999  -2.916  0.00  0.00    -0.458 OA
BRANCH  33  34
ATOM     34  C   UNL     1       1.764   4.844  -4.175  0.00  0.00    +0.177 C 
ATOM     35  C   UNL     1       1.648   3.382  -4.655  0.00  0.00    +0.044 C 
ATOM     36  C   UNL     1       3.011   3.096  -5.333  0.00  0.00    +0.004 C 
ATOM     37  C   UNL     1       4.012   3.848  -4.420  0.00  0.00    +0.004 C 
ATOM     38  C   UNL     1       3.267   5.140  -4.026  0.00  0.00    +0.044 C 
ENDBRANCH  33  34
ENDBRANCH  31  33
ENDBRANCH  11  31
TORSDOF 7
