REMARK  Name = ZINC12885898
REMARK  12 active torsions:
REMARK  status: ('A' for Active; 'I' for Inactive)
REMARK    1  A    between atoms: C_1  and  O_2
REMARK    2  A    between atoms: O_2  and  C_3
REMARK    3  A    between atoms: C_6  and  C_11
REMARK    4  A    between atoms: C_8  and  O_9
REMARK    5  A    between atoms: O_9  and  C_10
REMARK    6  A    between atoms: C_18  and  O_22
REMARK    7  A    between atoms: O_22  and  C_23
REMARK    8  A    between atoms: C_23  and  C_24
REMARK    9  A    between atoms: N_26  and  CA_27
REMARK   10  A    between atoms: CA_27  and  CB_29
REMARK   11  A    between atoms: CA_27  and  C_33
REMARK   12  A    between atoms: CB_29  and  CG_30
REMARK                            x       y       z     vdW  Elec       q    Type
REMARK                         _______ _______ _______ _____ _____    ______ ____
ROOT
ATOM      1  C   UNK A   0      -8.751  -0.080  -8.149  0.00  0.00    +0.058 C 
ATOM      2  C   UNK A   0      -7.683   0.286  -7.394  0.00  0.00    +0.176 C 
ATOM      3  C   UNK A   0      -6.841   1.474  -7.598  0.00  0.00    +0.231 C 
ATOM      4  O   UNK A   0      -6.949   2.324  -8.464  0.00  0.00    -0.283 OA
ATOM      5  C   UNK A   0      -5.838   1.405  -6.519  0.00  0.00    +0.068 A 
ATOM      6  C   UNK A   0      -4.766   2.223  -6.160  0.00  0.00    +0.019 A 
ATOM      7  C   UNK A   0      -3.992   1.896  -5.083  0.00  0.00    +0.046 A 
ATOM      8  C   UNK A   0      -4.270   0.749  -4.344  0.00  0.00    +0.125 A 
ATOM      9  C   UNK A   0      -5.328  -0.075  -4.693  0.00  0.00    +0.092 A 
ATOM     10  C   UNK A   0      -6.129   0.246  -5.782  0.00  0.00    +0.143 A 
ATOM     11  O   UNK A   0      -7.202  -0.377  -6.316  0.00  0.00    -0.451 OA
ENDROOT
BRANCH   1  15
ATOM     12  C   UNK A   0     -10.702  -3.774  -7.407  0.00  0.00    +0.162 A 
ATOM     13  C   UNK A   0      -9.692  -3.340  -6.558  0.00  0.00    +0.050 A 
ATOM     14  C   UNK A   0      -9.052  -2.144  -6.797  0.00  0.00    +0.012 A 
ATOM     15  C   UNK A   0      -9.427  -1.358  -7.894  0.00  0.00    -0.018 A 
ATOM     16  C   UNK A   0     -10.445  -1.797  -8.750  0.00  0.00    +0.057 A 
ATOM     17  C   UNK A   0     -11.077  -2.999  -8.504  0.00  0.00    +0.162 A 
BRANCH  12  19
ATOM     18  C   UNK A   0     -10.892  -5.700  -6.027  0.00  0.00    +0.277 C 
ATOM     19  O   UNK A   0     -11.325  -4.957  -7.168  0.00  0.00    -0.491 OA
ENDBRANCH  12  19
BRANCH  17  20
ATOM     20  O   UNK A   0     -12.066  -3.429  -9.333  0.00  0.00    -0.491 OA
ATOM     21  C   UNK A   0     -12.399  -2.586 -10.438  0.00  0.00    +0.277 C 
ENDBRANCH  17  20
ENDBRANCH   1  15
BRANCH   8  22
ATOM     22  O   UNK A   0      -3.494   0.432  -3.276  0.00  0.00    -0.483 OA
BRANCH  22  23
ATOM     23  C   UNK A   0      -2.416   1.319  -2.972  0.00  0.00    +0.324 C 
BRANCH  23  24
ATOM     24  C   UNK A   0      -1.671   0.809  -1.765  0.00  0.00    +0.251 C 
ATOM     25  O   UNK A   0      -2.030  -0.212  -1.218  0.00  0.00    -0.272 OA
ATOM     26  N   ASN A   1      -0.608   1.489  -1.292  0.00  0.00    -0.299 N 
ATOM     27  H   ASN A   1      -0.322   2.306  -1.729  0.00  0.00    +0.150 HD
BRANCH  26  28
ATOM     28  CA  ASN A   1       0.115   0.994  -0.118  0.00  0.00    +0.195 C 
BRANCH  28  29
ATOM     29  C   ASN A   1      -0.569   1.478   1.134  0.00  0.00    +0.376 C 
ATOM     30  O   ASN A   1      -1.558   2.167   1.054  0.00  0.00    -0.244 OA
ATOM     31  OXT ASN A   1      -0.078   1.145   2.338  0.00  0.00    -0.244 OA
ENDBRANCH  28  29
BRANCH  28  32
ATOM     32  CB  ASN A   1       1.554   1.515  -0.148  0.00  0.00    +0.129 C 
BRANCH  32  33
ATOM     33  CG  ASN A   1       2.275   0.932  -1.336  0.00  0.00    +0.213 C 
ATOM     34  OD1 ASN A   1       1.695   0.174  -2.085  0.00  0.00    -0.276 OA
ATOM     35  ND2 ASN A   1       3.563   1.252  -1.566  0.00  0.00    -0.329 N 
ATOM     36 HD21 ASN A   1       4.027   1.858  -0.967  0.00  0.00    +0.145 HD
ATOM     37 HD22 ASN A   1       4.027   0.877  -2.331  0.00  0.00    +0.145 HD
ENDBRANCH  32  33
ENDBRANCH  28  32
ENDBRANCH  26  28
ENDBRANCH  23  24
ENDBRANCH  22  23
ENDBRANCH   8  22
TORSDOF 10
