REMARK  Name = ZINC09367016
REMARK  3 active torsions:
REMARK  status: ('A' for Active; 'I' for Inactive)
REMARK    1  A    between atoms: C_4  and  N_7
REMARK    2  A    between atoms: C_11  and  N_14
REMARK    3  A    between atoms: C_18  and  C_21
REMARK                            x       y       z     vdW  Elec       q    Type
REMARK                         _______ _______ _______ _____ _____    ______ ____
ROOT
ATOM      1  N   UNL     1       6.700   2.619  -1.486  0.00  0.00    -0.327 N 
ATOM      2  C   UNL     1       7.006   1.332  -0.849  0.00  0.00    +0.105 C 
ATOM      3  C   UNL     1       6.580   1.375   0.620  0.00  0.00    +0.020 C 
ATOM      4  C   UNL     1       5.078   1.662   0.703  0.00  0.00    +0.014 C 
ATOM      5  C   UNL     1       4.779   2.983  -0.011  0.00  0.00    +0.072 C 
ATOM      6  C   UNL     1       5.258   2.895  -1.462  0.00  0.00    +0.116 C 
ENDROOT
BRANCH   5   7
ATOM      7  C   UNL     1       3.295   3.244   0.014  0.00  0.00    +0.113 A 
ATOM      8  N   UNL     1       2.333   2.285  -0.068  0.00  0.00    -0.342 N 
ATOM      9  H   UNL     1       2.485   1.300  -0.155  0.00  0.00    +0.167 HD
ATOM     10  C   UNL     1       1.111   2.923  -0.010  0.00  0.00    +0.066 A 
ATOM     11  C   UNL     1      -0.208   2.491  -0.045  0.00  0.00    +0.028 A 
ATOM     12  C   UNL     1      -1.231   3.412   0.032  0.00  0.00    +0.002 A 
ATOM     13  C   UNL     1      -0.951   4.765   0.156  0.00  0.00    +0.002 A 
ATOM     14  C   UNL     1       0.341   5.209   0.192  0.00  0.00    +0.030 A 
ATOM     15  C   UNL     1       1.394   4.294   0.110  0.00  0.00    +0.089 A 
ATOM     16  N   UNL     1       2.746   4.419   0.118  0.00  0.00    -0.232 NA
ENDBRANCH   5   7
BRANCH   1  21
ATOM     17  N   UNL     1       8.149   2.726  -5.346  0.00  0.00    -0.195 N 
ATOM     18  C   UNL     1       8.655   3.588  -4.442  0.00  0.00    +0.292 A 
ATOM     19  O   UNL     1       9.524   4.381  -4.769  0.00  0.00    -0.264 OA
ATOM     20  C   UNL     1       8.176   3.569  -3.124  0.00  0.00    +0.129 A 
ATOM     21  C   UNL     1       7.191   2.661  -2.781  0.00  0.00    +0.074 A 
ATOM     22  C   UNL     1       6.695   1.773  -3.760  0.00  0.00    +0.158 A 
ATOM     23  N   UNL     1       7.153   1.815  -4.980  0.00  0.00    -0.170 NA
ATOM     24 CL   UNL     1       8.812   4.669  -1.941  0.00  0.00    -0.076 Cl
BRANCH  17  28
ATOM     25  C   UNL     1       9.563   2.775  -9.265  0.00  0.00    +0.000 A 
ATOM     26  C   UNL     1       9.463   1.576  -8.582  0.00  0.00    +0.002 A 
ATOM     27  C   UNL     1       8.995   1.556  -7.283  0.00  0.00    +0.028 A 
ATOM     28  C   UNL     1       8.624   2.742  -6.662  0.00  0.00    +0.069 A 
ATOM     29  C   UNL     1       8.721   3.944  -7.352  0.00  0.00    +0.028 A 
ATOM     30  C   UNL     1       9.195   3.957  -8.649  0.00  0.00    +0.002 A 
ENDBRANCH  17  28
ENDBRANCH   1  21
TORSDOF 3
