REMARK  Name = ZINC35585376
REMARK  6 active torsions:
REMARK  status: ('A' for Active; 'I' for Inactive)
REMARK    1  A    between atoms: C_1  and  C_2
REMARK    2  A    between atoms: C_2  and  C_3
REMARK    3  A    between atoms: C_3  and  N_4
REMARK    4  A    between atoms: N_4  and  C_5
REMARK    5  A    between atoms: C_5  and  C_7
REMARK    6  A    between atoms: C_5  and  C_14
REMARK                            x       y       z     vdW  Elec       q    Type
REMARK                         _______ _______ _______ _____ _____    ______ ____
ROOT
ATOM      1  C   UNL     1      -2.792  -2.511   0.015  0.00  0.00    -0.008 C 
ENDROOT
BRANCH   1   2
ATOM      2  C   UNL     1      -2.772  -4.013   0.131  0.00  0.00    -0.057 A 
ATOM      3  C   UNL     1      -1.826  -4.747  -0.561  0.00  0.00    +0.003 A 
ATOM      4  C   UNL     1      -1.808  -6.125  -0.455  0.00  0.00    +0.014 A 
ATOM      5  C   UNL     1      -2.736  -6.770   0.343  0.00  0.00    +0.013 A 
ATOM      6  C   UNL     1      -3.681  -6.035   1.035  0.00  0.00    +0.014 A 
ATOM      7  C   UNL     1      -3.696  -4.657   0.933  0.00  0.00    +0.003 A 
ATOM      8  I   UNL     1      -2.708  -8.859   0.503  0.00  0.00    -0.044 I 
ENDBRANCH   1   2
BRANCH   1   9
ATOM      9  C   UNL     1      -3.483  -2.115  -1.264  0.00  0.00    -0.030 A 
ATOM     10  C   UNL     1      -2.750  -1.865  -2.410  0.00  0.00    +0.031 A 
ATOM     11  C   UNL     1      -3.404  -1.511  -3.544  0.00  0.00    +0.080 A 
ATOM     12  S   UNL     1      -5.107  -1.522  -3.008  0.00  0.00    -0.065 S 
ATOM     13  C   UNL     1      -4.834  -2.002  -1.310  0.00  0.00    +0.081 A 
ATOM     14 CL   UNL     1      -5.996  -2.258  -0.046  0.00  0.00    -0.076 Cl
ATOM     15 CL   UNL     1      -2.754  -1.142  -5.111  0.00  0.00    -0.076 Cl
ENDBRANCH   1   9
BRANCH   1  16
ATOM     16  N   UNL     1      -1.413  -2.002   0.005  0.00  0.00    +0.386 N 
ATOM     17  H   UNL     1      -0.941  -2.328  -0.825  0.00  0.00    -0.085 HD
ATOM     18  H   UNL     1      -0.925  -2.337   0.822  0.00  0.00    -0.085 HD
BRANCH  16  19
ATOM     19  C   UNL     1      -1.433  -0.534   0.013  0.00  0.00    -0.082 C 
BRANCH  19  21
ATOM     20  C   UNL     1      -0.019   1.526   0.010  0.00  0.00    +0.002 C 
ATOM     21  C   UNL     1       0.002  -0.004   0.002  0.00  0.00    -0.022 C 
ENDBRANCH  19  21
ENDBRANCH  16  19
ENDBRANCH   1  16
TORSDOF 5
