REMARK  Name = ZINC63514361
REMARK  12 active torsions:
REMARK  status: ('A' for Active; 'I' for Inactive)
REMARK    1  A    between atoms: C_1  and  C_2
REMARK    2  A    between atoms: C_4  and  C_32
REMARK    3  A    between atoms: C_5  and  S_10
REMARK    4  A    between atoms: C_7  and  O_8
REMARK    5  A    between atoms: O_8  and  C_9
REMARK    6  A    between atoms: S_10  and  N_13
REMARK    7  A    between atoms: N_13  and  C_14
REMARK    8  A    between atoms: C_14  and  C_15
REMARK    9  A    between atoms: C_15  and  C_16
REMARK   10  A    between atoms: C_19  and  O_27
REMARK   11  A    between atoms: C_24  and  C_26
REMARK   12  A    between atoms: O_27  and  C_28
REMARK                            x       y       z     vdW  Elec       q    Type
REMARK                         _______ _______ _______ _____ _____    ______ ____
ROOT
ATOM      1  C   UNL     1      -2.386  -5.529  -1.970  0.00  0.00    +0.050 C 
ENDROOT
BRANCH   1   2
ATOM      2  C   UNL     1      -2.619  -5.272  -3.437  0.00  0.00    -0.037 C 
ATOM      3  C   UNL     1      -1.859  -4.513  -4.259  0.00  0.00    +0.003 A 
ATOM      4  C   UNL     1      -0.638  -3.729  -4.045  0.00  0.00    +0.056 A 
ATOM      5  C   UNL     1      -0.089  -3.053  -5.083  0.00  0.00    +0.129 A 
ATOM      6  C   UNL     1      -0.649  -3.073  -6.372  0.00  0.00    +0.048 A 
ATOM      7  C   UNL     1      -1.771  -3.765  -6.667  0.00  0.00    +0.029 A 
ATOM      8  C   UNL     1      -2.449  -4.533  -5.618  0.00  0.00    +0.043 A 
ATOM      9  N   UNL     1      -3.529  -5.274  -5.634  0.00  0.00    -0.378 N 
ATOM     10  C   UNL     1      -3.744  -5.815  -4.287  0.00  0.00    +0.103 C 
ATOM     11  C   UNL     1      -5.093  -5.342  -3.742  0.00  0.00    +0.035 C 
ATOM     12  H   UNL     1      -4.089  -5.441  -6.408  0.00  0.00    +0.160 HD
BRANCH   5  13
ATOM     13  O   UNL     1       1.042  -2.331  -4.871  0.00  0.00    -0.420 OA
BRANCH  13  14
ATOM     14  C   UNL     1       1.588  -1.634  -5.993  0.00  0.00    +0.489 C 
ATOM     15  F   UNL     1       1.910  -2.551  -6.999  0.00  0.00    -0.149 F 
ATOM     16  F   UNL     1       0.645  -0.722  -6.478  0.00  0.00    -0.149 F 
ATOM     17 CL   UNL     1       3.075  -0.749  -5.486  0.00  0.00    +0.000 Cl
ENDBRANCH  13  14
ENDBRANCH   5  13
ENDBRANCH   1   2
BRANCH   1  18
ATOM     18  C   UNL     1      -1.131  -4.782  -1.514  0.00  0.00    +0.110 C 
BRANCH  18  19
ATOM     19  N   UNL     1      -0.893  -5.048  -0.093  0.00  0.00    -0.190 NA
ATOM     20  H   UNL     1      -1.597  -5.433   0.453  0.00  0.00    +0.148 HD
BRANCH  19  21
ATOM     21  S   UNL     1       0.578  -4.694   0.581  0.00  0.00    +0.059 S 
ATOM     22  O   UNL     1       0.496  -5.062   1.951  0.00  0.00    -0.153 OA
ATOM     23  O   UNL     1       0.907  -3.375   0.165  0.00  0.00    -0.153 OA
BRANCH  21  28
ATOM     24  C   UNL     1       4.632  -8.380  -1.954  0.00  0.00    +0.047 C 
ATOM     25  C   UNL     1       3.621  -7.458  -1.321  0.00  0.00    -0.008 A 
ATOM     26  C   UNL     1       2.609  -7.977  -0.536  0.00  0.00    +0.012 A 
ATOM     27  C   UNL     1       1.681  -7.132   0.044  0.00  0.00    -0.024 A 
ATOM     28  C   UNL     1       1.763  -5.767  -0.160  0.00  0.00    +0.112 A 
ATOM     29  C   UNL     1       2.772  -5.244  -0.944  0.00  0.00    +0.074 A 
ATOM     30  C   UNL     1       3.708  -6.089  -1.523  0.00  0.00    +0.125 A 
ATOM     31  C   UNL     1       0.578  -7.700   0.900  0.00  0.00    +0.046 C 
BRANCH  30  32
ATOM     32  O   UNL     1       4.706  -5.576  -2.290  0.00  0.00    -0.495 OA
ATOM     33  C   UNL     1       4.734  -4.157  -2.454  0.00  0.00    +0.277 C 
ENDBRANCH  30  32
ENDBRANCH  21  28
ENDBRANCH  19  21
ENDBRANCH  18  19
ENDBRANCH   1  18
TORSDOF 8
