REMARK  Name = ZINC13064608
REMARK  11 active torsions:
REMARK  status: ('A' for Active; 'I' for Inactive)
REMARK    1  A    between atoms: C_1  and  C_2
REMARK    2  A    between atoms: C_2  and  C_3
REMARK    3  A    between atoms: C_3  and  C_5
REMARK    4  A    between atoms: C_3  and  N_73
REMARK    5  A    between atoms: N_9  and  C_10
REMARK    6  A    between atoms: C_16  and  C_17
REMARK    7  A    between atoms: C_16  and  N_73
REMARK    8  A    between atoms: C_21  and  C_30
REMARK    9  A    between atoms: C_22  and  C_29
REMARK   10  A    between atoms: C_31  and  C_32
REMARK   11  A    between atoms: C_31  and  N_73
REMARK                            x       y       z     vdW  Elec       q    Type
REMARK                         _______ _______ _______ _____ _____    ______ ____
ROOT
ATOM      1  N   UNL     1      -1.656   2.433   1.157  0.00  0.00    +0.391 N 
ATOM      2  H   UNL     1      -0.933   2.892   1.723  0.00  0.00    -0.080 HD
ENDROOT
BRANCH   1   3
ATOM      3  C   UNL     1      -2.915   3.199   1.272  0.00  0.00    +0.003 C 
BRANCH   3   4
ATOM      4  C   UNL     1      -3.970   2.620   0.366  0.00  0.00    +0.138 A 
ATOM      5  N   UNL     1      -3.805   2.218  -0.871  0.00  0.00    -0.115 NA
ATOM      6  N   UNL     1      -4.940   1.789  -1.304  0.00  0.00    -0.023 NA
ATOM      7  N   UNL     1      -5.825   1.907  -0.376  0.00  0.00    -0.044 NA
ATOM      8  N   UNL     1      -5.265   2.411   0.671  0.00  0.00    -0.228 N 
BRANCH   8   9
ATOM      9  C   UNL     1      -5.915   2.704   1.950  0.00  0.00    +0.111 C 
ATOM     10  C   UNL     1      -6.486   1.413   2.539  0.00  0.00    +0.027 C 
ATOM     11  C   UNL     1      -7.166   1.719   3.876  0.00  0.00    +0.002 C 
ATOM     12  C   UNL     1      -8.299   2.722   3.653  0.00  0.00    +0.000 C 
ATOM     13  C   UNL     1      -7.729   4.014   3.064  0.00  0.00    +0.002 C 
ATOM     14  C   UNL     1      -7.049   3.708   1.728  0.00  0.00    +0.027 C 
ENDBRANCH   8   9
ENDBRANCH   3   4
BRANCH   3  16
ATOM     15  C   UNL     1      -1.647   5.271   1.860  0.00  0.00    +0.002 C 
ATOM     16  C   UNL     1      -2.647   4.653   0.879  0.00  0.00    -0.011 C 
ENDBRANCH   3  16
ENDBRANCH   1   3
BRANCH   1  17
ATOM     17  C   UNL     1      -1.212   2.400  -0.253  0.00  0.00    -0.036 C 
BRANCH  17  18
ATOM     18  C   UNL     1       0.228   1.956  -0.296  0.00  0.00    +0.001 A 
ATOM     19  C   UNL     1       0.526   0.652  -0.517  0.00  0.00    +0.017 A 
ATOM     20  C   UNL     1       1.935   0.255  -0.559  0.00  0.00    -0.001 A 
ATOM     21  C   UNL     1       2.305  -1.075  -0.783  0.00  0.00    +0.013 A 
ATOM     22  C   UNL     1       3.628  -1.413  -0.817  0.00  0.00    -0.047 A 
ATOM     23  C   UNL     1       4.609  -0.448  -0.632  0.00  0.00    -0.046 A 
ATOM     24  C   UNL     1       4.268   0.868  -0.410  0.00  0.00    +0.030 A 
ATOM     25  C   UNL     1       2.926   1.236  -0.371  0.00  0.00    +0.049 A 
ATOM     26  N   UNL     1       2.556   2.546  -0.150  0.00  0.00    -0.322 N 
ATOM     27  H   UNL     1       3.241   3.221  -0.021  0.00  0.00    +0.169 HD
ATOM     28  C   UNL     1       1.260   2.901  -0.114  0.00  0.00    +0.251 A 
ATOM     29  O   UNL     1       0.969   4.068   0.083  0.00  0.00    -0.268 OA
ATOM     30  C   UNL     1       6.062  -0.845  -0.673  0.00  0.00    +0.044 C 
ATOM     31  C   UNL     1       4.027  -2.846  -1.058  0.00  0.00    +0.044 C 
ENDBRANCH  17  18
ENDBRANCH   1  17
BRANCH   1  32
ATOM     32  C   UNL     1      -1.855   1.056   1.656  0.00  0.00    -0.045 C 
BRANCH  32  33
ATOM     33  C   UNL     1      -1.904   1.091   3.185  0.00  0.00    +0.102 C 
ATOM     34  C   UNL     1      -1.933  -0.344   3.755  0.00  0.00    +0.032 C 
ATOM     35  C   UNL     1      -2.878  -0.245   4.974  0.00  0.00    +0.030 C 
ATOM     36  C   UNL     1      -3.307   1.238   4.996  0.00  0.00    +0.160 C 
ATOM     37  O   UNL     1      -3.137   1.692   3.635  0.00  0.00    -0.378 OA
ENDBRANCH  32  33
ENDBRANCH   1  32
TORSDOF 8
