REMARK  Name = ZINC36500712
REMARK  14 active torsions:
REMARK  status: ('A' for Active; 'I' for Inactive)
REMARK    1  A    between atoms: C_1  and  C_2
REMARK    2  A    between atoms: C_5  and  C_9
REMARK    3  A    between atoms: C_6  and  C_8
REMARK    4  A    between atoms: C_9  and  C_11
REMARK    5  A    between atoms: C_9  and  N_18
REMARK    6  A    between atoms: N_13  and  C_14
REMARK    7  A    between atoms: C_14  and  C_15
REMARK    8  A    between atoms: C_14  and  C_16
REMARK    9  A    between atoms: C_14  and  C_17
REMARK   10  A    between atoms: N_18  and  C_19
REMARK   11  A    between atoms: C_19  and  C_20
REMARK   12  A    between atoms: C_25  and  C_27
REMARK   13  A    between atoms: C_31  and  O_34
REMARK   14  A    between atoms: C_32  and  O_33
REMARK                            x       y       z     vdW  Elec       q    Type
REMARK                         _______ _______ _______ _____ _____    ______ ____
ROOT
ATOM      1  N   UNL     1      -1.782  -7.548  -2.311  0.00  0.00    -0.275 N 
ATOM      2  C   UNL     1      -2.714  -8.511  -2.459  0.00  0.00    +0.252 C 
ATOM      3  O   UNL     1      -3.598  -8.380  -3.283  0.00  0.00    -0.270 OA
ENDROOT
BRANCH   2   4
ATOM      4  C   UNL     1      -2.660  -9.725  -1.622  0.00  0.00    +0.082 A 
ATOM      5  C   UNL     1      -2.338  -9.628  -0.265  0.00  0.00    +0.017 A 
ATOM      6  C   UNL     1      -2.289 -10.763   0.514  0.00  0.00    +0.005 A 
ATOM      7  C   UNL     1      -2.558 -12.004  -0.039  0.00  0.00    +0.049 A 
ATOM      8  C   UNL     1      -2.878 -12.116  -1.382  0.00  0.00    +0.159 A 
ATOM      9  C   UNL     1      -2.937 -10.978  -2.180  0.00  0.00    +0.171 A 
BRANCH   9  10
ATOM     10  O   UNL     1      -3.256 -11.083  -3.495  0.00  0.00    -0.503 OA
ATOM     11  H   UNL     1      -2.494 -11.214  -4.076  0.00  0.00    +0.292 HD
ENDBRANCH   9  10
BRANCH   8  12
ATOM     12  O   UNL     1      -3.140 -13.338  -1.918  0.00  0.00    -0.503 OA
ATOM     13  H   UNL     1      -4.072 -13.594  -1.878  0.00  0.00    +0.292 HD
ENDBRANCH   8  12
ENDBRANCH   2   4
BRANCH   1  14
ATOM     14  C   UNL     1      -0.635  -7.769  -1.427  0.00  0.00    +0.193 C 
BRANCH  14  19
ATOM     15  C   UNL     1       4.256  -7.391  -4.482  0.00  0.00    +0.044 C 
ATOM     16  C   UNL     1       2.980  -7.490  -3.685  0.00  0.00    -0.050 A 
ATOM     17  C   UNL     1       2.595  -6.445  -2.866  0.00  0.00    +0.004 A 
ATOM     18  C   UNL     1       1.425  -6.535  -2.135  0.00  0.00    +0.006 A 
ATOM     19  C   UNL     1       0.640  -7.670  -2.224  0.00  0.00    -0.015 A 
ATOM     20  C   UNL     1       1.025  -8.714  -3.045  0.00  0.00    -0.045 A 
ATOM     21  C   UNL     1       2.193  -8.622  -3.779  0.00  0.00    +0.007 A 
ATOM     22  C   UNL     1       0.169  -9.951  -3.142  0.00  0.00    +0.044 C 
ENDBRANCH  14  19
BRANCH  14  23
ATOM     23  C   UNL     1      -0.630  -6.724  -0.341  0.00  0.00    +0.239 C 
ATOM     24  O   UNL     1      -1.421  -5.806  -0.379  0.00  0.00    -0.273 OA
ATOM     25  N   UNL     1       0.253  -6.811   0.673  0.00  0.00    -0.309 N 
ATOM     26  H   UNL     1       0.945  -7.491   0.657  0.00  0.00    +0.149 HD
BRANCH  25  27
ATOM     27  C   UNL     1       0.169  -5.878   1.800  0.00  0.00    +0.026 C 
ATOM     28  C   UNL     1      -1.193  -6.024   2.482  0.00  0.00    +0.031 C 
ATOM     29  C   UNL     1       1.279  -6.191   2.805  0.00  0.00    +0.031 C 
ATOM     30  C   UNL     1       0.332  -4.445   1.289  0.00  0.00    +0.031 C 
ENDBRANCH  25  27
ENDBRANCH  14  23
ENDBRANCH   1  14
BRANCH   1  31
ATOM     31  C   UNL     1      -1.917  -6.282  -3.035  0.00  0.00    +0.183 C 
BRANCH  31  32
ATOM     32  C   UNL     1      -2.905  -5.397  -2.319  0.00  0.00    +0.122 A 
ATOM     33  C   UNL     1      -2.663  -4.156  -1.862  0.00  0.00    +0.046 A 
ATOM     34  C   UNL     1      -3.858  -3.699  -1.262  0.00  0.00    +0.041 A 
ATOM     35  C   UNL     1      -4.760  -4.689  -1.388  0.00  0.00    +0.195 A 
ATOM     36  O   UNL     1      -4.179  -5.713  -2.034  0.00  0.00    -0.466 OA
ENDBRANCH  31  32
ENDBRANCH   1  31
TORSDOF 9
