REMARK  Name = ZINC40111859
REMARK  10 active torsions:
REMARK  status: ('A' for Active; 'I' for Inactive)
REMARK    1  A    between atoms: C_1  and  S_2
REMARK    2  A    between atoms: S_2  and  C_3
REMARK    3  A    between atoms: C_6  and  C_9
REMARK    4  A    between atoms: C_11  and  C_20
REMARK    5  A    between atoms: N_15  and  C_16
REMARK    6  A    between atoms: C_16  and  C_17
REMARK    7  A    between atoms: C_17  and  O_18
REMARK    8  A    between atoms: C_20  and  C_22
REMARK    9  A    between atoms: C_25  and  S_28
REMARK   10  A    between atoms: S_28  and  N_31
REMARK                            x       y       z     vdW  Elec       q    Type
REMARK                         _______ _______ _______ _____ _____    ______ ____
ROOT
ATOM      1  C   UNL     1      -5.258  -1.387  -0.094  0.00  0.00    +0.145 C 
ATOM      2  C   UNL     1      -6.099  -1.746  -1.296  0.00  0.00    +0.076 C 
ATOM      3  C   UNL     1      -6.623  -2.971  -1.054  0.00  0.00    +0.249 C 
ATOM      4  C   UNL     1      -6.161  -3.444   0.268  0.00  0.00    +0.288 C 
ATOM      5  O   UNL     1      -6.458  -4.509   0.771  0.00  0.00    -0.266 OA
ATOM      6  N   UNL     1      -5.362  -2.519   0.834  0.00  0.00    -0.281 N 
ATOM      7  O   UNL     1      -7.440  -3.654  -1.889  0.00  0.00    -0.282 OA
ENDROOT
BRANCH   1  11
ATOM      8  C   UNL     1      -1.187  -0.820  -1.267  0.00  0.00    +0.008 A 
ATOM      9  C   UNL     1      -1.980   0.277  -0.951  0.00  0.00    +0.015 A 
ATOM     10  C   UNL     1      -3.295   0.090  -0.573  0.00  0.00    +0.007 A 
ATOM     11  C   UNL     1      -3.822  -1.187  -0.508  0.00  0.00    -0.022 A 
ATOM     12  C   UNL     1      -3.036  -2.280  -0.821  0.00  0.00    +0.007 A 
ATOM     13  C   UNL     1      -1.722  -2.101  -1.207  0.00  0.00    +0.015 A 
BRANCH   8  15
ATOM     14  C   UNL     1       0.722   1.212  -1.680  0.00  0.00    +0.090 C 
ATOM     15  S   UNL     1       0.491  -0.586  -1.751  0.00  0.00    -0.129 S 
ENDBRANCH   8  15
ENDBRANCH   1  11
BRANCH   2  16
ATOM     16  C   UNL     1      -6.309  -0.927  -2.494  0.00  0.00    +0.195 C 
ATOM     17  O   UNL     1      -5.914  -1.319  -3.576  0.00  0.00    -0.287 OA
BRANCH  16  18
ATOM     18  C   UNL     1      -7.000   0.376  -2.386  0.00  0.00    +0.022 A 
ATOM     19  C   UNL     1      -7.552   0.778  -1.168  0.00  0.00    +0.013 A 
ATOM     20  C   UNL     1      -8.195   1.995  -1.075  0.00  0.00    +0.029 A 
ATOM     21  C   UNL     1      -8.294   2.816  -2.185  0.00  0.00    +0.106 A 
ATOM     22  C   UNL     1      -7.749   2.423  -3.395  0.00  0.00    +0.029 A 
ATOM     23  C   UNL     1      -7.098   1.211  -3.501  0.00  0.00    +0.013 A 
BRANCH  21  24
ATOM     24  S   UNL     1      -9.117   4.368  -2.058  0.00  0.00    +0.061 S 
ATOM     25  O   UNL     1      -9.552   4.707  -3.368  0.00  0.00    -0.153 OA
ATOM     26  O   UNL     1     -10.015   4.263  -0.961  0.00  0.00    -0.153 OA
BRANCH  24  27
ATOM     27  N   UNL     1      -7.979   5.493  -1.631  0.00  0.00    -0.177 NA
ATOM     28  C   UNL     1      -7.608   5.857  -0.256  0.00  0.00    +0.109 C 
ATOM     29  C   UNL     1      -6.532   6.959  -0.348  0.00  0.00    +0.018 C 
ATOM     30  C   UNL     1      -6.764   7.554  -1.763  0.00  0.00    +0.018 C 
ATOM     31  C   UNL     1      -7.166   6.290  -2.567  0.00  0.00    +0.109 C 
ENDBRANCH  24  27
ENDBRANCH  21  24
ENDBRANCH  16  18
ENDBRANCH   2  16
BRANCH   6  32
ATOM     32  C   UNL     1      -4.712  -2.623   2.143  0.00  0.00    +0.137 C 
BRANCH  32  33
ATOM     33  C   UNL     1      -5.634  -2.046   3.218  0.00  0.00    +0.175 C 
BRANCH  33  34
ATOM     34  O   UNL     1      -6.813  -2.848   3.316  0.00  0.00    -0.393 OA
ATOM     35  H   UNL     1      -7.444  -2.539   3.980  0.00  0.00    +0.209 HD
ENDBRANCH  33  34
ENDBRANCH  32  33
ENDBRANCH   6  32
TORSDOF 9
