REMARK  Name = ZINC65058679
REMARK  8 active torsions:
REMARK  status: ('A' for Active; 'I' for Inactive)
REMARK    1  A    between atoms: C_1  and  C_2
REMARK    2  A    between atoms: C_5  and  C_29
REMARK    3  A    between atoms: C_6  and  N_8
REMARK    4  A    between atoms: C_15  and  C_17
REMARK    5  A    between atoms: C_15  and  C_18
REMARK    6  A    between atoms: N_20  and  C_21
REMARK    7  A    between atoms: C_21  and  C_22
REMARK    8  A    between atoms: C_27  and  C_28
REMARK                            x       y       z     vdW  Elec       q    Type
REMARK                         _______ _______ _______ _____ _____    ______ ____
ROOT
ATOM      1  N   UNL     1       0.045  -2.797   2.393  0.00  0.00    -0.269 N 
ATOM      2  C   UNL     1       0.149  -2.135   3.562  0.00  0.00    +0.306 C 
ATOM      3  O   UNL     1       0.139  -0.919   3.575  0.00  0.00    -0.252 OA
ATOM      4  N   UNL     1       0.266  -2.819   4.717  0.00  0.00    -0.284 N 
ATOM      5  C   UNL     1       0.403  -4.282   4.710  0.00  0.00    +0.109 C 
ATOM      6  C   UNL     1      -0.673  -4.883   5.620  0.00  0.00    +0.020 C 
ATOM      7  C   UNL     1      -0.573  -4.249   7.009  0.00  0.00    +0.019 C 
ATOM      8  C   UNL     1      -0.816  -2.742   6.903  0.00  0.00    +0.060 C 
ATOM      9  C   UNL     1       0.264  -2.116   6.008  0.00  0.00    +0.125 C 
ATOM     10  C   UNL     1      -0.748  -2.115   8.297  0.00  0.00    +0.022 C 
ATOM     11  H   UNL     1      -0.015  -3.766   2.389  0.00  0.00    +0.156 HD
ENDROOT
BRANCH   1  17
ATOM     12  C   UNL     1      -1.003   1.322  -0.078  0.00  0.00    +0.044 C 
ATOM     13  C   UNL     1      -0.479  -0.091  -0.040  0.00  0.00    -0.049 A 
ATOM     14  C   UNL     1      -0.019  -0.689  -1.199  0.00  0.00    +0.004 A 
ATOM     15  C   UNL     1       0.463  -1.984  -1.169  0.00  0.00    +0.005 A 
ATOM     16  C   UNL     1       0.485  -2.686   0.021  0.00  0.00    -0.029 A 
ATOM     17  C   UNL     1       0.024  -2.089   1.187  0.00  0.00    +0.038 A 
ATOM     18  C   UNL     1      -0.454  -0.785   1.153  0.00  0.00    +0.027 A 
ATOM     19  C   UNL     1       1.009  -4.099   0.054  0.00  0.00    +0.045 C 
ENDBRANCH   1  17
BRANCH   8  20
ATOM     20  C   UNL     1      -2.177  -2.493   6.304  0.00  0.00    +0.221 C 
ATOM     21  O   UNL     1      -2.883  -3.429   5.993  0.00  0.00    -0.275 OA
ATOM     22  N   UNL     1      -2.609  -1.231   6.115  0.00  0.00    -0.311 N 
ATOM     23  H   UNL     1      -2.044  -0.482   6.364  0.00  0.00    +0.149 HD
BRANCH  22  24
ATOM     24  C   UNL     1      -3.932  -0.989   5.534  0.00  0.00    +0.139 C 
BRANCH  24  25
ATOM     25  C   UNL     1      -4.171   0.495   5.429  0.00  0.00    -0.027 A 
ATOM     26  C   UNL     1      -4.938   1.141   6.382  0.00  0.00    +0.005 A 
ATOM     27  C   UNL     1      -5.157   2.502   6.286  0.00  0.00    +0.000 A 
ATOM     28  C   UNL     1      -4.609   3.219   5.239  0.00  0.00    +0.000 A 
ATOM     29  C   UNL     1      -3.841   2.574   4.287  0.00  0.00    +0.003 A 
ATOM     30  C   UNL     1      -3.618   1.213   4.385  0.00  0.00    -0.046 A 
ATOM     31  C   UNL     1      -2.776   0.511   3.351  0.00  0.00    +0.044 C 
ENDBRANCH  24  25
ENDBRANCH  22  24
ENDBRANCH   8  20
TORSDOF 4
