REMARK  Name = ZINC39865976
REMARK  9 active torsions:
REMARK  status: ('A' for Active; 'I' for Inactive)
REMARK    1  A    between atoms: C_1  and  O_2
REMARK    2  A    between atoms: O_2  and  C_3
REMARK    3  A    between atoms: C_5  and  C_12
REMARK    4  A    between atoms: C_7  and  O_10
REMARK    5  A    between atoms: C_8  and  O_9
REMARK    6  A    between atoms: O_10  and  C_11
REMARK    7  A    between atoms: N_16  and  C_31
REMARK    8  A    between atoms: N_18  and  C_19
REMARK    9  A    between atoms: C_21  and  C_24
REMARK                            x       y       z     vdW  Elec       q    Type
REMARK                         _______ _______ _______ _____ _____    ______ ____
ROOT
ATOM      1  C   UNL     1       2.290   0.380  -4.474  0.00  0.00    +0.028 C 
ATOM      2  C   UNL     1       3.182  -0.268  -5.266  0.00  0.00    +0.078 C 
ATOM      3  C   UNL     1       3.831   0.186  -6.510  0.00  0.00    +0.263 C 
ATOM      4  O   UNL     1       3.603   1.284  -6.983  0.00  0.00    -0.269 OA
ATOM      5  N   UNL     1       4.671  -0.654  -7.090  0.00  0.00    -0.214 N 
ATOM      6  C   UNL     1       4.917  -1.894  -6.539  0.00  0.00    +0.175 C 
ATOM      7  N   UNL     1       5.717  -2.843  -6.981  0.00  0.00    -0.199 NA
ATOM      8  S   UNL     1       3.893  -1.896  -5.076  0.00  0.00    -0.048 S 
ENDROOT
BRANCH   1  11
ATOM      9  C   UNL     1       2.275  -1.808  -1.427  0.00  0.00    +0.166 A 
ATOM     10  C   UNL     1       2.623  -1.282  -2.656  0.00  0.00    +0.057 A 
ATOM     11  C   UNL     1       1.924  -0.182  -3.168  0.00  0.00    -0.017 A 
ATOM     12  C   UNL     1       0.875   0.381  -2.430  0.00  0.00    +0.057 A 
ATOM     13  C   UNL     1       0.534  -0.151  -1.201  0.00  0.00    +0.166 A 
ATOM     14  C   UNL     1       1.228  -1.249  -0.699  0.00  0.00    +0.201 A 
BRANCH   9  16
ATOM     15  C   UNL     1       4.016  -3.400  -1.728  0.00  0.00    +0.277 C 
ATOM     16  O   UNL     1       2.954  -2.877  -0.929  0.00  0.00    -0.491 OA
ENDBRANCH   9  16
BRANCH  14  17
ATOM     17  O   UNL     1       0.886  -1.773   0.508  0.00  0.00    -0.501 OA
ATOM     18  H   UNL     1       1.355  -1.378   1.256  0.00  0.00    +0.292 HD
ENDBRANCH  14  17
BRANCH  13  19
ATOM     19  O   UNL     1      -0.484   0.395  -0.484  0.00  0.00    -0.491 OA
ATOM     20  C   UNL     1      -1.156   1.516  -1.062  0.00  0.00    +0.277 C 
ENDBRANCH  13  19
ENDBRANCH   1  11
BRANCH   5  21
ATOM     21  C   UNL     1       5.319  -0.281  -8.275  0.00  0.00    +0.043 A 
ATOM     22  C   UNL     1       4.743  -0.575  -9.504  0.00  0.00    +0.024 A 
ATOM     23  C   UNL     1       5.384  -0.206 -10.671  0.00  0.00    +0.002 A 
ATOM     24  C   UNL     1       6.596   0.456 -10.616  0.00  0.00    +0.000 A 
ATOM     25  C   UNL     1       7.172   0.750  -9.393  0.00  0.00    +0.002 A 
ATOM     26  C   UNL     1       6.534   0.388  -8.223  0.00  0.00    +0.024 A 
ENDBRANCH   5  21
BRANCH   7  27
ATOM     27  C   UNL     1       6.519  -2.611  -8.051  0.00  0.00    +0.195 A 
ATOM     28  N   UNL     1       6.285  -2.831  -9.339  0.00  0.00    -0.221 NA
ATOM     29  C   UNL     1       7.193  -2.541 -10.258  0.00  0.00    +0.080 A 
ATOM     30  C   UNL     1       8.391  -2.004  -9.873  0.00  0.00    +0.077 A 
ATOM     31  S   UNL     1       8.166  -1.920  -8.102  0.00  0.00    -0.056 S 
BRANCH  29  32
ATOM     32  C   UNL     1       6.913  -2.795 -11.692  0.00  0.00    +0.001 A 
ATOM     33  C   UNL     1       7.874  -2.494 -12.656  0.00  0.00    +0.010 A 
ATOM     34  C   UNL     1       7.608  -2.733 -13.989  0.00  0.00    +0.001 A 
ATOM     35  C   UNL     1       6.392  -3.270 -14.369  0.00  0.00    +0.000 A 
ATOM     36  C   UNL     1       5.434  -3.571 -13.416  0.00  0.00    +0.001 A 
ATOM     37  C   UNL     1       5.691  -3.342 -12.080  0.00  0.00    +0.010 A 
ENDBRANCH  29  32
ENDBRANCH   7  27
TORSDOF 7
