REMARK  Name = ZINC42892025
REMARK  9 active torsions:
REMARK  status: ('A' for Active; 'I' for Inactive)
REMARK    1  A    between atoms: C_3  and  N_27
REMARK    2  A    between atoms: C_6  and  C_7
REMARK    3  A    between atoms: C_7  and  C_9
REMARK    4  A    between atoms: C_7  and  O_26
REMARK    5  A    between atoms: C_9  and  C_11
REMARK    6  A    between atoms: C_9  and  N_13
REMARK    7  A    between atoms: C_11  and  O_12
REMARK    8  A    between atoms: N_16  and  C_17
REMARK    9  A    between atoms: N_20  and  C_23
REMARK                            x       y       z     vdW  Elec       q    Type
REMARK                         _______ _______ _______ _____ _____    ______ ____
ROOT
ATOM      1  C   UNK A   1      -1.616  -1.244  -1.410  0.00  0.00    +0.133 C 
ENDROOT
BRANCH   1   2
ATOM      2  N   UNK A   1      -0.537  -2.106  -1.897  0.00  0.00    -0.292 N 
ATOM      3  C   UNK A   0      -0.321  -2.232  -3.222  0.00  0.00    +0.300 C 
ATOM      4  O   UNK A   0      -1.021  -1.629  -4.012  0.00  0.00    -0.253 OA
ATOM      5  N   UNK A   0       0.672  -3.026  -3.670  0.00  0.00    -0.297 N 
ATOM      6  H   UNK A   1       0.022  -2.587  -1.267  0.00  0.00    +0.151 HD
ATOM      7  H   UNK A   0       1.231  -3.506  -3.039  0.00  0.00    +0.151 HD
BRANCH   5   8
ATOM      8  C   UNK A   0       0.907  -3.162  -5.109  0.00  0.00    +0.071 C 
ATOM      9  C   UNK A   0      -0.008  -4.251  -5.677  0.00  0.00    +0.004 C 
ATOM     10  C   UNK A   0       0.299  -4.444  -7.163  0.00  0.00    -0.077 C 
ATOM     11  N   UNK A   0       1.701  -4.846  -7.330  0.00  0.00    +0.382 N 
ATOM     12  C   UNK A   0       2.585  -3.775  -6.854  0.00  0.00    -0.077 C 
ATOM     13  C   UNK A   0       2.366  -3.557  -5.355  0.00  0.00    +0.004 C 
ATOM     14  H   UNK A   0       1.874  -5.685  -6.798  0.00  0.00    -0.081 HD
BRANCH  11  15
ATOM     15  C   UNK A   0       1.969  -5.105  -8.751  0.00  0.00    -0.069 C 
ATOM     16  C   UNK A   0       2.240  -6.552  -9.166  0.00  0.00    -0.017 C 
ATOM     17  C   UNK A   0       3.385  -5.539  -9.134  0.00  0.00    -0.017 C 
ENDBRANCH  11  15
ENDBRANCH   5   8
ENDBRANCH   1   2
BRANCH   1  18
ATOM     18  C   UNK A   1      -1.293  -0.775   0.010  0.00  0.00    +0.167 C 
BRANCH  18  24
ATOM     19  C   UNK A   1      -0.017   1.378   0.010  0.00  0.00    +0.008 A 
ATOM     20  C   UNK A   1       1.171   2.086   0.002  0.00  0.00    +0.033 A 
ATOM     21  C   UNK A   1       2.377   1.411  -0.013  0.00  0.00    +0.126 A 
ATOM     22  C   UNK A   1       2.396   0.029  -0.020  0.00  0.00    +0.033 A 
ATOM     23  C   UNK A   1       1.208  -0.679  -0.012  0.00  0.00    +0.008 A 
ATOM     24  C   UNK A   1       0.002  -0.004   0.002  0.00  0.00    -0.017 A 
BRANCH  21  25
ATOM     25  N   UNK A   1       3.649   2.168  -0.022  0.00  0.00    +0.056 N 
ATOM     26  O   UNK A   1       3.633   3.377  -0.016  0.00  0.00    -0.126 OA
ATOM     27  O   UNK A   1       4.704   1.578  -0.035  0.00  0.00    -0.126 OA
ENDBRANCH  21  25
ENDBRANCH  18  24
BRANCH  18  28
ATOM     28  O   UNK A   1      -1.165  -1.910   0.869  0.00  0.00    -0.385 OA
ATOM     29  H   UNK A   1      -0.468  -2.526   0.606  0.00  0.00    +0.210 HD
ENDBRANCH  18  28
ENDBRANCH   1  18
BRANCH   1  30
ATOM     30  C   UNK A   1      -2.931  -2.027  -1.402  0.00  0.00    +0.181 C 
BRANCH  30  31
ATOM     31  O   UNK A   1      -2.843  -3.094  -0.456  0.00  0.00    -0.393 OA
ATOM     32  H   UNK A   1      -3.643  -3.634  -0.397  0.00  0.00    +0.209 HD
ENDBRANCH  30  31
ENDBRANCH   1  30
TORSDOF 9
