REMARK  Name = ZINC11817830
REMARK  5 active torsions:
REMARK  status: ('A' for Active; 'I' for Inactive)
REMARK    1  A    between atoms: C_4  and  C_24
REMARK    2  A    between atoms: C_5  and  C_7
REMARK    3  A    between atoms: C_7  and  N_8
REMARK    4  A    between atoms: C_10  and  N_15
REMARK    5  A    between atoms: C_16  and  C_18
REMARK                            x       y       z     vdW  Elec       q    Type
REMARK                         _______ _______ _______ _____ _____    ______ ____
ROOT
ATOM      1  N   UNL     1       0.597  -3.026  -0.914  0.00  0.00    -0.295 N 
ATOM      2  C   UNL     1       1.592  -3.596  -1.831  0.00  0.00    +0.130 C 
ATOM      3  C   UNL     1       0.854  -3.783  -3.175  0.00  0.00    +0.099 C 
ATOM      4  C   UNL     1      -0.615  -3.915  -2.712  0.00  0.00    +0.119 C 
ATOM      5  C   UNL     1      -0.652  -3.201  -1.379  0.00  0.00    +0.218 C 
ATOM      6  O   UNL     1      -1.661  -2.838  -0.813  0.00  0.00    -0.276 OA
ENDROOT
BRANCH   3   7
ATOM      7  N   UNL     1       1.302  -5.001  -3.853  0.00  0.00    -0.310 N 
ATOM      8  C   UNL     1       1.196  -5.104  -5.193  0.00  0.00    +0.217 C 
ATOM      9  O   UNL     1       0.730  -4.188  -5.837  0.00  0.00    -0.276 OA
ATOM     10  H   UNL     1       1.675  -5.734  -3.339  0.00  0.00    +0.149 HD
BRANCH   8  11
ATOM     11  C   UNL     1       1.656  -6.358  -5.891  0.00  0.00    +0.079 C 
ATOM     12  C   UNL     1       3.149  -6.574  -5.625  0.00  0.00    +0.041 C 
ATOM     13  C   UNL     1       3.626  -7.803  -6.403  0.00  0.00    +0.160 C 
ATOM     14  O   UNL     1       3.359  -7.619  -7.795  0.00  0.00    -0.380 OA
ATOM     15  C   UNL     1       1.973  -7.461  -8.107  0.00  0.00    +0.160 C 
ATOM     16  C   UNL     1       1.431  -6.217  -7.400  0.00  0.00    +0.041 C 
ENDBRANCH   8  11
ENDBRANCH   3   7
BRANCH   1  17
ATOM     17  C   UNL     1       0.923  -2.358   0.349  0.00  0.00    +0.143 C 
BRANCH  17  22
ATOM     18  C   UNL     1       1.202   0.971  -1.410  0.00  0.00    +0.000 A 
ATOM     19  C   UNL     1       1.535   1.809  -0.362  0.00  0.00    +0.001 A 
ATOM     20  C   UNL     1       1.668   1.299   0.915  0.00  0.00    +0.013 A 
ATOM     21  C   UNL     1       1.470  -0.050   1.146  0.00  0.00    +0.059 A 
ATOM     22  C   UNL     1       1.139  -0.888   0.098  0.00  0.00    -0.018 A 
ATOM     23  C   UNL     1       1.005  -0.378  -1.180  0.00  0.00    +0.006 A 
BRANCH  21  24
ATOM     24  C   UNL     1       1.615  -0.606   2.539  0.00  0.00    +0.418 C 
ATOM     25  F   UNL     1       1.948   0.428   3.421  0.00  0.00    -0.166 F 
ATOM     26  F   UNL     1       0.407  -1.188   2.937  0.00  0.00    -0.166 F 
ATOM     27  F   UNL     1       2.626  -1.573   2.551  0.00  0.00    -0.166 F 
ENDBRANCH  21  24
ENDBRANCH  17  22
ENDBRANCH   1  17
TORSDOF 5
