REMARK  Name = ZINC39783582
REMARK  3 active torsions:
REMARK  status: ('A' for Active; 'I' for Inactive)
REMARK    1  A    between atoms: C_1  and  C_2
REMARK    2  A    between atoms: C_3  and  C_20
REMARK    3  A    between atoms: C_16  and  C_17
REMARK                            x       y       z     vdW  Elec       q    Type
REMARK                         _______ _______ _______ _____ _____    ______ ____
ROOT
ATOM      1  C   UNL     1      -0.018   1.503   0.010  0.00  0.00    +0.041 C 
ATOM      2  C   UNL     1       0.002  -0.004   0.002  0.00  0.00    -0.049 C 
ATOM      3  C   UNL     1       0.006  -0.705  -1.145  0.00  0.00    -0.016 C 
ATOM      4  S   UNL     1      -0.049  -2.431  -0.648  0.00  0.00    -0.104 S 
ATOM      5  C   UNL     1      -0.716  -2.149   1.030  0.00  0.00    +0.174 C 
ATOM      6  C   UNL     1       0.025  -0.784   1.248  0.00  0.00    +0.136 C 
ATOM      7  C   UNL     1      -0.336  -0.244   2.578  0.00  0.00    +0.248 C 
ATOM      8  O   UNL     1      -0.640   0.922   2.738  0.00  0.00    -0.273 OA
ATOM      9  N   UNL     1      -0.307  -1.126   3.609  0.00  0.00    -0.161 NA
ATOM     10  C   UNL     1      -0.079  -2.405   3.362  0.00  0.00    +0.167 C 
ATOM     11  N   UNL     1      -0.232  -2.992   2.088  0.00  0.00    -0.207 N 
ATOM     12  N   UNL     1       0.141  -4.316   2.206  0.00  0.00    -0.182 N 
ATOM     13  N   UNL     1       0.346  -4.618   3.442  0.00  0.00    -0.159 NA
ATOM     14  C   UNL     1       0.242  -3.533   4.229  0.00  0.00    +0.210 C 
ATOM     15  C   UNL     1       0.048  -0.159  -2.549  0.00  0.00    +0.051 C 
ATOM     16  H   UNL     1       0.235  -4.932   1.463  0.00  0.00    +0.193 HD
ENDROOT
BRANCH  14  17
ATOM     17  C   UNL     1       0.367  -3.499   5.690  0.00  0.00    +0.409 C 
ATOM     18  O   UNL     1       0.643  -4.522   6.304  0.00  0.00    -0.239 OA
ATOM     19  O   UNL     1       0.195  -2.450   6.296  0.00  0.00    -0.239 OA
ENDBRANCH  14  17
TORSDOF 1
