REMARK  Name = ZINC39770258
REMARK  7 active torsions:
REMARK  status: ('A' for Active; 'I' for Inactive)
REMARK    1  A    between atoms: C_1  and  O_2
REMARK    2  A    between atoms: O_2  and  C_3
REMARK    3  A    between atoms: C_5  and  C_12
REMARK    4  A    between atoms: C_8  and  O_9
REMARK    5  A    between atoms: N_13  and  N_14
REMARK    6  A    between atoms: C_15  and  C_17
REMARK    7  A    between atoms: C_20  and  C_23
REMARK                            x       y       z     vdW  Elec       q    Type
REMARK                         _______ _______ _______ _____ _____    ______ ____
ROOT
ATOM      1  N   UNL     1      -7.189   0.361   0.056  0.00  0.00    -0.205 N 
ATOM      2  C   UNL     1      -8.379  -0.271   0.064  0.00  0.00    +0.263 C 
ATOM      3  O   UNL     1      -8.422  -1.483   0.063  0.00  0.00    -0.271 OA
ATOM      4  H   UNL     1      -7.155   1.331   0.057  0.00  0.00    +0.177 HD
ENDROOT
BRANCH   2   5
ATOM      5  C   UNL     1      -9.657   0.528   0.075  0.00  0.00    +0.240 C 
ATOM      6  C   UNL     1     -10.000   0.971   1.486  0.00  0.00    +0.041 C 
ATOM      7  C   UNL     1     -11.188   0.383   1.729  0.00  0.00    +0.092 C 
ATOM      8  N   UNL     1     -11.586  -0.344   0.652  0.00  0.00    -0.153 NA
ATOM      9  N   UNL     1     -10.802  -0.317  -0.304  0.00  0.00    -0.170 NA
BRANCH   7  10
ATOM     10  C   UNL     1     -11.952   0.510   2.994  0.00  0.00    +0.002 A 
ATOM     11  C   UNL     1     -11.453   1.287   4.038  0.00  0.00    +0.010 A 
ATOM     12  C   UNL     1     -12.169   1.402   5.212  0.00  0.00    +0.001 A 
ATOM     13  C   UNL     1     -13.379   0.748   5.354  0.00  0.00    +0.000 A 
ATOM     14  C   UNL     1     -13.879  -0.025   4.322  0.00  0.00    +0.001 A 
ATOM     15  C   UNL     1     -13.175  -0.143   3.141  0.00  0.00    +0.010 A 
ENDBRANCH   7  10
ENDBRANCH   2   5
BRANCH   1  17
ATOM     16  C   UNL     1      -4.855   0.227   0.038  0.00  0.00    +0.139 C 
ATOM     17  N   UNL     1      -6.001  -0.382   0.046  0.00  0.00    -0.188 NA
BRANCH  16  20
ATOM     18  C   UNL     1      -1.201  -0.638   0.010  0.00  0.00    +0.163 A 
ATOM     19  C   UNL     1      -2.370   0.100   0.019  0.00  0.00    +0.060 A 
ATOM     20  C   UNL     1      -3.605  -0.554   0.028  0.00  0.00    +0.013 A 
ATOM     21  C   UNL     1      -3.653  -1.951   0.026  0.00  0.00    +0.044 A 
ATOM     22  C   UNL     1      -2.481  -2.681   0.017  0.00  0.00    +0.077 A 
ATOM     23  C   UNL     1      -1.255  -2.030   0.003  0.00  0.00    +0.174 A 
ATOM     24 BR   UNL     1      -2.545  -4.571   0.016  0.00  0.00    -0.045 Br
ATOM     25 BR   UNL     1      -5.321  -2.842   0.038  0.00  0.00    -0.048 Br
BRANCH  18  27
ATOM     26  C   UNL     1      -0.017   1.425   0.010  0.00  0.00    +0.277 C 
ATOM     27  O   UNL     1       0.002  -0.004   0.002  0.00  0.00    -0.491 OA
ENDBRANCH  18  27
BRANCH  23  28
ATOM     28  O   UNL     1      -0.103  -2.752  -0.012  0.00  0.00    -0.503 OA
ATOM     29  H   UNL     1       0.238  -2.966   0.867  0.00  0.00    +0.292 HD
ENDBRANCH  23  28
ENDBRANCH  16  20
ENDBRANCH   1  17
TORSDOF 6
