REMARK  Name = ZINC02108774
REMARK  8 active torsions:
REMARK  status: ('A' for Active; 'I' for Inactive)
REMARK    1  A    between atoms: C_1  and  C_2
REMARK    2  A    between atoms: C_6  and  O_29
REMARK    3  A    between atoms: C_7  and  C_28
REMARK    4  A    between atoms: C_12  and  C_13
REMARK    5  A    between atoms: C_13  and  C_14
REMARK    6  A    between atoms: C_19  and  O_27
REMARK    7  A    between atoms: O_29  and  C_30
REMARK    8  A    between atoms: C_30  and  C_31
REMARK                            x       y       z     vdW  Elec       q    Type
REMARK                         _______ _______ _______ _____ _____    ______ ____
ROOT
ATOM      1  C   UNL     1       4.998   0.087  -0.045  0.00  0.00    +0.045 C 
ATOM      2  C   UNL     1       3.689  -0.659  -0.036  0.00  0.00    -0.029 A 
ATOM      3  C   UNL     1       2.414   0.061  -0.021  0.00  0.00    +0.021 A 
ATOM      4  C   UNL     1       2.376   1.460  -0.013  0.00  0.00    +0.015 A 
ATOM      5  C   UNL     1       1.174   2.106   0.002  0.00  0.00    +0.047 A 
ATOM      6  C   UNL     1      -0.017   1.381   0.010  0.00  0.00    +0.127 A 
ATOM      7  C   UNL     1       0.002  -0.004   0.002  0.00  0.00    +0.034 A 
ATOM      8  C   UNL     1       1.215  -0.676  -0.013  0.00  0.00    +0.146 A 
ATOM      9  O   UNL     1       1.256  -2.026  -0.020  0.00  0.00    -0.422 OA
ATOM     10  C   UNL     1       2.421  -2.692  -0.035  0.00  0.00    +0.341 A 
ATOM     11  O   UNL     1       2.409  -3.910  -0.040  0.00  0.00    -0.245 OA
ATOM     12  C   UNL     1       3.659  -2.017  -0.043  0.00  0.00    +0.049 A 
ATOM     13  C   UNL     1      -1.291  -0.778   0.011  0.00  0.00    +0.051 C 
ENDROOT
BRANCH  12  14
ATOM     14  C   UNL     1       4.947  -2.801  -0.058  0.00  0.00    +0.138 C 
BRANCH  14  15
ATOM     15  C   UNL     1       5.363  -3.055  -1.484  0.00  0.00    +0.220 C 
ATOM     16  O   UNL     1       4.681  -2.641  -2.398  0.00  0.00    -0.275 OA
ATOM     17  N   UNL     1       6.492  -3.743  -1.744  0.00  0.00    -0.301 N 
ATOM     18  C   UNL     1       7.329  -4.251  -0.649  0.00  0.00    +0.110 C 
ATOM     19  C   UNL     1       8.764  -3.756  -0.854  0.00  0.00    +0.054 C 
ATOM     20  C   UNL     1       9.246  -4.162  -2.249  0.00  0.00    +0.072 C 
ATOM     21  C   UNL     1      10.687  -3.682  -2.443  0.00  0.00    +0.035 C 
ATOM     22  C   UNL     1      10.740  -2.161  -2.286  0.00  0.00    +0.003 C 
ATOM     23  C   UNL     1       9.840  -1.506  -3.336  0.00  0.00    +0.001 C 
ATOM     24  C   UNL     1       8.401  -1.991  -3.149  0.00  0.00    +0.008 C 
ATOM     25  C   UNL     1       8.352  -3.512  -3.308  0.00  0.00    +0.038 C 
ATOM     26  C   UNL     1       6.908  -4.005  -3.129  0.00  0.00    +0.114 C 
BRANCH  20  27
ATOM     27  O   UNL     1       9.187  -5.584  -2.381  0.00  0.00    -0.388 OA
ATOM     28  H   UNL     1       9.732  -6.061  -1.741  0.00  0.00    +0.210 HD
ENDBRANCH  20  27
ENDBRANCH  14  15
ENDBRANCH  12  14
BRANCH   6  29
ATOM     29  O   UNL     1      -1.204   2.038   0.019  0.00  0.00    -0.487 OA
BRANCH  29  30
ATOM     30  C   UNL     1      -1.156   3.466   0.026  0.00  0.00    +0.264 C 
BRANCH  30  31
ATOM     31  C   UNL     1      -2.559   4.016   0.036  0.00  0.00    -0.010 A 
ATOM     32  C   UNL     1      -3.206   4.281  -1.157  0.00  0.00    +0.008 A 
ATOM     33  C   UNL     1      -4.494   4.780  -1.149  0.00  0.00    +0.020 A 
ATOM     34  C   UNL     1      -5.133   5.026   0.054  0.00  0.00    +0.041 A 
ATOM     35  C   UNL     1      -4.483   4.767   1.247  0.00  0.00    +0.020 A 
ATOM     36  C   UNL     1      -3.196   4.262   1.238  0.00  0.00    +0.008 A 
ATOM     37 CL   UNL     1      -6.749   5.660   0.065  0.00  0.00    -0.084 Cl
ENDBRANCH  30  31
ENDBRANCH  29  30
ENDBRANCH   6  29
TORSDOF 6
