REMARK  Name = ZINC36638167
REMARK  11 active torsions:
REMARK  status: ('A' for Active; 'I' for Inactive)
REMARK    1  A    between atoms: C_1  and  C_2
REMARK    2  A    between atoms: C_2  and  N_3
REMARK    3  A    between atoms: N_3  and  C_4
REMARK    4  A    between atoms: N_3  and  C_6
REMARK    5  A    between atoms: C_4  and  C_5
REMARK    6  A    between atoms: C_6  and  C_7
REMARK    7  A    between atoms: C_7  and  N_8
REMARK    8  A    between atoms: C_13  and  O_18
REMARK    9  A    between atoms: O_18  and  C_19
REMARK   10  A    between atoms: C_20  and  C_22
REMARK   11  A    between atoms: C_24  and  C_32
REMARK                            x       y       z     vdW  Elec       q    Type
REMARK                         _______ _______ _______ _____ _____    ______ ____
ROOT
ATOM      1  N   UNL     1      -0.632  -3.716   1.903  0.00  0.00    -0.248 N 
ATOM      2  C   UNL     1       0.437  -4.447   1.415  0.00  0.00    +0.168 A 
ATOM      3  N   UNL     1       0.681  -5.731   1.538  0.00  0.00    -0.224 NA
ATOM      4  C   UNL     1       1.775  -6.316   1.004  0.00  0.00    +0.084 A 
ATOM      5  C   UNL     1       2.153  -7.677   1.064  0.00  0.00    +0.074 A 
ATOM      6  C   UNL     1       3.310  -8.112   0.461  0.00  0.00    +0.122 A 
ATOM      7  C   UNL     1       4.144  -7.233  -0.224  0.00  0.00    +0.047 A 
ATOM      8  C   UNL     1       3.801  -5.896  -0.300  0.00  0.00    +0.021 A 
ATOM      9  C   UNL     1       2.648  -5.455   0.299  0.00  0.00    +0.041 A 
ATOM     10  S   UNL     1       1.832  -3.884   0.450  0.00  0.00    -0.052 S 
ATOM     11  C   UNL     1      -1.597  -4.328   2.618  0.00  0.00    +0.253 C 
ATOM     12  O   UNL     1      -1.482  -5.502   2.913  0.00  0.00    -0.270 OA
ENDROOT
BRANCH  11  13
ATOM     13  C   UNL     1      -2.793  -3.572   3.045  0.00  0.00    +0.048 A 
ATOM     14  C   UNL     1      -2.684  -2.420   3.808  0.00  0.00    +0.042 A 
ATOM     15  C   UNL     1      -3.849  -1.733   4.191  0.00  0.00    +0.079 A 
ATOM     16  N   UNL     1      -5.054  -2.146   3.848  0.00  0.00    -0.246 NA
ATOM     17  C   UNL     1      -5.250  -3.243   3.115  0.00  0.00    +0.072 A 
ATOM     18  C   UNL     1      -4.141  -4.007   2.672  0.00  0.00    +0.013 A 
ATOM     19  C   UNL     1      -4.350  -5.154   1.900  0.00  0.00    +0.011 A 
ATOM     20  C   UNL     1      -5.622  -5.525   1.575  0.00  0.00    +0.001 A 
ATOM     21  C   UNL     1      -6.715  -4.775   2.003  0.00  0.00    +0.002 A 
ATOM     22  C   UNL     1      -6.547  -3.660   2.765  0.00  0.00    +0.028 A 
BRANCH  15  23
ATOM     23  C   UNL     1      -3.720  -0.508   5.004  0.00  0.00    +0.038 A 
ATOM     24  C   UNL     1      -4.704   0.261   5.570  0.00  0.00    +0.017 A 
ATOM     25  C   UNL     1      -4.340   1.372   6.295  0.00  0.00    +0.008 A 
ATOM     26  C   UNL     1      -3.021   1.673   6.428  0.00  0.00    +0.046 A 
ATOM     27  S   UNL     1      -2.241   0.353   5.514  0.00  0.00    -0.095 S 
ENDBRANCH  15  23
ENDBRANCH  11  13
BRANCH   6  28
ATOM     28  O   UNL     1       3.646  -9.427   0.536  0.00  0.00    -0.495 OA
ATOM     29  C   UNL     1       4.858  -9.824  -0.108  0.00  0.00    +0.277 C 
ENDBRANCH   6  28
BRANCH   1  30
ATOM     30  C   UNL     1      -0.716  -2.276   1.643  0.00  0.00    +0.097 C 
BRANCH  30  31
ATOM     31  C   UNL     1      -1.598  -2.030   0.417  0.00  0.00    -0.059 C 
BRANCH  31  32
ATOM     32  N   UNL     1      -1.604  -0.596   0.099  0.00  0.00    +0.380 N 
ATOM     33  H   UNL     1      -1.890  -0.072   0.913  0.00  0.00    -0.082 HD
BRANCH  32  35
ATOM     34  C   UNL     1      -0.233   1.338  -0.516  0.00  0.00    -0.017 C 
ATOM     35  C   UNL     1      -0.255  -0.177  -0.304  0.00  0.00    -0.082 C 
ENDBRANCH  32  35
BRANCH  32  36
ATOM     36  C   UNL     1      -2.545  -0.343  -1.000  0.00  0.00    -0.082 C 
ATOM     37  C   UNL     1      -3.970  -0.644  -0.532  0.00  0.00    -0.017 C 
ENDBRANCH  32  36
ENDBRANCH  31  32
ENDBRANCH  30  31
ENDBRANCH   1  30
TORSDOF 8
