REMARK  Name = ZINC02798815
REMARK  11 active torsions:
REMARK  status: ('A' for Active; 'I' for Inactive)
REMARK    1  A    between atoms: C_1  and  C_2
REMARK    2  A    between atoms: C_2  and  O_3
REMARK    3  A    between atoms: O_3  and  C_4
REMARK    4  A    between atoms: C_4  and  C_6
REMARK    5  A    between atoms: C_10  and  N_11
REMARK    6  A    between atoms: C_12  and  C_14
REMARK    7  A    between atoms: C_14  and  C_16
REMARK    8  A    between atoms: C_14  and  S_17
REMARK    9  A    between atoms: S_17  and  C_18
REMARK   10  A    between atoms: C_20  and  C_28
REMARK   11  A    between atoms: C_22  and  C_24
REMARK                            x       y       z     vdW  Elec       q    Type
REMARK                         _______ _______ _______ _____ _____    ______ ____
ROOT
ATOM      1  C   UNL     1      -0.729   1.579   1.267  0.00  0.00    +0.137 C 
ATOM      2  C   UNL     1      -0.013   1.086   0.008  0.00  0.00    +0.029 C 
ENDROOT
BRANCH   1   4
ATOM      3  N   UNL     1      -0.190  -0.184   2.916  0.00  0.00    -0.278 N 
ATOM      4  C   UNL     1       0.000   1.080   2.488  0.00  0.00    +0.231 C 
ATOM      5  O   UNL     1       0.757   1.815   3.085  0.00  0.00    -0.274 OA
ATOM      6  H   UNL     1      -0.795  -0.772   2.438  0.00  0.00    +0.155 HD
BRANCH   3  11
ATOM      7  C   UNL     1       0.414  -1.894   4.630  0.00  0.00    +0.091 A 
ATOM      8  C   UNL     1       1.234  -2.125   5.819  0.00  0.00    -0.021 A 
ATOM      9  C   UNL     1       1.971  -1.073   6.218  0.00  0.00    -0.004 A 
ATOM     10  S   UNL     1       1.599   0.210   5.047  0.00  0.00    -0.077 S 
ATOM     11  C   UNL     1       0.481  -0.643   4.039  0.00  0.00    +0.086 A 
ATOM     12  C   UNL     1       2.784  -1.387   7.445  0.00  0.00    +0.043 C 
ATOM     13  C   UNL     1       2.792  -2.929   7.523  0.00  0.00    +0.010 C 
ATOM     14  C   UNL     1       1.490  -3.288   6.779  0.00  0.00    +0.037 C 
BRANCH   7  15
ATOM     15  C   UNL     1      -0.445  -2.947   4.083  0.00  0.00    +0.342 C 
ATOM     16  O   UNL     1      -0.007  -3.715   3.248  0.00  0.00    -0.245 OA
BRANCH  15  17
ATOM     17  O   UNL     1      -1.720  -3.065   4.506  0.00  0.00    -0.461 OA
BRANCH  17  19
ATOM     18  C   UNL     1      -3.920  -4.109   4.519  0.00  0.00    +0.048 C 
ATOM     19  C   UNL     1      -2.512  -4.132   3.921  0.00  0.00    +0.229 C 
ENDBRANCH  17  19
ENDBRANCH  15  17
ENDBRANCH   7  15
ENDBRANCH   3  11
ENDBRANCH   1   4
BRANCH   1  20
ATOM     20  S   UNL     1      -0.753   3.389   1.277  0.00  0.00    -0.074 S 
BRANCH  20  21
ATOM     21  C   UNL     1      -1.766   3.689  -0.134  0.00  0.00    +0.190 A 
ATOM     22  N   UNL     1      -2.036   4.939  -0.480  0.00  0.00    -0.222 NA
ATOM     23  C   UNL     1      -2.798   5.198  -1.540  0.00  0.00    +0.076 A 
ATOM     24  C   UNL     1      -3.310   4.131  -2.284  0.00  0.00    +0.060 A 
ATOM     25  C   UNL     1      -3.003   2.842  -1.885  0.00  0.00    +0.148 A 
ATOM     26  N   UNL     1      -2.235   2.659  -0.823  0.00  0.00    -0.218 NA
BRANCH  23  27
ATOM     27  C   UNL     1      -3.099   6.598  -1.926  0.00  0.00    +0.000 A 
ATOM     28  C   UNL     1      -3.893   6.861  -3.041  0.00  0.00    +0.010 A 
ATOM     29  C   UNL     1      -4.173   8.165  -3.393  0.00  0.00    +0.001 A 
ATOM     30  C   UNL     1      -3.659   9.211  -2.648  0.00  0.00    +0.000 A 
ATOM     31  C   UNL     1      -2.867   8.957  -1.543  0.00  0.00    +0.001 A 
ATOM     32  C   UNL     1      -2.584   7.656  -1.179  0.00  0.00    +0.010 A 
ENDBRANCH  23  27
BRANCH  25  33
ATOM     33  C   UNL     1      -3.533   1.661  -2.656  0.00  0.00    +0.434 C 
ATOM     34  F   UNL     1      -2.623   1.314  -3.661  0.00  0.00    -0.164 F 
ATOM     35  F   UNL     1      -3.704   0.577  -1.788  0.00  0.00    -0.164 F 
ATOM     36  F   UNL     1      -4.762   1.994  -3.235  0.00  0.00    -0.164 F 
ENDBRANCH  25  33
ENDBRANCH  20  21
ENDBRANCH   1  20
TORSDOF 9
