REMARK  Name = ZINC60208474
REMARK  11 active torsions:
REMARK  status: ('A' for Active; 'I' for Inactive)
REMARK    1  A    between atoms: C_1  and  C_2
REMARK    2  A    between atoms: C_7  and  C_9
REMARK    3  A    between atoms: C_7  and  C_10
REMARK    4  A    between atoms: N_13  and  C_17
REMARK    5  A    between atoms: C_17  and  C_18
REMARK    6  A    between atoms: N_20  and  C_21
REMARK    7  A    between atoms: N_20  and  C_26
REMARK    8  A    between atoms: C_21  and  C_22
REMARK    9  A    between atoms: C_22  and  N_23
REMARK   10  A    between atoms: N_23  and  C_24
REMARK   11  A    between atoms: N_23  and  C_25
REMARK                            x       y       z     vdW  Elec       q    Type
REMARK                         _______ _______ _______ _____ _____    ______ ____
ROOT
ATOM      1  C   UNL     1      -2.420   1.745   0.569  0.00  0.00    +0.007 C 
ATOM      2  C   UNL     1      -2.128   0.241   0.581  0.00  0.00    -0.011 C 
ATOM      3  C   UNL     1      -1.006  -0.063  -0.414  0.00  0.00    +0.038 C 
ATOM      4  C   UNL     1      -0.740  -1.562  -0.447  0.00  0.00    +0.113 C 
ATOM      5  C   UNL     1      -0.463  -2.142   0.925  0.00  0.00    +0.041 C 
ATOM      6  C   UNL     1      -1.386  -1.671   2.035  0.00  0.00    -0.032 C 
ATOM      7  C   UNL     1      -1.665  -0.174   1.975  0.00  0.00    +0.009 C 
ATOM      8  C   UNL     1      -0.698  -1.967   3.386  0.00  0.00    +0.011 C 
ATOM      9  C   UNL     1      -2.703  -2.452   2.012  0.00  0.00    +0.011 C 
ATOM     10  C   UNL     1      -1.853  -2.290  -1.159  0.00  0.00    +0.247 C 
ATOM     11  O   UNL     1      -3.044  -2.249  -0.930  0.00  0.00    -0.273 OA
ATOM     12  N   UNL     1      -1.258  -2.998  -2.144  0.00  0.00    -0.215 N 
ATOM     13  C   UNL     1       0.045  -2.713  -2.232  0.00  0.00    +0.310 C 
ATOM     14  O   UNL     1       0.793  -3.213  -3.050  0.00  0.00    -0.252 OA
ATOM     15  N   UNL     1       0.435  -1.815  -1.311  0.00  0.00    -0.285 N 
ATOM     16  H   UNL     1       1.308  -1.406  -1.218  0.00  0.00    +0.151 HD
ENDROOT
BRANCH  12  17
ATOM     17  C   UNL     1      -1.955  -3.956  -3.005  0.00  0.00    +0.214 C 
BRANCH  17  18
ATOM     18  C   UNL     1      -2.485  -3.244  -4.223  0.00  0.00    +0.238 C 
ATOM     19  O   UNL     1      -2.218  -2.075  -4.405  0.00  0.00    -0.274 OA
ATOM     20  N   UNL     1      -3.253  -3.906  -5.110  0.00  0.00    -0.272 N 
BRANCH  20  21
ATOM     21  C   UNL     1      -3.651  -5.221  -4.846  0.00  0.00    +0.036 A 
ATOM     22  C   UNL     1      -4.990  -5.511  -4.617  0.00  0.00    +0.023 A 
ATOM     23  C   UNL     1      -5.379  -6.810  -4.356  0.00  0.00    +0.002 A 
ATOM     24  C   UNL     1      -4.438  -7.822  -4.324  0.00  0.00    +0.000 A 
ATOM     25  C   UNL     1      -3.104  -7.537  -4.551  0.00  0.00    +0.002 A 
ATOM     26  C   UNL     1      -2.709  -6.241  -4.818  0.00  0.00    +0.023 A 
ENDBRANCH  20  21
BRANCH  20  27
ATOM     27  C   UNL     1      -3.673  -3.249  -6.350  0.00  0.00    +0.095 C 
BRANCH  27  28
ATOM     28  C   UNL     1      -2.634  -3.511  -7.443  0.00  0.00    -0.060 C 
BRANCH  28  29
ATOM     29  N   UNL     1      -3.055  -2.852  -8.687  0.00  0.00    +0.377 N 
ATOM     30  C   UNL     1      -2.002  -3.002  -9.700  0.00  0.00    -0.097 C 
ATOM     31  C   UNL     1      -4.295  -3.470  -9.173  0.00  0.00    -0.097 C 
ATOM     32  H   UNL     1      -3.215  -1.871  -8.510  0.00  0.00    -0.083 HD
ENDBRANCH  28  29
ENDBRANCH  27  28
ENDBRANCH  20  27
ENDBRANCH  17  18
ENDBRANCH  12  17
TORSDOF 6
