REMARK  Name = ZINC13598410
REMARK  16 active torsions:
REMARK  status: ('A' for Active; 'I' for Inactive)
REMARK    1  A    between atoms: C_1  and  C_2
REMARK    2  A    between atoms: C_2  and  N_3
REMARK    3  A    between atoms: N_3  and  C_4
REMARK    4  A    between atoms: N_3  and  C_16
REMARK    5  A    between atoms: C_4  and  C_5
REMARK    6  A    between atoms: C_16  and  C_17
REMARK    7  A    between atoms: N_19  and  C_20
REMARK    8  A    between atoms: N_19  and  C_24
REMARK    9  A    between atoms: C_20  and  C_21
REMARK   10  A    between atoms: C_21  and  C_22
REMARK   11  A    between atoms: C_21  and  C_23
REMARK   12  A    between atoms: C_25  and  N_37
REMARK   13  A    between atoms: N_26  and  C_33
REMARK   14  A    between atoms: C_33  and  C_34
REMARK   15  A    between atoms: C_34  and  C_35
REMARK   16  A    between atoms: C_34  and  C_36
REMARK                            x       y       z     vdW  Elec       q    Type
REMARK                         _______ _______ _______ _____ _____    ______ ____
ROOT
ATOM      1  C   UNL     1      -2.059   1.189  -1.464  0.00  0.00    +0.234 C 
ATOM      2  O   UNL     1      -1.946  -0.003  -1.268  0.00  0.00    -0.274 OA
ATOM      3  N   UNL     1      -2.998   1.645  -2.319  0.00  0.00    -0.263 N 
ENDROOT
BRANCH   3   4
ATOM      4  C   UNL     1      -3.061   3.020  -2.630  0.00  0.00    +0.140 A 
ATOM      5  C   UNL     1      -2.790   3.464  -3.908  0.00  0.00    +0.127 A 
ATOM      6  N   UNL     1      -2.860   4.810  -4.181  0.00  0.00    -0.280 N 
ATOM      7  C   UNL     1      -3.188   5.684  -3.213  0.00  0.00    +0.331 A 
ATOM      8  O   UNL     1      -3.245   6.871  -3.474  0.00  0.00    -0.246 OA
ATOM      9  N   UNL     1      -3.456   5.271  -1.962  0.00  0.00    -0.273 N 
ATOM     10  H   UNL     1      -3.691   5.921  -1.281  0.00  0.00    +0.173 HD
ATOM     11  C   UNL     1      -3.406   3.962  -1.643  0.00  0.00    +0.277 A 
ATOM     12  O   UNL     1      -3.655   3.598  -0.506  0.00  0.00    -0.266 OA
BRANCH   5  13
ATOM     13  N   UNL     1      -2.454   2.571  -4.897  0.00  0.00    -0.343 N 
ATOM     14  H   UNL     1      -2.474   1.617  -4.717  0.00  0.00    +0.144 HD
ATOM     15  H   UNL     1      -2.198   2.893  -5.776  0.00  0.00    +0.144 HD
ENDBRANCH   5  13
BRANCH   6  16
ATOM     16  C   UNL     1      -2.574   5.295  -5.534  0.00  0.00    +0.131 C 
BRANCH  16  17
ATOM     17  C   UNL     1      -3.869   5.322  -6.350  0.00  0.00    +0.003 C 
ATOM     18  C   UNL     1      -3.594   5.944  -7.720  0.00  0.00    +0.009 C 
ATOM     19  C   UNL     1      -4.386   3.893  -6.532  0.00  0.00    +0.009 C 
ENDBRANCH  16  17
ENDBRANCH   6  16
ENDBRANCH   3   4
BRANCH   1  20
ATOM     20  C   UNL     1      -1.152   2.160  -0.754  0.00  0.00    +0.181 C 
BRANCH  20  21
ATOM     21  N   UNL     1      -0.245   1.422   0.135  0.00  0.00    -0.287 NA
BRANCH  21  23
ATOM     22  C   UNL     1      -0.685   2.721   2.164  0.00  0.00    +0.020 C 
ATOM     23  C   UNL     1       0.365   2.318   1.127  0.00  0.00    +0.082 C 
ENDBRANCH  21  23
BRANCH  21  24
ATOM     24  C   UNL     1       0.784   0.711  -0.635  0.00  0.00    +0.159 C 
BRANCH  24  25
ATOM     25  C   UNL     1       1.538  -0.223   0.276  0.00  0.00    +0.125 A 
ATOM     26  N   UNL     1       1.199  -0.269   1.528  0.00  0.00    -0.232 NA
ATOM     27  C   UNL     1       1.832  -1.086   2.407  0.00  0.00    +0.078 A 
ATOM     28  C   UNL     1       1.469  -1.135   3.755  0.00  0.00    +0.028 A 
ATOM     29  C   UNL     1       2.139  -1.978   4.611  0.00  0.00    +0.002 A 
ATOM     30  C   UNL     1       3.174  -2.783   4.153  0.00  0.00    +0.001 A 
ATOM     31  C   UNL     1       3.551  -2.752   2.828  0.00  0.00    +0.015 A 
ATOM     32  C   UNL     1       2.885  -1.905   1.944  0.00  0.00    +0.065 A 
ATOM     33  C   UNL     1       3.244  -1.829   0.520  0.00  0.00    +0.259 A 
ATOM     34  N   UNL     1       2.534  -0.979  -0.257  0.00  0.00    -0.309 N 
ATOM     35  O   UNL     1       4.142  -2.509   0.057  0.00  0.00    -0.267 OA
ATOM     36  H   UNL     1       2.740  -0.905  -1.202  0.00  0.00    +0.170 HD
ENDBRANCH  24  25
ENDBRANCH  21  24
ENDBRANCH  20  21
ENDBRANCH   1  20
BRANCH   3  37
ATOM     37  C   UNL     1      -3.953   0.713  -2.924  0.00  0.00    +0.117 C 
BRANCH  37  38
ATOM     38  C   UNL     1      -5.246   0.705  -2.106  0.00  0.00    +0.001 C 
ATOM     39  C   UNL     1      -6.270  -0.209  -2.781  0.00  0.00    +0.009 C 
ATOM     40  C   UNL     1      -4.954   0.189  -0.696  0.00  0.00    +0.009 C 
ENDBRANCH  37  38
ENDBRANCH   3  37
TORSDOF 11
