REMARK  Name = ZINC44230367
REMARK  5 active torsions:
REMARK  status: ('A' for Active; 'I' for Inactive)
REMARK    1  A    between atoms: C_1  and  C_2
REMARK    2  A    between atoms: C_13  and  O_15
REMARK    3  A    between atoms: O_15  and  C_16
REMARK    4  A    between atoms: C_16  and  C_18
REMARK    5  A    between atoms: C_32  and  C_33
REMARK                            x       y       z     vdW  Elec       q    Type
REMARK                         _______ _______ _______ _____ _____    ______ ____
ROOT
ATOM      1  C   UNL     1      -0.014   1.521   0.114  0.00  0.00    +0.015 C 
ATOM      2  C   UNL     1       0.008  -0.009   0.100  0.00  0.00    +0.008 C 
ATOM      3  C   UNL     1       0.572  -0.567  -1.209  0.00  0.00    +0.011 C 
ATOM      4  C   UNL     1       2.078  -0.331  -1.285  0.00  0.00    +0.005 C 
ATOM      5  C   UNL     1       2.757  -1.088  -0.138  0.00  0.00    +0.007 C 
ATOM      6  C   UNL     1       2.259  -0.512   1.188  0.00  0.00    -0.003 C 
ATOM      7  C   UNL     1       0.766  -0.595   1.304  0.00  0.00    +0.002 C 
ATOM      8  C   UNL     1       0.276  -2.044   1.414  0.00  0.00    +0.008 C 
ATOM      9  C   UNL     1      -1.124  -2.067   0.768  0.00  0.00    +0.045 C 
ATOM     10  C   UNL     1      -1.409  -0.627   0.290  0.00  0.00    +0.183 C 
ATOM     11  C   UNL     1       2.920  -1.235   2.363  0.00  0.00    +0.008 C 
ATOM     12  C   UNL     1       4.437  -1.018   2.329  0.00  0.00    +0.032 C 
ATOM     13  C   UNL     1       4.935  -1.471   0.967  0.00  0.00    -0.055 C 
ATOM     14  C   UNL     1       5.920  -2.362   0.905  0.00  0.00    +0.046 C 
ATOM     15  C   UNL     1       6.374  -2.832  -0.411  0.00  0.00    +0.156 C 
ATOM     16  O   UNL     1       7.496  -3.258  -0.590  0.00  0.00    -0.293 OA
ATOM     17  C   UNL     1       5.356  -2.753  -1.533  0.00  0.00    +0.080 C 
ATOM     18  C   UNL     1       4.818  -1.323  -1.569  0.00  0.00    +0.024 C 
ATOM     19  C   UNL     1       4.271  -0.892  -0.245  0.00  0.00    +0.046 C 
ENDROOT
BRANCH  19  20
ATOM     20  C   UNL     1       4.516   0.617  -0.181  0.00  0.00    +0.261 C 
ATOM     21  O   UNL     1       4.065   1.252  -1.397  0.00  0.00    -0.348 OA
ATOM     22  C   UNL     1       4.794   2.496  -1.450  0.00  0.00    +0.191 C 
ATOM     23  C   UNL     1       6.053   2.255  -0.593  0.00  0.00    +0.191 C 
ATOM     24  O   UNL     1       5.931   0.895  -0.127  0.00  0.00    -0.348 OA
ENDBRANCH  19  20
BRANCH  10  25
ATOM     25  O   UNL     1      -2.120  -0.642  -0.950  0.00  0.00    -0.457 OA
BRANCH  25  26
ATOM     26  C   UNL     1      -3.462  -0.539  -0.886  0.00  0.00    +0.339 C 
ATOM     27  O   UNL     1      -4.013  -0.441   0.191  0.00  0.00    -0.245 OA
BRANCH  26  28
ATOM     28  C   UNL     1      -4.263  -0.548  -2.128  0.00  0.00    +0.059 A 
ATOM     29  C   UNL     1      -3.632  -0.667  -3.368  0.00  0.00    +0.015 A 
ATOM     30  C   UNL     1      -4.386  -0.674  -4.523  0.00  0.00    +0.001 A 
ATOM     31  C   UNL     1      -5.764  -0.563  -4.455  0.00  0.00    +0.000 A 
ATOM     32  C   UNL     1      -6.395  -0.444  -3.229  0.00  0.00    +0.001 A 
ATOM     33  C   UNL     1      -5.654  -0.442  -2.066  0.00  0.00    +0.015 A 
ENDBRANCH  26  28
ENDBRANCH  25  26
ENDBRANCH  10  25
TORSDOF 4
