REMARK  Name = ZINC64343326
REMARK  7 active torsions:
REMARK  status: ('A' for Active; 'I' for Inactive)
REMARK    1  A    between atoms: C_10  and  C_11
REMARK    2  A    between atoms: N_12  and  N_13
REMARK    3  A    between atoms: C_14  and  C_16
REMARK    4  A    between atoms: C_16  and  C_18
REMARK    5  A    between atoms: C_16  and  N_28
REMARK    6  A    between atoms: C_18  and  C_19
REMARK    7  A    between atoms: C_29  and  C_31
REMARK                            x       y       z     vdW  Elec       q    Type
REMARK                         _______ _______ _______ _____ _____    ______ ____
ROOT
ATOM      1  C   UNL     1       7.498   4.190  -0.249  0.00  0.00    +0.165 C 
ENDROOT
BRANCH   1   3
ATOM      2  N   UNL     1       6.195   2.090  -0.145  0.00  0.00    -0.205 N 
ATOM      3  C   UNL     1       6.194   3.434  -0.240  0.00  0.00    +0.253 C 
ATOM      4  O   UNL     1       5.144   4.036  -0.319  0.00  0.00    -0.272 OA
ATOM      5  H   UNL     1       7.035   1.609  -0.082  0.00  0.00    +0.177 HD
BRANCH   2   7
ATOM      6  C   UNL     1       4.984   0.092  -0.045  0.00  0.00    +0.139 C 
ATOM      7  N   UNL     1       4.983   1.387  -0.137  0.00  0.00    -0.188 NA
BRANCH   6  17
ATOM      8  C   UNL     1      -0.016   1.357   0.035  0.00  0.00    +0.001 A 
ATOM      9  C   UNL     1       1.168   2.091   0.029  0.00  0.00    +0.001 A 
ATOM     10  C   UNL     1       2.379   1.466   0.005  0.00  0.00    +0.009 A 
ATOM     11  C   UNL     1       2.435   0.067  -0.012  0.00  0.00    -0.009 A 
ATOM     12  C   UNL     1       1.233  -0.682  -0.004  0.00  0.00    -0.017 A 
ATOM     13  C   UNL     1       0.002  -0.004   0.019  0.00  0.00    +0.008 A 
ATOM     14  C   UNL     1       1.294  -2.086  -0.021  0.00  0.00    +0.008 A 
ATOM     15  C   UNL     1       2.494  -2.729  -0.043  0.00  0.00    +0.001 A 
ATOM     16  C   UNL     1       3.696  -2.036  -0.051  0.00  0.00    +0.010 A 
ATOM     17  C   UNL     1       3.711  -0.646  -0.036  0.00  0.00    +0.002 A 
ENDBRANCH   6  17
ENDBRANCH   2   7
ENDBRANCH   1   3
BRANCH   1  18
ATOM     18  N   UNL     1       7.229   5.626  -0.360  0.00  0.00    -0.300 N 
ATOM     19  C   UNL     1       8.162   6.448  -0.881  0.00  0.00    +0.245 C 
ATOM     20  O   UNL     1       9.226   5.997  -1.259  0.00  0.00    -0.270 OA
ATOM     21  H   UNL     1       6.380   5.985  -0.059  0.00  0.00    +0.150 HD
BRANCH  19  22
ATOM     22  C   UNL     1       7.891   7.896  -0.994  0.00  0.00    +0.037 A 
ATOM     23  C   UNL     1       6.672   8.417  -0.555  0.00  0.00    +0.014 A 
ATOM     24  C   UNL     1       6.425   9.770  -0.662  0.00  0.00    +0.021 A 
ATOM     25  C   UNL     1       7.383  10.611  -1.203  0.00  0.00    +0.041 A 
ATOM     26  C   UNL     1       8.594  10.100  -1.640  0.00  0.00    +0.021 A 
ATOM     27  C   UNL     1       8.855   8.750  -1.533  0.00  0.00    +0.014 A 
ATOM     28 CL   UNL     1       7.065  12.312  -1.335  0.00  0.00    -0.084 Cl
ENDBRANCH  19  22
ENDBRANCH   1  18
BRANCH   1  29
ATOM     29  C   UNL     1       8.257   3.912   1.050  0.00  0.00    +0.065 C 
BRANCH  29  30
ATOM     30  C   UNL     1       9.613   4.568   0.989  0.00  0.00    -0.039 C 
ATOM     31  C   UNL     1       9.952   5.782   1.480  0.00  0.00    -0.001 A 
ATOM     32  C   UNL     1       9.189   6.816   2.190  0.00  0.00    +0.010 A 
ATOM     33  C   UNL     1       9.816   7.954   2.564  0.00  0.00    +0.001 A 
ATOM     34  C   UNL     1      11.174   8.170   2.291  0.00  0.00    +0.002 A 
ATOM     35  C   UNL     1      11.941   7.267   1.643  0.00  0.00    +0.026 A 
ATOM     36  C   UNL     1      11.384   6.034   1.205  0.00  0.00    +0.043 A 
ATOM     37  N   UNL     1      11.910   5.016   0.568  0.00  0.00    -0.380 N 
ATOM     38  C   UNL     1      10.871   3.999   0.372  0.00  0.00    +0.144 C 
ATOM     39  H   UNL     1      12.833   4.946   0.278  0.00  0.00    +0.160 HD
ENDBRANCH  29  30
ENDBRANCH   1  29
TORSDOF 7
