REMARK  Name = ZINC06409327
REMARK  8 active torsions:
REMARK  status: ('A' for Active; 'I' for Inactive)
REMARK    1  A    between atoms: C_1  and  C_2
REMARK    2  A    between atoms: C_9  and  C_14
REMARK    3  A    between atoms: C_14  and  C_16
REMARK    4  A    between atoms: C_14  and  N_64
REMARK    5  A    between atoms: N_20  and  C_21
REMARK    6  A    between atoms: C_21  and  C_22
REMARK    7  A    between atoms: C_25  and  O_28
REMARK    8  A    between atoms: O_28  and  C_29
REMARK                            x       y       z     vdW  Elec       q    Type
REMARK                         _______ _______ _______ _____ _____    ______ ____
ROOT
ATOM      1  C   UNL     1       1.671   2.148  -2.527  0.00  0.00    +0.039 C 
ENDROOT
BRANCH   1  10
ATOM      2  C   UNL     1      -2.978   7.205  -5.429  0.00  0.00    +0.044 C 
ATOM      3  C   UNL     1      -1.600   6.792  -4.981  0.00  0.00    -0.050 A 
ATOM      4  C   UNL     1      -0.542   7.683  -5.096  0.00  0.00    +0.005 A 
ATOM      5  C   UNL     1       0.726   7.326  -4.694  0.00  0.00    +0.026 A 
ATOM      6  C   UNL     1       0.951   6.059  -4.165  0.00  0.00    +0.049 A 
ATOM      7  C   UNL     1      -0.124   5.157  -4.049  0.00  0.00    -0.001 A 
ATOM      8  C   UNL     1      -1.403   5.542  -4.465  0.00  0.00    +0.013 A 
ATOM      9  C   UNL     1       0.123   3.826  -3.492  0.00  0.00    +0.017 A 
ATOM     10  C   UNL     1       1.383   3.509  -3.105  0.00  0.00    +0.011 A 
ATOM     11  C   UNL     1       2.425   4.452  -3.237  0.00  0.00    +0.251 A 
ATOM     12  O   UNL     1       3.550   4.148  -2.879  0.00  0.00    -0.268 OA
ATOM     13  N   UNL     1       2.209   5.675  -3.753  0.00  0.00    -0.322 N 
ATOM     14  H   UNL     1       2.949   6.297  -3.833  0.00  0.00    +0.169 HD
ENDBRANCH   1  10
BRANCH   1  21
ATOM     15  C   UNL     1       2.457   1.537  -4.745  0.00  0.00    -0.077 C 
ATOM     16  C   UNL     1       3.385   0.664  -5.544  0.00  0.00    -0.019 C 
ATOM     17  C   UNL     1       2.725  -0.719  -5.722  0.00  0.00    -0.002 C 
ATOM     18  C   UNL     1       2.848  -1.546  -4.526  0.00  0.00    -0.002 C 
ATOM     19  C   UNL     1       2.159  -0.907  -3.302  0.00  0.00    -0.019 C 
ATOM     20  C   UNL     1       3.060   0.166  -2.754  0.00  0.00    -0.077 C 
ATOM     21  N   UNL     1       2.785   1.547  -3.278  0.00  0.00    +0.389 N 
ATOM     22  H   UNL     1       3.626   2.120  -3.139  0.00  0.00    -0.080 HD
ENDBRANCH   1  21
BRANCH   1  23
ATOM     23  C   UNL     1       2.096   2.292  -1.089  0.00  0.00    +0.143 A 
ATOM     24  N   UNL     1       3.257   2.717  -0.654  0.00  0.00    -0.115 NA
ATOM     25  N   UNL     1       3.232   2.696   0.634  0.00  0.00    -0.023 NA
ATOM     26  N   UNL     1       2.083   2.275   1.032  0.00  0.00    -0.044 NA
ATOM     27  N   UNL     1       1.356   2.010  -0.000  0.00  0.00    -0.226 N 
BRANCH  27  28
ATOM     28  C   UNL     1      -0.018   1.503   0.010  0.00  0.00    +0.182 C 
BRANCH  28  29
ATOM     29  C   UNL     1       0.002  -0.004   0.002  0.00  0.00    -0.026 A 
ATOM     30  C   UNL     1      -0.006  -0.688  -1.200  0.00  0.00    +0.009 A 
ATOM     31  C   UNL     1       0.019  -2.069  -1.210  0.00  0.00    +0.046 A 
ATOM     32  C   UNL     1       0.040  -2.770  -0.013  0.00  0.00    +0.120 A 
ATOM     33  C   UNL     1       0.042  -2.082   1.191  0.00  0.00    +0.046 A 
ATOM     34  C   UNL     1       0.023  -0.701   1.196  0.00  0.00    +0.009 A 
BRANCH  32  35
ATOM     35  O   UNL     1       0.059  -4.129  -0.021  0.00  0.00    -0.495 OA
ATOM     36  C   UNL     1       0.055  -4.771  -1.297  0.00  0.00    +0.277 C 
ENDBRANCH  32  35
ENDBRANCH  28  29
ENDBRANCH  27  28
ENDBRANCH   1  23
TORSDOF 6
