REMARK  Name = ZINC00990608
REMARK  8 active torsions:
REMARK  status: ('A' for Active; 'I' for Inactive)
REMARK    1  A    between atoms: C_4  and  N_7
REMARK    2  A    between atoms: N_7  and  C_8
REMARK    3  A    between atoms: C_14  and  C_16
REMARK    4  A    between atoms: C_22  and  C_24
REMARK    5  A    between atoms: C_24  and  O_26
REMARK    6  A    between atoms: O_26  and  C_27
REMARK    7  A    between atoms: C_27  and  C_28
REMARK    8  A    between atoms: C_28  and  C_30
REMARK                            x       y       z     vdW  Elec       q    Type
REMARK                         _______ _______ _______ _____ _____    ______ ____
ROOT
ATOM      1  C   UNL     1       0.468   2.716  -6.144  0.00  0.00    +0.094 C 
ATOM      2  C   UNL     1       0.830   3.710  -7.250  0.00  0.00    +0.040 C 
ATOM      3  C   UNL     1      -0.409   4.369  -7.779  0.00  0.00    -0.030 C 
ATOM      4  C   UNL     1      -1.548   4.372  -7.163  0.00  0.00    -0.030 C 
ATOM      5  C   UNL     1      -1.790   3.709  -5.839  0.00  0.00    +0.042 C 
ATOM      6  C   UNL     1      -0.459   3.419  -5.144  0.00  0.00    +0.114 C 
ENDROOT
BRANCH   1   8
ATOM      7  N   UNL     1       2.201   1.021  -5.655  0.00  0.00    -0.240 N 
ATOM      8  C   UNL     1       1.721   2.261  -5.441  0.00  0.00    +0.228 C 
ATOM      9  O   UNL     1       2.297   3.012  -4.682  0.00  0.00    -0.275 OA
BRANCH   7  13
ATOM     10  C   UNL     1       0.453  -1.422  -8.543  0.00  0.00    +0.000 A 
ATOM     11  C   UNL     1       1.359  -0.448  -8.920  0.00  0.00    +0.002 A 
ATOM     12  C   UNL     1       1.940   0.363  -7.965  0.00  0.00    +0.024 A 
ATOM     13  C   UNL     1       1.614   0.200  -6.625  0.00  0.00    +0.041 A 
ATOM     14  C   UNL     1       0.707  -0.782  -6.249  0.00  0.00    +0.024 A 
ATOM     15  C   UNL     1       0.125  -1.587  -7.210  0.00  0.00    +0.002 A 
ENDBRANCH   7  13
BRANCH   7  16
ATOM     16  C   UNL     1       3.289   0.552  -4.907  0.00  0.00    +0.041 A 
ATOM     17  C   UNL     1       3.777   1.301  -3.844  0.00  0.00    +0.024 A 
ATOM     18  C   UNL     1       4.846   0.834  -3.106  0.00  0.00    +0.002 A 
ATOM     19  C   UNL     1       5.438  -0.373  -3.430  0.00  0.00    +0.000 A 
ATOM     20  C   UNL     1       4.958  -1.119  -4.491  0.00  0.00    +0.002 A 
ATOM     21  C   UNL     1       3.885  -0.660  -5.231  0.00  0.00    +0.024 A 
ENDBRANCH   7  16
ENDBRANCH   1   8
BRANCH   6  22
ATOM     22  C   UNL     1      -0.693   2.524  -3.954  0.00  0.00    +0.312 C 
ATOM     23  O   UNL     1      -0.158   1.442  -3.898  0.00  0.00    -0.250 OA
BRANCH  22  24
ATOM     24  O   UNL     1      -1.495   2.929  -2.957  0.00  0.00    -0.456 OA
BRANCH  24  25
ATOM     25  C   UNL     1      -1.674   2.015  -1.843  0.00  0.00    +0.311 C 
BRANCH  25  26
ATOM     26  C   UNL     1      -2.600   2.635  -0.829  0.00  0.00    +0.200 C 
ATOM     27  O   UNL     1      -3.063   3.739  -1.025  0.00  0.00    -0.288 OA
BRANCH  26  28
ATOM     28  C   UNL     1      -2.942   1.902   0.400  0.00  0.00    +0.021 A 
ATOM     29  C   UNL     1      -2.415   0.626   0.627  0.00  0.00    +0.012 A 
ATOM     30  C   UNL     1      -2.735  -0.052   1.784  0.00  0.00    +0.016 A 
ATOM     31  C   UNL     1      -3.586   0.521   2.714  0.00  0.00    +0.018 A 
ATOM     32  C   UNL     1      -4.117   1.782   2.493  0.00  0.00    +0.016 A 
ATOM     33  C   UNL     1      -3.801   2.474   1.344  0.00  0.00    +0.012 A 
ATOM     34 BR   UNL     1      -4.026  -0.421   4.293  0.00  0.00    -0.050 Br
ENDBRANCH  26  28
ENDBRANCH  25  26
ENDBRANCH  24  25
ENDBRANCH  22  24
ENDBRANCH   6  22
TORSDOF 8
