REMARK  Name = ZINC02061984
REMARK  8 active torsions:
REMARK  status: ('A' for Active; 'I' for Inactive)
REMARK    1  A    between atoms: C_1  and  C_2
REMARK    2  A    between atoms: C_3  and  C_29
REMARK    3  A    between atoms: C_4  and  C_22
REMARK    4  A    between atoms: C_10  and  C_15
REMARK    5  A    between atoms: C_29  and  O_31
REMARK    6  A    between atoms: O_31  and  C_32
REMARK    7  A    between atoms: C_32  and  C_33
REMARK    8  A    between atoms: C_33  and  C_34
REMARK                            x       y       z     vdW  Elec       q    Type
REMARK                         _______ _______ _______ _____ _____    ______ ____
ROOT
ATOM      1  C   UNL     1      -6.585  -1.345   3.789  0.00  0.00    +0.061 C 
ATOM      2  C   UNL     1      -6.227  -0.691   2.480  0.00  0.00    +0.016 C 
ATOM      3  C   UNL     1      -6.687  -1.208   1.327  0.00  0.00    +0.065 C 
ATOM      4  C   UNL     1      -6.356  -0.580   0.005  0.00  0.00    +0.095 C 
ATOM      5  C   UNL     1      -5.170   0.345   0.128  0.00  0.00    +0.024 C 
ATOM      6  C   UNL     1      -4.777   0.805   1.335  0.00  0.00    +0.016 C 
ATOM      7  N   UNL     1      -5.437   0.424   2.472  0.00  0.00    -0.321 N 
ATOM      8  C   UNL     1      -3.607   1.749   1.462  0.00  0.00    +0.059 C 
ATOM      9  C   UNL     1      -2.594   1.463   0.351  0.00  0.00    +0.032 C 
ATOM     10  C   UNL     1      -3.296   1.627  -1.001  0.00  0.00    +0.088 C 
ATOM     11  C   UNL     1      -4.492   0.715  -1.046  0.00  0.00    +0.162 C 
ATOM     12  O   UNL     1      -4.878   0.290  -2.117  0.00  0.00    -0.292 OA
ATOM     13  H   UNL     1      -5.326   1.026   3.386  0.00  0.00    +0.152 HD
ENDROOT
BRANCH   9  14
ATOM     14  C   UNL     1      -1.448   2.437   0.448  0.00  0.00    -0.043 A 
ATOM     15  C   UNL     1      -0.159   1.972   0.625  0.00  0.00    +0.005 A 
ATOM     16  C   UNL     1       0.893   2.865   0.707  0.00  0.00    +0.020 A 
ATOM     17  C   UNL     1       0.654   4.225   0.620  0.00  0.00    +0.041 A 
ATOM     18  C   UNL     1      -0.637   4.690   0.449  0.00  0.00    +0.020 A 
ATOM     19  C   UNL     1      -1.688   3.796   0.366  0.00  0.00    +0.005 A 
ATOM     20 CL   UNL     1       1.975   5.346   0.723  0.00  0.00    -0.084 Cl
ENDBRANCH   9  14
BRANCH   4  21
ATOM     21  C   UNL     1      -7.547   0.205  -0.482  0.00  0.00    -0.000 A 
ATOM     22  C   UNL     1      -8.027   1.266   0.262  0.00  0.00    +0.007 A 
ATOM     23  C   UNL     1      -9.115   1.990  -0.187  0.00  0.00    +0.000 A 
ATOM     24  C   UNL     1      -9.732   1.646  -1.376  0.00  0.00    +0.003 A 
ATOM     25  C   UNL     1      -9.258   0.582  -2.118  0.00  0.00    +0.038 A 
ATOM     26  C   UNL     1      -8.164  -0.140  -1.672  0.00  0.00    +0.127 A 
ATOM     27  F   UNL     1      -7.699  -1.181  -2.397  0.00  0.00    -0.205 F 
ENDBRANCH   4  21
BRANCH   3  28
ATOM     28  C   UNL     1      -7.498  -2.366   1.361  0.00  0.00    +0.338 C 
ATOM     29  O   UNL     1      -7.673  -2.956   2.411  0.00  0.00    -0.245 OA
BRANCH  28  30
ATOM     30  O   UNL     1      -8.078  -2.817   0.229  0.00  0.00    -0.461 OA
BRANCH  30  31
ATOM     31  C   UNL     1      -8.883  -3.993   0.337  0.00  0.00    +0.237 C 
BRANCH  31  32
ATOM     32  C   UNL     1      -9.452  -4.349  -1.038  0.00  0.00    +0.076 C 
BRANCH  32  33
ATOM     33  C   UNL     1     -10.302  -5.588  -0.925  0.00  0.00    -0.044 A 
ATOM     34  C   UNL     1      -9.732  -6.836  -1.100  0.00  0.00    +0.004 A 
ATOM     35  C   UNL     1     -10.510  -7.973  -0.992  0.00  0.00    +0.000 A 
ATOM     36  C   UNL     1     -11.861  -7.862  -0.717  0.00  0.00    +0.000 A 
ATOM     37  C   UNL     1     -12.432  -6.615  -0.548  0.00  0.00    +0.000 A 
ATOM     38  C   UNL     1     -11.652  -5.478  -0.652  0.00  0.00    +0.004 A 
ENDBRANCH  32  33
ENDBRANCH  31  32
ENDBRANCH  30  31
ENDBRANCH  28  30
ENDBRANCH   3  28
TORSDOF 7
