REMARK  Name = ZINC21807557
REMARK  13 active torsions:
REMARK  status: ('A' for Active; 'I' for Inactive)
REMARK    1  A    between atoms: C_1  and  C_2
REMARK    2  A    between atoms: C_2  and  N_3
REMARK    3  A    between atoms: N_3  and  C_4
REMARK    4  A    between atoms: N_3  and  C_6
REMARK    5  A    between atoms: C_4  and  C_5
REMARK    6  A    between atoms: C_6  and  C_8
REMARK    7  A    between atoms: C_6  and  C_27
REMARK    8  A    between atoms: C_8  and  N_9
REMARK    9  A    between atoms: C_10  and  C_12
REMARK   10  A    between atoms: C_14  and  C_17
REMARK   11  A    between atoms: C_30  and  C_33
REMARK   12  A    between atoms: C_33  and  C_34
REMARK   13  A    between atoms: C_33  and  C_35
REMARK                            x       y       z     vdW  Elec       q    Type
REMARK                         _______ _______ _______ _____ _____    ______ ____
ROOT
ATOM      1  N   UNL     1      -8.492  -2.467   0.810  0.00  0.00    -0.311 N 
ATOM      2  C   UNL     1      -8.352  -1.214   1.284  0.00  0.00    +0.266 C 
ATOM      3  O   UNL     1      -9.298  -0.452   1.279  0.00  0.00    -0.268 OA
ATOM      4  H   UNL     1      -7.635  -3.157   0.815  0.00  0.00    +0.149 HD
ENDROOT
BRANCH   2   5
ATOM      5  C   UNL     1      -7.041  -0.764   1.813  0.00  0.00    +0.168 A 
ATOM      6  C   UNL     1      -6.733   0.513   2.350  0.00  0.00    +0.086 A 
ATOM      7  C   UNL     1      -5.410   0.416   2.685  0.00  0.00    +0.168 A 
ATOM      8  O   UNL     1      -5.028  -0.832   2.361  0.00  0.00    -0.354 OA
ATOM      9  N   UNL     1      -5.937  -1.468   1.882  0.00  0.00    -0.073 NA
BRANCH   7  10
ATOM     10  C   UNL     1      -4.570   1.471   3.289  0.00  0.00    +0.024 A 
ATOM     11  C   UNL     1      -5.115   2.725   3.570  0.00  0.00    +0.015 A 
ATOM     12  C   UNL     1      -4.328   3.709   4.129  0.00  0.00    +0.050 A 
ATOM     13  C   UNL     1      -2.994   3.455   4.422  0.00  0.00    +0.162 A 
ATOM     14  C   UNL     1      -2.445   2.206   4.147  0.00  0.00    +0.163 A 
ATOM     15  C   UNL     1      -3.229   1.216   3.581  0.00  0.00    +0.061 A 
ATOM     16  O   UNL     1      -1.140   1.942   4.428  0.00  0.00    -0.485 OA
ATOM     17  C   UNL     1      -0.287   3.071   4.647  0.00  0.00    +0.270 C 
ATOM     18  C   UNL     1      -1.009   4.041   5.593  0.00  0.00    +0.270 C 
ATOM     19  O   UNL     1      -2.235   4.442   4.973  0.00  0.00    -0.485 OA
ENDBRANCH   7  10
ENDBRANCH   2   5
BRANCH   1  20
ATOM     20  C   UNL     1      -9.787  -2.912   0.288  0.00  0.00    +0.094 C 
BRANCH  20  21
ATOM     21  C   UNL     1      -9.646  -4.319  -0.295  0.00  0.00    -0.020 C 
BRANCH  21  22
ATOM     22  C   UNL     1     -11.005  -4.838  -0.690  0.00  0.00    -0.059 A 
ATOM     23  C   UNL     1     -12.010  -4.931   0.254  0.00  0.00    +0.002 A 
ATOM     24  C   UNL     1     -13.258  -5.403  -0.110  0.00  0.00    +0.004 A 
ATOM     25  C   UNL     1     -13.497  -5.790  -1.415  0.00  0.00    -0.045 A 
ATOM     26  C   UNL     1     -12.490  -5.701  -2.358  0.00  0.00    +0.004 A 
ATOM     27  C   UNL     1     -11.244  -5.225  -1.996  0.00  0.00    +0.002 A 
BRANCH  25  28
ATOM     28  C   UNL     1     -14.855  -6.309  -1.810  0.00  0.00    +0.013 C 
ATOM     29  C   UNL     1     -15.183  -7.557  -0.988  0.00  0.00    +0.012 C 
ATOM     30  C   UNL     1     -15.910  -5.233  -1.546  0.00  0.00    +0.012 C 
ENDBRANCH  25  28
ENDBRANCH  21  22
BRANCH  21  31
ATOM     31  N   UNL     1      -9.056  -5.210   0.713  0.00  0.00    +0.385 N 
ATOM     32  H   UNL     1      -8.361  -4.616   1.324  0.00  0.00    -0.081 HD
BRANCH  31  34
ATOM     33  C   UNL     1     -10.453  -4.706   2.661  0.00  0.00    -0.017 C 
ATOM     34  C   UNL     1     -10.089  -5.752   1.605  0.00  0.00    -0.081 C 
ENDBRANCH  31  34
BRANCH  31  35
ATOM     35  C   UNL     1      -8.290  -6.290   0.077  0.00  0.00    -0.081 C 
ATOM     36  C   UNL     1      -6.981  -5.727  -0.481  0.00  0.00    -0.017 C 
ENDBRANCH  31  35
ENDBRANCH  21  31
ENDBRANCH  20  21
ENDBRANCH   1  20
TORSDOF 9
