REMARK  Name = ZINC20206844
REMARK  7 active torsions:
REMARK  status: ('A' for Active; 'I' for Inactive)
REMARK    1  A    between atoms: C_1  and  C_2
REMARK    2  A    between atoms: C_2  and  S_3
REMARK    3  A    between atoms: S_3  and  C_6
REMARK    4  A    between atoms: C_14  and  C_15
REMARK    5  A    between atoms: C_18  and  O_22
REMARK    6  A    between atoms: O_22  and  C_23
REMARK    7  A    between atoms: C_23  and  C_24
REMARK                            x       y       z     vdW  Elec       q    Type
REMARK                         _______ _______ _______ _____ _____    ______ ____
ROOT
ATOM      1  C   UNL     1      -0.395   1.841  -3.451  0.00  0.00    +0.257 C 
ATOM      2  N   UNL     1       0.182   2.971  -3.723  0.00  0.00    -0.174 NA
ATOM      3  S   UNL     1       1.750   2.544  -4.134  0.00  0.00    +0.049 S 
ATOM      4  C   UNL     1       1.625   0.887  -3.998  0.00  0.00    +0.183 C 
ATOM      5  N   UNL     1       2.511  -0.053  -4.241  0.00  0.00    -0.152 NA
ATOM      6  C   UNL     1       2.155  -1.345  -4.119  0.00  0.00    +0.273 C 
ATOM      7  O   UNL     1       2.988  -2.233  -4.209  0.00  0.00    -0.268 OA
ATOM      8  C   UNL     1       0.727  -1.664  -3.872  0.00  0.00    +0.079 C 
ATOM      9  C   UNL     1       0.180  -2.875  -4.233  0.00  0.00    +0.024 C 
ATOM     10  C   UNL     1      -0.082  -0.599  -3.212  0.00  0.00    +0.138 C 
ATOM     11  N   UNL     1      -1.075  -0.850  -2.402  0.00  0.00    -0.284 NA
ATOM     12  N   UNL     1       0.336   0.705  -3.543  0.00  0.00    -0.201 N 
ATOM     13  H   UNL     1      -1.319  -1.768  -2.204  0.00  0.00    +0.188 HD
ENDROOT
BRANCH   9  14
ATOM     14  C   UNL     1       0.955  -3.817  -5.043  0.00  0.00    -0.023 A 
ATOM     15  C   UNL     1       0.864  -5.195  -4.799  0.00  0.00    +0.011 A 
ATOM     16  C   UNL     1       1.588  -6.072  -5.556  0.00  0.00    +0.048 A 
ATOM     17  C   UNL     1       2.418  -5.604  -6.570  0.00  0.00    +0.139 A 
ATOM     18  C   UNL     1       2.517  -4.238  -6.821  0.00  0.00    +0.083 A 
ATOM     19  C   UNL     1       1.787  -3.345  -6.068  0.00  0.00    +0.031 A 
ATOM     20 CL   UNL     1       3.555  -3.662  -8.087  0.00  0.00    -0.080 Cl
BRANCH  17  21
ATOM     21  O   UNL     1       3.134  -6.482  -7.316  0.00  0.00    -0.486 OA
BRANCH  21  22
ATOM     22  C   UNL     1       2.986  -7.869  -7.006  0.00  0.00    +0.264 C 
BRANCH  22  23
ATOM     23  C   UNL     1       3.850  -8.686  -7.931  0.00  0.00    -0.010 A 
ATOM     24  C   UNL     1       3.341  -9.133  -9.136  0.00  0.00    +0.010 A 
ATOM     25  C   UNL     1       4.133  -9.882  -9.986  0.00  0.00    +0.039 A 
ATOM     26  C   UNL     1       5.436 -10.184  -9.630  0.00  0.00    +0.123 A 
ATOM     27  C   UNL     1       5.945  -9.736  -8.423  0.00  0.00    +0.039 A 
ATOM     28  C   UNL     1       5.153  -8.983  -7.577  0.00  0.00    +0.010 A 
ATOM     29  F   UNL     1       6.211 -10.917 -10.460  0.00  0.00    -0.205 F 
ENDBRANCH  22  23
ENDBRANCH  21  22
ENDBRANCH  17  21
ENDBRANCH   9  14
BRANCH   1  30
ATOM     30  S   UNL     1      -2.087   1.788  -2.964  0.00  0.00    +0.029 S 
ATOM     31  O   UNL     1      -2.578   0.563  -3.492  0.00  0.00    -0.167 OA
ATOM     32  O   UNL     1      -2.627   3.030  -3.394  0.00  0.00    -0.167 OA
BRANCH  30  34
ATOM     33  C   UNL     1      -3.481   1.667  -0.614  0.00  0.00    +0.028 C 
ATOM     34  C   UNL     1      -2.049   1.717  -1.152  0.00  0.00    +0.172 C 
ENDBRANCH  30  34
ENDBRANCH   1  30
TORSDOF 6
