REMARK  Name = ZINC35065541
REMARK  11 active torsions:
REMARK  status: ('A' for Active; 'I' for Inactive)
REMARK    1  A    between atoms: C_1  and  C_2
REMARK    2  A    between atoms: C_6  and  N_8
REMARK    3  A    between atoms: C_18  and  C_19
REMARK    4  A    between atoms: C_19  and  C_21
REMARK    5  A    between atoms: C_19  and  N_22
REMARK    6  A    between atoms: N_22  and  C_23
REMARK    7  A    between atoms: C_23  and  C_24
REMARK    8  A    between atoms: C_24  and  C_25
REMARK    9  A    between atoms: C_24  and  C_26
REMARK   10  A    between atoms: C_27  and  C_29
REMARK   11  A    between atoms: C_32  and  N_36
REMARK                            x       y       z     vdW  Elec       q    Type
REMARK                         _______ _______ _______ _____ _____    ______ ____
ROOT
ATOM      1  C   UNL     1      -0.069  -4.406   0.889  0.00  0.00    +0.140 C 
ATOM      2  C   UNL     1      -1.112  -3.795  -0.049  0.00  0.00    +0.036 C 
ENDROOT
BRANCH   1  13
ATOM      3  N   UNL     1       1.181  -3.141   2.593  0.00  0.00    -0.263 N 
ATOM      4  C   UNL     1       1.275  -2.421   3.736  0.00  0.00    +0.266 A 
ATOM      5  O   UNL     1       2.344  -1.986   4.123  0.00  0.00    -0.267 OA
ATOM      6  C   UNL     1       0.036  -2.185   4.491  0.00  0.00    +0.065 A 
ATOM      7  C   UNL     1       0.025  -1.457   5.679  0.00  0.00    +0.015 A 
ATOM      8  C   UNL     1      -1.165  -1.265   6.346  0.00  0.00    +0.001 A 
ATOM      9  C   UNL     1      -2.349  -1.791   5.845  0.00  0.00    +0.002 A 
ATOM     10  C   UNL     1      -2.359  -2.514   4.673  0.00  0.00    +0.028 A 
ATOM     11  C   UNL     1      -1.166  -2.722   3.978  0.00  0.00    +0.078 A 
ATOM     12  N   UNL     1      -1.131  -3.427   2.820  0.00  0.00    -0.231 NA
ATOM     13  C   UNL     1      -0.022  -3.615   2.171  0.00  0.00    +0.138 A 
BRANCH   3  19
ATOM     14  C   UNL     1       5.616  -5.229   2.200  0.00  0.00    +0.044 C 
ATOM     15  C   UNL     1       4.497  -4.403   1.621  0.00  0.00    -0.048 A 
ATOM     16  C   UNL     1       4.606  -3.893   0.340  0.00  0.00    +0.003 A 
ATOM     17  C   UNL     1       3.581  -3.134  -0.195  0.00  0.00    +0.002 A 
ATOM     18  C   UNL     1       2.444  -2.883   0.550  0.00  0.00    +0.026 A 
ATOM     19  C   UNL     1       2.332  -3.394   1.836  0.00  0.00    +0.051 A 
ATOM     20  C   UNL     1       3.361  -4.160   2.368  0.00  0.00    +0.029 A 
ENDBRANCH   3  19
ENDBRANCH   1  13
BRANCH   1  21
ATOM     21  N   UNL     1      -0.431  -5.794   1.184  0.00  0.00    -0.287 N 
ATOM     22  C   UNL     1       0.373  -6.800   0.785  0.00  0.00    +0.249 C 
ATOM     23  O   UNL     1       1.419  -6.553   0.216  0.00  0.00    -0.270 OA
BRANCH  22  24
ATOM     24  C   UNL     1      -0.015  -8.202   1.041  0.00  0.00    +0.055 A 
ATOM     25  C   UNL     1      -1.244  -8.492   1.638  0.00  0.00    +0.017 A 
ATOM     26  C   UNL     1      -1.601  -9.803   1.873  0.00  0.00    +0.033 A 
ATOM     27  C   UNL     1      -0.745 -10.832   1.519  0.00  0.00    +0.128 A 
ATOM     28  C   UNL     1       0.474 -10.553   0.928  0.00  0.00    +0.053 A 
ATOM     29  C   UNL     1       0.842  -9.245   0.681  0.00  0.00    +0.055 A 
ATOM     30 CL   UNL     1       2.369  -8.897  -0.068  0.00  0.00    -0.083 Cl
BRANCH  27  31
ATOM     31  N   UNL     1      -1.135 -12.236   1.776  0.00  0.00    +0.056 N 
ATOM     32  O   UNL     1      -2.200 -12.483   2.293  0.00  0.00    -0.126 OA
ATOM     33  O   UNL     1      -0.390 -13.137   1.468  0.00  0.00    -0.126 OA
ENDBRANCH  27  31
ENDBRANCH  22  24
BRANCH  21  34
ATOM     34  C   UNL     1      -1.668  -6.090   1.911  0.00  0.00    +0.111 C 
BRANCH  34  35
ATOM     35  C   UNL     1      -2.692  -6.697   0.950  0.00  0.00    +0.000 C 
ATOM     36  C   UNL     1      -3.987  -6.996   1.708  0.00  0.00    +0.009 C 
ATOM     37  C   UNL     1      -2.979  -5.708  -0.181  0.00  0.00    +0.009 C 
ENDBRANCH  34  35
ENDBRANCH  21  34
ENDBRANCH   1  21
TORSDOF 7
