REMARK  Name = ZINC02357405
REMARK  8 active torsions:
REMARK  status: ('A' for Active; 'I' for Inactive)
REMARK    1  A    between atoms: C_1  and  C_2
REMARK    2  A    between atoms: C_4  and  C_35
REMARK    3  A    between atoms: N_15  and  C_28
REMARK    4  A    between atoms: C_16  and  C_18
REMARK    5  A    between atoms: C_20  and  O_26
REMARK    6  A    between atoms: C_21  and  O_25
REMARK    7  A    between atoms: O_26  and  C_27
REMARK    8  A    between atoms: C_28  and  C_29
REMARK                            x       y       z     vdW  Elec       q    Type
REMARK                         _______ _______ _______ _____ _____    ______ ____
ROOT
ATOM      1  C   UNL     1       8.301   4.515   3.531  0.00  0.00    +0.044 C 
ATOM      2  C   UNL     1       7.567   3.334   4.114  0.00  0.00    -0.049 A 
ATOM      3  C   UNL     1       8.011   2.762   5.299  0.00  0.00    +0.010 A 
ATOM      4  C   UNL     1       7.356   1.683   5.849  0.00  0.00    -0.007 A 
ATOM      5  C   UNL     1       6.235   1.154   5.215  0.00  0.00    +0.142 A 
ATOM      6  C   UNL     1       5.793   1.740   4.017  0.00  0.00    +0.065 A 
ATOM      7  C   UNL     1       6.469   2.832   3.474  0.00  0.00    +0.018 A 
ATOM      8  C   UNL     1       4.603   1.165   3.360  0.00  0.00    +0.199 A 
ATOM      9  O   UNL     1       4.164   1.622   2.319  0.00  0.00    -0.287 OA
ATOM     10  C   UNL     1       3.975   0.019   4.023  0.00  0.00    +0.072 A 
ATOM     11  C   UNL     1       4.494  -0.459   5.180  0.00  0.00    +0.199 A 
ATOM     12  O   UNL     1       5.585   0.101   5.740  0.00  0.00    -0.449 OA
ATOM     13  C   UNL     1       3.667  -1.609   5.623  0.00  0.00    +0.283 C 
ATOM     14  O   UNL     1       3.866  -2.262   6.628  0.00  0.00    -0.267 OA
ATOM     15  N   UNL     1       2.666  -1.824   4.752  0.00  0.00    -0.279 N 
ATOM     16  C   UNL     1       2.775  -0.826   3.682  0.00  0.00    +0.145 C 
ATOM     17  C   UNL     1       7.852   1.075   7.136  0.00  0.00    +0.047 C 
ENDROOT
BRANCH  16  18
ATOM     18  C   UNL     1       1.534   0.028   3.639  0.00  0.00    -0.018 A 
ATOM     19  C   UNL     1       0.993   0.398   2.422  0.00  0.00    +0.055 A 
ATOM     20  C   UNL     1      -0.148   1.182   2.380  0.00  0.00    +0.163 A 
ATOM     21  C   UNL     1      -0.745   1.600   3.566  0.00  0.00    +0.173 A 
ATOM     22  C   UNL     1      -0.201   1.221   4.783  0.00  0.00    +0.063 A 
ATOM     23  C   UNL     1       0.939   0.438   4.817  0.00  0.00    +0.025 A 
ATOM     24 BR   UNL     1      -1.012   1.781   6.397  0.00  0.00    -0.046 Br
BRANCH  21  25
ATOM     25  O   UNL     1      -1.863   2.374   3.530  0.00  0.00    -0.503 OA
ATOM     26  H   UNL     1      -2.689   1.872   3.523  0.00  0.00    +0.292 HD
ENDBRANCH  21  25
BRANCH  20  27
ATOM     27  O   UNL     1      -0.682   1.547   1.184  0.00  0.00    -0.491 OA
ATOM     28  C   UNL     1      -0.013   1.086   0.008  0.00  0.00    +0.277 C 
ENDBRANCH  20  27
ENDBRANCH  16  18
BRANCH  15  29
ATOM     29  C   UNL     1       1.646  -2.871   4.854  0.00  0.00    +0.144 C 
BRANCH  29  30
ATOM     30  C   UNL     1       2.129  -4.113   4.150  0.00  0.00    -0.030 A 
ATOM     31  C   UNL     1       1.850  -4.301   2.809  0.00  0.00    +0.005 A 
ATOM     32  C   UNL     1       2.297  -5.438   2.163  0.00  0.00    +0.000 A 
ATOM     33  C   UNL     1       3.015  -6.392   2.860  0.00  0.00    +0.000 A 
ATOM     34  C   UNL     1       3.289  -6.207   4.202  0.00  0.00    +0.000 A 
ATOM     35  C   UNL     1       2.846  -5.067   4.847  0.00  0.00    +0.005 A 
ENDBRANCH  29  30
ENDBRANCH  15  29
TORSDOF 5
