REMARK  Name = ZINC06443777
REMARK  10 active torsions:
REMARK  status: ('A' for Active; 'I' for Inactive)
REMARK    1  A    between atoms: C_1  and  C_2
REMARK    2  A    between atoms: C_12  and  C_14
REMARK    3  A    between atoms: C_14  and  C_16
REMARK    4  A    between atoms: C_14  and  N_69
REMARK    5  A    between atoms: N_20  and  C_21
REMARK    6  A    between atoms: C_21  and  C_22
REMARK    7  A    between atoms: C_28  and  C_29
REMARK    8  A    between atoms: C_28  and  N_69
REMARK    9  A    between atoms: C_34  and  C_35
REMARK   10  A    between atoms: C_34  and  N_69
REMARK                            x       y       z     vdW  Elec       q    Type
REMARK                         _______ _______ _______ _____ _____    ______ ____
ROOT
ATOM      1  C   UNL     1       2.756  -1.840  -2.362  0.00  0.00    +0.039 C 
ENDROOT
BRANCH   1  13
ATOM      2  C   UNL     1       0.381   4.190  -1.262  0.00  0.00    +0.046 C 
ATOM      3  C   UNL     1       0.731   3.476  -2.543  0.00  0.00    -0.026 A 
ATOM      4  C   UNL     1       0.561   4.108  -3.756  0.00  0.00    +0.005 A 
ATOM      5  C   UNL     1       0.879   3.462  -4.942  0.00  0.00    +0.001 A 
ATOM      6  C   UNL     1       1.367   2.186  -4.929  0.00  0.00    +0.010 A 
ATOM      7  C   UNL     1       1.548   1.525  -3.710  0.00  0.00    -0.001 A 
ATOM      8  C   UNL     1       1.226   2.177  -2.505  0.00  0.00    +0.052 A 
ATOM      9  N   UNL     1       1.406   1.521  -1.306  0.00  0.00    -0.322 N 
ATOM     10  H   UNL     1       1.183   1.972  -0.476  0.00  0.00    +0.169 HD
ATOM     11  C   UNL     1       1.879   0.263  -1.270  0.00  0.00    +0.251 A 
ATOM     12  O   UNL     1       2.021  -0.288  -0.193  0.00  0.00    -0.268 OA
ATOM     13  C   UNL     1       2.223  -0.433  -2.449  0.00  0.00    +0.011 A 
ATOM     14  C   UNL     1       2.069   0.158  -3.660  0.00  0.00    +0.017 A 
ENDBRANCH   1  13
BRANCH   1  15
ATOM     15  C   UNL     1       4.065  -1.835  -1.616  0.00  0.00    +0.143 A 
ATOM     16  N   UNL     1       4.290  -1.318  -0.432  0.00  0.00    -0.115 NA
ATOM     17  N   UNL     1       5.528  -1.518  -0.139  0.00  0.00    -0.023 NA
ATOM     18  N   UNL     1       6.101  -2.143  -1.107  0.00  0.00    -0.044 NA
ATOM     19  N   UNL     1       5.233  -2.356  -2.037  0.00  0.00    -0.228 N 
BRANCH  19  20
ATOM     20  C   UNL     1       5.472  -3.038  -3.311  0.00  0.00    +0.178 C 
BRANCH  20  21
ATOM     21  C   UNL     1       5.897  -2.014  -4.366  0.00  0.00    +0.140 C 
ATOM     22  C   UNL     1       6.208  -2.723  -5.708  0.00  0.00    +0.035 C 
ATOM     23  C   UNL     1       5.969  -1.564  -6.715  0.00  0.00    +0.031 C 
ATOM     24  C   UNL     1       4.814  -0.785  -6.050  0.00  0.00    +0.160 C 
ATOM     25  O   UNL     1       4.813  -1.118  -4.657  0.00  0.00    -0.375 OA
ENDBRANCH  20  21
ENDBRANCH  19  20
ENDBRANCH   1  15
BRANCH   1  26
ATOM     26  N   UNL     1       1.782  -2.673  -1.627  0.00  0.00    +0.396 N 
ATOM     27  H   UNL     1       1.516  -2.190  -0.761  0.00  0.00    -0.080 HD
BRANCH  26  28
ATOM     28  C   UNL     1       2.391  -3.975  -1.282  0.00  0.00    -0.002 C 
BRANCH  28  29
ATOM     29  C   UNL     1       3.062  -3.850   0.061  0.00  0.00    +0.089 A 
ATOM     30  C   UNL     1       2.458  -3.976   1.257  0.00  0.00    +0.042 A 
ATOM     31  C   UNL     1       3.455  -3.785   2.241  0.00  0.00    +0.041 A 
ATOM     32  C   UNL     1       4.608  -3.555   1.588  0.00  0.00    +0.195 A 
ATOM     33  O   UNL     1       4.364  -3.595   0.268  0.00  0.00    -0.470 OA
ENDBRANCH  28  29
ENDBRANCH  26  28
BRANCH  26  34
ATOM     34  C   UNL     1       0.573  -2.883  -2.451  0.00  0.00    -0.045 C 
BRANCH  34  35
ATOM     35  C   UNL     1      -0.477  -1.847  -2.045  0.00  0.00    +0.102 C 
ATOM     36  C   UNL     1      -1.824  -2.145  -2.740  0.00  0.00    +0.032 C 
ATOM     37  C   UNL     1      -2.393  -0.747  -3.070  0.00  0.00    +0.030 C 
ATOM     38  C   UNL     1      -1.323   0.230  -2.535  0.00  0.00    +0.160 C 
ATOM     39  O   UNL     1      -0.098  -0.535  -2.516  0.00  0.00    -0.378 OA
ENDBRANCH  34  35
ENDBRANCH  26  34
ENDBRANCH   1  26
TORSDOF 9
