REMARK  Name = ZINC17445973
REMARK  6 active torsions:
REMARK  status: ('A' for Active; 'I' for Inactive)
REMARK    1  A    between atoms: C_4  and  N_7
REMARK    2  A    between atoms: N_7  and  S_8
REMARK    3  A    between atoms: S_8  and  C_11
REMARK    4  A    between atoms: C_14  and  C_17
REMARK    5  A    between atoms: N_19  and  N_20
REMARK    6  A    between atoms: C_21  and  C_23
REMARK                            x       y       z     vdW  Elec       q    Type
REMARK                         _______ _______ _______ _____ _____    ______ ____
ROOT
ATOM      1  C   UNL     1      -4.796  -0.940   0.169  0.00  0.00    +0.109 A 
ATOM      2  C   UNL     1      -4.577   0.425   0.203  0.00  0.00    +0.029 A 
ATOM      3  C   UNL     1      -3.292   0.919   0.292  0.00  0.00    +0.015 A 
ATOM      4  C   UNL     1      -2.212   0.038   0.348  0.00  0.00    +0.038 A 
ATOM      5  C   UNL     1      -2.439  -1.339   0.307  0.00  0.00    +0.015 A 
ATOM      6  C   UNL     1      -3.729  -1.820   0.224  0.00  0.00    +0.029 A 
ENDROOT
BRANCH   4   7
ATOM      7  C   UNL     1      -0.832   0.560   0.444  0.00  0.00    +0.260 C 
ATOM      8  O   UNL     1      -0.636   1.759   0.474  0.00  0.00    -0.269 OA
ATOM      9  N   UNL     1       0.210  -0.294   0.497  0.00  0.00    -0.230 N 
ATOM     10  H   UNL     1       0.054  -1.251   0.473  0.00  0.00    +0.173 HD
BRANCH   9  11
ATOM     11  N   UNL     1       1.518   0.201   0.582  0.00  0.00    -0.230 N 
ATOM     12  C   UNL     1       2.559  -0.653   0.630  0.00  0.00    +0.267 C 
ATOM     13  O   UNL     1       2.364  -1.853   0.600  0.00  0.00    -0.268 OA
ATOM     14  H   UNL     1       1.673   1.158   0.606  0.00  0.00    +0.173 HD
BRANCH  12  15
ATOM     15  C   UNL     1       3.928  -0.135   0.719  0.00  0.00    +0.076 A 
ATOM     16  C   UNL     1       5.119  -0.829   0.778  0.00  0.00    +0.024 A 
ATOM     17  C   UNL     1       6.304  -0.098   0.859  0.00  0.00    -0.036 A 
ATOM     18  C   UNL     1       6.188   1.257   0.876  0.00  0.00    -0.006 A 
ATOM     19  S   UNL     1       4.489   1.557   0.771  0.00  0.00    -0.088 S 
ATOM     20  C   UNL     1       7.527   1.934   0.970  0.00  0.00    +0.043 C 
ATOM     21  C   UNL     1       8.492   0.827   1.448  0.00  0.00    +0.010 C 
ATOM     22  C   UNL     1       7.793  -0.447   0.937  0.00  0.00    +0.036 C 
ENDBRANCH  12  15
ENDBRANCH   9  11
ENDBRANCH   4   7
BRANCH   1  23
ATOM     23  S   UNL     1      -6.441  -1.563   0.054  0.00  0.00    +0.072 S 
ATOM     24  O   UNL     1      -6.391  -2.920   0.471  0.00  0.00    -0.150 OA
ATOM     25  O   UNL     1      -7.282  -0.604   0.680  0.00  0.00    -0.150 OA
BRANCH  23  26
ATOM     26  N   UNL     1      -6.849  -1.575  -1.551  0.00  0.00    -0.216 N 
ATOM     27  H   UNL     1      -7.576  -1.018  -1.871  0.00  0.00    +0.174 HD
BRANCH  26  31
ATOM     28  C   UNL     1      -4.755  -3.997  -4.213  0.00  0.00    +0.000 A 
ATOM     29  C   UNL     1      -5.658  -4.561  -3.331  0.00  0.00    +0.002 A 
ATOM     30  C   UNL     1      -6.354  -3.761  -2.446  0.00  0.00    +0.024 A 
ATOM     31  C   UNL     1      -6.146  -2.387  -2.444  0.00  0.00    +0.048 A 
ATOM     32  C   UNL     1      -5.243  -1.823  -3.335  0.00  0.00    +0.024 A 
ATOM     33  C   UNL     1      -4.546  -2.630  -4.214  0.00  0.00    +0.002 A 
ENDBRANCH  26  31
ENDBRANCH  23  26
ENDBRANCH   1  23
TORSDOF 6
