REMARK  Name = ZINC22215363
REMARK  15 active torsions:
REMARK  status: ('A' for Active; 'I' for Inactive)
REMARK    1  A    between atoms: C_1  and  C_2
REMARK    2  A    between atoms: C_2  and  C_3
REMARK    3  A    between atoms: C_2  and  C_4
REMARK    4  A    between atoms: C_4  and  C_5
REMARK    5  A    between atoms: C_4  and  C_6
REMARK    6  A    between atoms: C_4  and  N_8
REMARK    7  A    between atoms: C_9  and  C_11
REMARK    8  A    between atoms: C_11  and  S_12
REMARK    9  A    between atoms: S_12  and  C_13
REMARK   10  A    between atoms: N_26  and  C_27
REMARK   11  A    between atoms: C_27  and  C_28
REMARK   12  A    between atoms: C_28  and  C_29
REMARK   13  A    between atoms: C_29  and  N_30
REMARK   14  A    between atoms: N_30  and  C_31
REMARK   15  A    between atoms: N_30  and  C_32
REMARK                            x       y       z     vdW  Elec       q    Type
REMARK                         _______ _______ _______ _____ _____    ______ ____
ROOT
ATOM      1  C   UNL     1      -0.335   2.752   1.766  0.00  0.00    +0.173 A 
ATOM      2  N   UNL     1      -0.934   3.207   2.848  0.00  0.00    -0.216 NA
ATOM      3  C   UNL     1      -1.902   2.512   3.433  0.00  0.00    +0.117 A 
ATOM      4  C   UNL     1      -2.336   1.272   2.935  0.00  0.00    +0.076 A 
ATOM      5  C   UNL     1      -3.411   0.622   3.688  0.00  0.00    -0.023 A 
ATOM      6  C   UNL     1      -3.875   1.270   4.775  0.00  0.00    -0.004 A 
ATOM      7  S   UNL     1      -2.924   2.763   4.862  0.00  0.00    -0.073 S 
ATOM      8  C   UNL     1      -4.961   0.821   5.705  0.00  0.00    +0.043 C 
ATOM      9  C   UNL     1      -5.734  -0.322   5.032  0.00  0.00    +0.005 C 
ATOM     10  C   UNL     1      -4.728  -1.333   4.473  0.00  0.00    +0.005 C 
ATOM     11  C   UNL     1      -3.993  -0.728   3.277  0.00  0.00    +0.037 C 
ATOM     12  C   UNL     1      -1.671   0.804   1.758  0.00  0.00    +0.263 A 
ATOM     13  O   UNL     1      -1.982  -0.262   1.254  0.00  0.00    -0.267 OA
ATOM     14  N   UNL     1      -0.698   1.558   1.213  0.00  0.00    -0.287 N 
ENDROOT
BRANCH   1  15
ATOM     15  S   UNL     1       0.950   3.699   1.020  0.00  0.00    -0.078 S 
BRANCH  15  16
ATOM     16  C   UNL     1       0.989   5.117   2.145  0.00  0.00    +0.173 C 
BRANCH  16  18
ATOM     17  N   UNL     1       2.256   7.228   2.381  0.00  0.00    -0.297 N 
ATOM     18  C   UNL     1       2.046   6.090   1.691  0.00  0.00    +0.224 C 
ATOM     19  O   UNL     1       2.709   5.849   0.704  0.00  0.00    -0.275 OA
ATOM     20  H   UNL     1       1.655   7.447   3.277  0.00  0.00    +0.150 HD
BRANCH  17  21
ATOM     21  C   UNL     1       3.284   8.174   1.940  0.00  0.00    +0.121 C 
ATOM     22  C   UNL     1       4.649   7.483   1.944  0.00  0.00    +0.048 C 
BRANCH  21  24
ATOM     23  C   UNL     1       3.762   8.910   4.279  0.00  0.00    +0.010 C 
ATOM     24  C   UNL     1       3.317   9.372   2.891  0.00  0.00    +0.020 C 
ATOM     25  C   UNL     1       4.301  10.417   2.361  0.00  0.00    +0.010 C 
ENDBRANCH  21  24
BRANCH  21  26
ATOM     26  C   UNL     1       2.972   8.637   0.578  0.00  0.00    +0.088 C 
ATOM     27  N   UNL     1       2.732   8.994  -0.473  0.00  0.00    -0.194 NA
ENDBRANCH  21  26
ENDBRANCH  17  21
ENDBRANCH  16  18
ENDBRANCH  15  16
ENDBRANCH   1  15
BRANCH  14  28
ATOM     28  C   UNL     1      -0.013   1.086   0.008  0.00  0.00    +0.125 C 
BRANCH  28  29
ATOM     29  C   UNL     1      -0.753   1.593  -1.232  0.00  0.00    +0.003 C 
BRANCH  29  30
ATOM     30  C   UNL     1      -0.037   1.099  -2.490  0.00  0.00    -0.078 C 
BRANCH  30  31
ATOM     31  N   UNL     1      -0.747   1.586  -3.680  0.00  0.00    +0.376 N 
ATOM     32  C   UNL     1       0.035   1.336  -4.899  0.00  0.00    -0.097 C 
ATOM     33  C   UNL     1      -2.083   0.983  -3.779  0.00  0.00    -0.097 C 
ATOM     34  H   UNL     1      -0.874   2.674  -3.577  0.00  0.00    -0.083 HD
ENDBRANCH  30  31
ENDBRANCH  29  30
ENDBRANCH  28  29
ENDBRANCH  14  28
TORSDOF 10
