REMARK  Name = ZINC15002095
REMARK  10 active torsions:
REMARK  status: ('A' for Active; 'I' for Inactive)
REMARK    1  A    between atoms: C_1  and  C_2
REMARK    2  A    between atoms: C_2  and  C_3
REMARK    3  A    between atoms: C_3  and  C_22
REMARK    4  A    between atoms: N_6  and  C_10
REMARK    5  A    between atoms: C_10  and  C_11
REMARK    6  A    between atoms: C_27  and  C_28
REMARK    7  A    between atoms: C_27  and  N_68
REMARK    8  A    between atoms: C_31  and  C_33
REMARK    9  A    between atoms: C_33  and  O_34
REMARK   10  A    between atoms: O_34  and  C_35
REMARK                            x       y       z     vdW  Elec       q    Type
REMARK                         _______ _______ _______ _____ _____    ______ ____
ROOT
ATOM      1  C   UNL     1       5.779  -0.358   5.163  0.00  0.00    +0.115 C 
ATOM      2  C   UNL     1       5.731   1.101   5.572  0.00  0.00    +0.247 C 
ATOM      3  O   UNL     1       4.755   1.817   5.618  0.00  0.00    -0.273 OA
ATOM      4  N   UNL     1       7.002   1.436   5.872  0.00  0.00    -0.221 N 
ATOM      5  C   UNL     1       7.836   0.403   5.712  0.00  0.00    +0.309 C 
ATOM      6  O   UNL     1       9.032   0.461   5.921  0.00  0.00    -0.252 OA
ATOM      7  N   UNL     1       7.204  -0.708   5.293  0.00  0.00    -0.285 N 
ATOM      8  H   UNL     1       7.607  -1.571   5.112  0.00  0.00    +0.151 HD
ENDROOT
BRANCH   1   9
ATOM      9  C   UNL     1       5.312  -0.527   3.716  0.00  0.00    +0.018 C 
ATOM     10  C   UNL     1       6.058   0.466   2.819  0.00  0.00    -0.013 C 
ATOM     11  C   UNL     1       5.544   0.334   1.384  0.00  0.00    -0.078 C 
ATOM     12  C   UNL     1       3.360  -0.364   2.168  0.00  0.00    -0.078 C 
ATOM     13  C   UNL     1       3.808  -0.253   3.627  0.00  0.00    -0.013 C 
ATOM     14  N   UNL     1       4.096   0.634   1.363  0.00  0.00    +0.384 N 
ATOM     15  H   UNL     1       3.943   1.565   1.766  0.00  0.00    -0.081 HD
BRANCH  14  16
ATOM     16  C   UNL     1       3.599   0.625  -0.028  0.00  0.00    -0.003 C 
BRANCH  16  17
ATOM     17  C   UNL     1       2.092   0.660  -0.014  0.00  0.00    +0.089 A 
ATOM     18  C   UNL     1       1.331   1.769  -0.001  0.00  0.00    +0.043 A 
ATOM     19  C   UNL     1      -0.016   1.341   0.009  0.00  0.00    +0.047 A 
ATOM     20  C   UNL     1       0.002  -0.004   0.002  0.00  0.00    +0.131 A 
ATOM     21  O   UNL     1       1.282  -0.411  -0.012  0.00  0.00    -0.464 OA
BRANCH  20  22
ATOM     22  C   UNL     1      -1.208  -0.902   0.008  0.00  0.00    +0.233 C 
BRANCH  22  23
ATOM     23  O   UNL     1      -1.603  -1.179  -1.337  0.00  0.00    -0.375 OA
ATOM     24  C   UNL     1      -2.748  -2.027  -1.444  0.00  0.00    +0.194 C 
ENDBRANCH  22  23
ENDBRANCH  20  22
ENDBRANCH  16  17
ENDBRANCH  14  16
ENDBRANCH   1   9
BRANCH   1  26
ATOM     25  C   UNL     1       5.413  -1.025   7.543  0.00  0.00    +0.006 C 
ATOM     26  C   UNL     1       4.927  -1.212   6.105  0.00  0.00    +0.032 C 
ENDBRANCH   1  26
BRANCH   4  27
ATOM     27  C   UNL     1       7.417   2.768   6.320  0.00  0.00    +0.166 C 
BRANCH  27  28
ATOM     28  C   UNL     1       7.783   3.623   5.106  0.00  0.00    +0.229 C 
ATOM     29  C   UNL     1       8.249   5.010   5.570  0.00  0.00    +0.275 C 
ATOM     30  O   UNL     1       8.595   5.778   4.413  0.00  0.00    -0.485 OA
ATOM     31  C   UNL     1       9.367   5.160   3.477  0.00  0.00    +0.162 A 
ATOM     32  C   UNL     1      10.029   5.924   2.527  0.00  0.00    +0.049 A 
ATOM     33  C   UNL     1      10.810   5.310   1.567  0.00  0.00    +0.004 A 
ATOM     34  C   UNL     1      10.935   3.933   1.550  0.00  0.00    +0.004 A 
ATOM     35  C   UNL     1      10.280   3.166   2.495  0.00  0.00    +0.049 A 
ATOM     36  C   UNL     1       9.495   3.776   3.462  0.00  0.00    +0.163 A 
ATOM     37  O   UNL     1       8.858   3.007   4.387  0.00  0.00    -0.480 OA
ENDBRANCH  27  28
ENDBRANCH   4  27
TORSDOF 8
