REMARK  Name = ZINC22198719
REMARK  1 active torsions:
REMARK  status: ('A' for Active; 'I' for Inactive)
REMARK    1  A    between atoms: C_8  and  C_13
REMARK                            x       y       z     vdW  Elec       q    Type
REMARK                         _______ _______ _______ _____ _____    ______ ____
ROOT
ATOM      1  C   UNL     1       2.499  -4.158  -0.045  0.00  0.00    +0.261 C 
ATOM      2  O   UNL     1       1.478  -4.812   0.058  0.00  0.00    -0.269 OA
ATOM      3  N   UNL     1       3.689  -4.779  -0.162  0.00  0.00    -0.250 N 
ATOM      4  C   UNL     1       3.742  -6.164  -0.276  0.00  0.00    +0.225 A 
ATOM      5  N   UNL     1       4.921  -6.750  -0.384  0.00  0.00    -0.193 NA
ATOM      6  C   UNL     1       5.007  -8.077  -0.494  0.00  0.00    +0.186 A 
ATOM      7  C   UNL     1       3.819  -8.834  -0.491  0.00  0.00    +0.146 A 
ATOM      8  C   UNL     1       2.605  -8.171  -0.375  0.00  0.00    +0.162 A 
ATOM      9  N   UNL     1       2.607  -6.851  -0.266  0.00  0.00    -0.200 NA
ATOM     10 CL   UNL     1       1.111  -9.056  -0.368  0.00  0.00    -0.060 Cl
ATOM     11  N   UNL     1       4.207 -10.152  -0.617  0.00  0.00    -0.229 NA
ATOM     12  C   UNL     1       5.558 -10.165  -0.690  0.00  0.00    +0.224 A 
ATOM     13  N   UNL     1       6.024  -8.950  -0.617  0.00  0.00    -0.214 NA
ATOM     14  H   UNL     1       4.509  -4.261  -0.168  0.00  0.00    +0.158 HD
ENDROOT
BRANCH   1  22
ATOM     15  C   UNL     1      -0.018   1.352  -0.028  0.00  0.00    +0.038 A 
ATOM     16  C   UNL     1       1.195   2.051  -0.029  0.00  0.00    +0.116 A 
ATOM     17  N   UNL     1       2.334   1.397  -0.034  0.00  0.00    -0.220 NA
ATOM     18  C   UNL     1       2.367   0.057  -0.036  0.00  0.00    +0.241 A 
ATOM     19  N   UNL     1       3.552  -0.547  -0.040  0.00  0.00    -0.172 NA
ATOM     20  C   UNL     1       3.659  -1.877  -0.043  0.00  0.00    +0.291 A 
ATOM     21  O   UNL     1       4.758  -2.410  -0.047  0.00  0.00    -0.265 OA
ATOM     22  C   UNL     1       2.434  -2.692  -0.042  0.00  0.00    +0.168 A 
ATOM     23  C   UNL     1       1.213  -2.027  -0.037  0.00  0.00    +0.276 A 
ATOM     24  N   UNL     1       1.201  -0.657  -0.034  0.00  0.00    -0.251 N 
ATOM     25  C   UNL     1       0.000  -0.005  -0.030  0.00  0.00    +0.099 A 
ATOM     26  O   UNL     1       0.057  -2.721  -0.035  0.00  0.00    -0.266 OA
ENDBRANCH   1  22
TORSDOF 1
