REMARK  Name = ZINC35641015
REMARK  12 active torsions:
REMARK  status: ('A' for Active; 'I' for Inactive)
REMARK    1  A    between atoms: C_1  and  C_2
REMARK    2  A    between atoms: C_2  and  N_3
REMARK    3  A    between atoms: C_4  and  C_23
REMARK    4  A    between atoms: C_5  and  C_18
REMARK    5  A    between atoms: C_6  and  C_11
REMARK    6  A    between atoms: C_18  and  O_20
REMARK    7  A    between atoms: O_20  and  C_21
REMARK    8  A    between atoms: C_21  and  C_22
REMARK    9  A    between atoms: C_23  and  N_24
REMARK   10  A    between atoms: N_24  and  C_25
REMARK   11  A    between atoms: N_24  and  C_26
REMARK   12  A    between atoms: N_29  and  C_32
REMARK                            x       y       z     vdW  Elec       q    Type
REMARK                         _______ _______ _______ _____ _____    ______ ____
ROOT
ATOM      1  N   UNL     1       0.996  -0.555  -1.841  0.00  0.00    -0.258 N 
ATOM      2  C   UNL     1       0.042  -0.389  -2.804  0.00  0.00    +0.041 C 
ATOM      3  C   UNL     1       0.347  -0.503  -4.114  0.00  0.00    +0.080 C 
ATOM      4  C   UNL     1       1.782  -0.821  -4.479  0.00  0.00    +0.144 C 
ATOM      5  N   UNL     1       2.734  -0.981  -3.366  0.00  0.00    -0.288 N 
ATOM      6  C   UNL     1       2.279  -0.832  -2.107  0.00  0.00    +0.307 C 
ATOM      7  O   UNL     1       3.057  -0.958  -1.181  0.00  0.00    -0.252 OA
ATOM      8  H   UNL     1       3.667  -1.185  -3.536  0.00  0.00    +0.151 HD
ENDROOT
BRANCH   4   9
ATOM      9  C   UNL     1       1.786  -2.098  -5.279  0.00  0.00    -0.021 A 
ATOM     10  C   UNL     1       1.690  -3.318  -4.635  0.00  0.00    +0.006 A 
ATOM     11  C   UNL     1       1.693  -4.489  -5.369  0.00  0.00    +0.002 A 
ATOM     12  C   UNL     1       1.794  -4.442  -6.747  0.00  0.00    +0.020 A 
ATOM     13  C   UNL     1       1.890  -3.222  -7.391  0.00  0.00    +0.041 A 
ATOM     14  C   UNL     1       1.880  -2.049  -6.657  0.00  0.00    +0.025 A 
ATOM     15 CL   UNL     1       2.016  -3.162  -9.122  0.00  0.00    -0.084 Cl
ENDBRANCH   4   9
BRANCH   1  17
ATOM     16  C   UNL     1       0.725   1.047  -0.013  0.00  0.00    +0.025 C 
ATOM     17  C   UNL     1       0.595  -0.417  -0.439  0.00  0.00    +0.111 C 
ENDBRANCH   1  17
BRANCH   3  18
ATOM     18  C   UNL     1      -0.641  -0.332  -5.112  0.00  0.00    +0.339 C 
ATOM     19  O   UNL     1      -1.807  -0.190  -4.796  0.00  0.00    -0.245 OA
BRANCH  18  20
ATOM     20  O   UNL     1      -0.289  -0.326  -6.415  0.00  0.00    -0.462 OA
BRANCH  20  21
ATOM     21  C   UNL     1      -1.338  -0.148  -7.369  0.00  0.00    +0.229 C 
ATOM     22  C   UNL     1      -0.751  -0.170  -8.782  0.00  0.00    +0.048 C 
ENDBRANCH  20  21
ENDBRANCH  18  20
ENDBRANCH   3  18
BRANCH   2  23
ATOM     23  C   UNL     1      -1.375  -0.073  -2.397  0.00  0.00    +0.136 C 
BRANCH  23  24
ATOM     24  N   UNL     1      -2.168  -1.309  -2.386  0.00  0.00    -0.297 NA
ATOM     25  C   UNL     1      -1.880  -2.109  -1.189  0.00  0.00    +0.105 C 
BRANCH  24  26
ATOM     26  C   UNL     1      -3.604  -1.014  -2.490  0.00  0.00    +0.053 C 
ATOM     27  C   UNL     1      -4.063  -0.260  -1.238  0.00  0.00    +0.000 C 
ATOM     28  C   UNL     1      -5.573  -0.026  -1.316  0.00  0.00    -0.078 C 
ATOM     29  N   UNL     1      -6.268  -1.316  -1.394  0.00  0.00    +0.378 N 
ATOM     30  C   UNL     1      -5.887  -2.013  -2.628  0.00  0.00    -0.078 C 
ATOM     31  C   UNL     1      -4.389  -2.324  -2.602  0.00  0.00    +0.000 C 
ATOM     32  C   UNL     1      -7.720  -1.089  -1.390  0.00  0.00    -0.096 C 
ATOM     33  H   UNL     1      -6.016  -1.882  -0.598  0.00  0.00    -0.082 HD
ENDBRANCH  24  26
ENDBRANCH  23  24
ENDBRANCH   2  23
TORSDOF 8
