REMARK  Name = ZINC50640328
REMARK  4 active torsions:
REMARK  status: ('A' for Active; 'I' for Inactive)
REMARK    1  A    between atoms: C_1  and  C_2
REMARK    2  A    between atoms: N_7  and  S_8
REMARK    3  A    between atoms: S_8  and  C_11
REMARK    4  A    between atoms: C_16  and  N_17
REMARK                            x       y       z     vdW  Elec       q    Type
REMARK                         _______ _______ _______ _____ _____    ______ ____
ROOT
ATOM      1  S   UNL     1      -0.096  -5.153  -0.024  0.00  0.00    +0.104 S 
ATOM      2  O   UNL     1      -0.774  -5.121   1.224  0.00  0.00    -0.146 OA
ATOM      3  O   UNL     1      -0.785  -5.108  -1.266  0.00  0.00    -0.146 OA
ENDROOT
BRANCH   1  10
ATOM      4  C   UNL     1      -0.018   1.503   0.010  0.00  0.00    +0.053 C 
ATOM      5  C   UNL     1       0.002  -0.004   0.002  0.00  0.00    +0.006 A 
ATOM      6  C   UNL     1      -1.023  -0.856   0.002  0.00  0.00    +0.095 A 
ATOM      7  N   UNL     1      -0.798  -2.201  -0.006  0.00  0.00    -0.339 N 
ATOM      8  C   UNL     1       0.505  -2.649  -0.014  0.00  0.00    +0.192 A 
ATOM      9  S   UNL     1       1.406  -1.107  -0.018  0.00  0.00    -0.054 S 
ATOM     10  N   UNL     1       0.961  -3.878  -0.022  0.00  0.00    -0.103 NA
ATOM     11  H   UNL     1      -1.538  -2.828  -0.006  0.00  0.00    +0.167 HD
ENDBRANCH   1  10
BRANCH   1  12
ATOM     12  C   UNL     1       0.868  -6.628  -0.036  0.00  0.00    +0.153 A 
ATOM     13  C   UNL     1       0.830  -7.499   1.038  0.00  0.00    +0.049 A 
ATOM     14  C   UNL     1       1.606  -8.650   0.986  0.00  0.00    +0.038 A 
ATOM     15  C   UNL     1       2.387  -8.889  -0.128  0.00  0.00    +0.128 A 
ATOM     16  N   UNL     1       2.403  -8.040  -1.137  0.00  0.00    -0.238 NA
ATOM     17  C   UNL     1       1.673  -6.935  -1.128  0.00  0.00    +0.143 A 
ATOM     18 BR   UNL     1       1.594  -9.876   2.426  0.00  0.00    -0.049 Br
BRANCH  17  19
ATOM     19  N   UNL     1       1.716  -6.072  -2.217  0.00  0.00    -0.342 N 
ATOM     20  H   UNL     1       1.185  -5.259  -2.213  0.00  0.00    +0.144 HD
ATOM     21  H   UNL     1       2.275  -6.282  -2.981  0.00  0.00    +0.144 HD
ENDBRANCH  17  19
ENDBRANCH   1  12
TORSDOF 3
