REMARK  Name = ZINC20116219
REMARK  12 active torsions:
REMARK  status: ('A' for Active; 'I' for Inactive)
REMARK    1  A    between atoms: C_1  and  C_2
REMARK    2  A    between atoms: N_5  and  C_8
REMARK    3  A    between atoms: C_8  and  C_9
REMARK    4  A    between atoms: C_9  and  N_10
REMARK    5  A    between atoms: C_11  and  C_13
REMARK    6  A    between atoms: C_13  and  C_15
REMARK    7  A    between atoms: C_13  and  N_19
REMARK    8  A    between atoms: C_15  and  C_16
REMARK    9  A    between atoms: C_16  and  C_17
REMARK   10  A    between atoms: C_16  and  C_18
REMARK   11  A    between atoms: C_20  and  C_22
REMARK   12  A    between atoms: C_25  and  C_28
REMARK                            x       y       z     vdW  Elec       q    Type
REMARK                         _______ _______ _______ _____ _____    ______ ____
ROOT
ATOM      1  N   UNL     1      -1.553  -1.645   0.200  0.00  0.00    -0.300 N 
ATOM      2  C   UNL     1      -1.954  -0.367   0.054  0.00  0.00    +0.245 C 
ATOM      3  O   UNL     1      -3.100  -0.122  -0.267  0.00  0.00    -0.270 OA
ATOM      4  H   UNL     1      -0.497  -1.870   0.407  0.00  0.00    +0.150 HD
ENDROOT
BRANCH   2   5
ATOM      5  C   UNL     1      -0.998   0.738   0.282  0.00  0.00    +0.037 A 
ATOM      6  C   UNL     1      -1.410   2.063   0.132  0.00  0.00    +0.013 A 
ATOM      7  C   UNL     1      -0.513   3.089   0.347  0.00  0.00    +0.005 A 
ATOM      8  C   UNL     1       0.791   2.807   0.712  0.00  0.00    -0.041 A 
ATOM      9  C   UNL     1       1.206   1.496   0.863  0.00  0.00    +0.005 A 
ATOM     10  C   UNL     1       0.319   0.460   0.651  0.00  0.00    +0.013 A 
BRANCH   8  11
ATOM     11  C   UNL     1       1.765   3.933   0.945  0.00  0.00    -0.003 C 
ATOM     12  C   UNL     1       2.940   3.800  -0.025  0.00  0.00    +0.015 C 
ATOM     13  C   UNL     1       3.929   4.944   0.211  0.00  0.00    -0.010 C 
ATOM     14  C   UNL     1       3.226   6.283  -0.020  0.00  0.00    +0.007 C 
ATOM     15  C   UNL     1       2.051   6.415   0.951  0.00  0.00    -0.010 C 
ATOM     16  C   UNL     1       1.062   5.272   0.714  0.00  0.00    +0.015 C 
ATOM     17  C   UNL     1       2.568   6.353   2.390  0.00  0.00    +0.007 C 
ATOM     18  C   UNL     1       3.271   5.014   2.621  0.00  0.00    -0.010 C 
ATOM     19  C   UNL     1       4.446   4.881   1.650  0.00  0.00    +0.007 C 
ATOM     20  C   UNL     1       2.283   3.870   2.384  0.00  0.00    +0.015 C 
ENDBRANCH   8  11
ENDBRANCH   2   5
BRANCH   1  21
ATOM     21  C   UNL     1      -2.525  -2.735   0.083  0.00  0.00    +0.159 C 
BRANCH  21  23
ATOM     22  N   UNL     1      -2.929  -4.909   1.192  0.00  0.00    -0.316 N 
ATOM     23  C   UNL     1      -2.074  -3.903   0.923  0.00  0.00    +0.233 C 
ATOM     24  O   UNL     1      -0.942  -3.937   1.355  0.00  0.00    -0.274 OA
ATOM     25  H   UNL     1      -3.929  -4.919   0.733  0.00  0.00    +0.149 HD
BRANCH  22  26
ATOM     26  C   UNL     1      -2.527  -5.989   2.096  0.00  0.00    +0.086 C 
BRANCH  26  27
ATOM     27  C   UNL     1      -3.672  -6.995   2.231  0.00  0.00    -0.060 C 
BRANCH  27  32
ATOM     28  C   UNL     1      -2.374 -11.793   5.053  0.00  0.00    +0.007 C 
ATOM     29  C   UNL     1      -2.842 -10.807   3.981  0.00  0.00    -0.018 C 
ATOM     30  C   UNL     1      -3.991  -9.958   4.533  0.00  0.00    -0.016 C 
ATOM     31  C   UNL     1      -4.414  -8.933   3.478  0.00  0.00    -0.079 C 
ATOM     32  N   UNL     1      -3.269  -8.078   3.137  0.00  0.00    +0.381 N 
ATOM     33  C   UNL     1      -2.171  -8.865   2.561  0.00  0.00    -0.079 C 
ATOM     34  C   UNL     1      -1.681  -9.888   3.589  0.00  0.00    -0.016 C 
ATOM     35  H   UNL     1      -2.902  -7.622   4.069  0.00  0.00    -0.082 HD
ENDBRANCH  27  32
ENDBRANCH  26  27
ENDBRANCH  22  26
ENDBRANCH  21  23
BRANCH  21  36
ATOM     36  C   UNL     1      -2.631  -3.170  -1.380  0.00  0.00    +0.034 C 
BRANCH  36  37
ATOM     37  C   UNL     1      -3.751  -4.201  -1.526  0.00  0.00    -0.015 C 
ATOM     38  C   UNL     1      -5.098  -3.537  -1.232  0.00  0.00    +0.007 C 
ATOM     39  C   UNL     1      -3.755  -4.751  -2.954  0.00  0.00    +0.007 C 
ENDBRANCH  36  37
ENDBRANCH  21  36
ENDBRANCH   1  21
TORSDOF 9
