REMARK  Name = ZINC40106437
REMARK  7 active torsions:
REMARK  status: ('A' for Active; 'I' for Inactive)
REMARK    1  A    between atoms: C_3  and  C_6
REMARK    2  A    between atoms: C_9  and  C_30
REMARK    3  A    between atoms: C_12  and  C_14
REMARK    4  A    between atoms: C_14  and  O_15
REMARK    5  A    between atoms: O_15  and  C_16
REMARK    6  A    between atoms: C_16  and  C_18
REMARK    7  A    between atoms: N_26  and  C_27
REMARK                            x       y       z     vdW  Elec       q    Type
REMARK                         _______ _______ _______ _____ _____    ______ ____
ROOT
ATOM      1  C   UNL     1       3.762   1.834  -0.018  0.00  0.00    +0.144 C 
ATOM      2  C   UNL     1       4.388   1.723   1.386  0.00  0.00    +0.088 C 
ATOM      3  C   UNL     1       5.557   0.784   1.191  0.00  0.00    +0.075 C 
ATOM      4  N   UNL     1       5.615   0.419  -0.046  0.00  0.00    -0.180 NA
ATOM      5  N   UNL     1       4.615   0.972  -0.850  0.00  0.00    -0.182 N 
ATOM      6  C   UNL     1       4.456   0.752  -2.171  0.00  0.00    +0.273 C 
ATOM      7  O   UNL     1       3.547   1.287  -2.770  0.00  0.00    -0.270 OA
ENDROOT
BRANCH   1  10
ATOM      8  C   UNL     1      -0.015   1.341   0.015  0.00  0.00    +0.008 A 
ATOM      9  C   UNL     1       1.185   2.027   0.008  0.00  0.00    +0.013 A 
ATOM     10  C   UNL     1       2.344   1.325  -0.007  0.00  0.00    +0.013 A 
ATOM     11  S   UNL     1       1.754  -0.360  -0.013  0.00  0.00    -0.100 S 
ATOM     12  C   UNL     1       0.003  -0.014   0.006  0.00  0.00    +0.045 A 
ENDBRANCH   1  10
BRANCH   3  13
ATOM     13  C   UNL     1       6.484   0.356   2.244  0.00  0.00    +0.035 A 
ATOM     14  C   UNL     1       7.576  -0.490   2.155  0.00  0.00    +0.017 A 
ATOM     15  C   UNL     1       8.300  -0.745   3.295  0.00  0.00    +0.008 A 
ATOM     16  C   UNL     1       7.926  -0.164   4.465  0.00  0.00    +0.046 A 
ATOM     17  S   UNL     1       6.502   0.794   3.975  0.00  0.00    -0.095 S 
ENDBRANCH   3  13
BRANCH   6  18
ATOM     18  C   UNL     1       5.408  -0.159  -2.903  0.00  0.00    +0.329 C 
BRANCH  18  19
ATOM     19  O   UNL     1       5.034  -0.231  -4.280  0.00  0.00    -0.455 OA
BRANCH  19  20
ATOM     20  C   UNL     1       5.786  -1.007  -5.076  0.00  0.00    +0.311 C 
ATOM     21  O   UNL     1       6.731  -1.605  -4.619  0.00  0.00    -0.251 OA
BRANCH  20  22
ATOM     22  C   UNL     1       5.452  -1.131  -6.540  0.00  0.00    +0.101 C 
ATOM     23  C   UNL     1       4.040  -1.700  -6.695  0.00  0.00    +0.034 C 
ATOM     24  C   UNL     1       3.691  -1.792  -8.184  0.00  0.00    +0.110 C 
ATOM     25  N   UNL     1       4.733  -2.572  -8.866  0.00  0.00    -0.286 N 
ATOM     26  C   UNL     1       6.136  -2.165  -8.709  0.00  0.00    +0.110 C 
ATOM     27  C   UNL     1       6.458  -2.068  -7.215  0.00  0.00    +0.034 C 
ATOM     28  C   UNL     1       4.409  -3.640  -9.621  0.00  0.00    +0.302 C 
ATOM     29  O   UNL     1       5.269  -4.221 -10.253  0.00  0.00    -0.253 OA
ATOM     30  N   UNL     1       3.130  -4.064  -9.674  0.00  0.00    -0.296 N 
ATOM     31  H   UNL     1       2.433  -3.557  -9.230  0.00  0.00    +0.151 HD
BRANCH  30  32
ATOM     32  C   UNL     1       2.795  -5.289 -10.404  0.00  0.00    +0.075 C 
ATOM     33  C   UNL     1       1.553  -5.261 -11.298  0.00  0.00    +0.024 C 
ATOM     34  C   UNL     1       1.530  -6.039  -9.980  0.00  0.00    +0.024 C 
ENDBRANCH  30  32
ENDBRANCH  20  22
ENDBRANCH  19  20
ENDBRANCH  18  19
ENDBRANCH   6  18
TORSDOF 7
