REMARK  Name = ZINC09135718
REMARK  10 active torsions:
REMARK  status: ('A' for Active; 'I' for Inactive)
REMARK    1  A    between atoms: C_1  and  C_2
REMARK    2  A    between atoms: C_4  and  C_33
REMARK    3  A    between atoms: C_5  and  N_9
REMARK    4  A    between atoms: C_6  and  C_8
REMARK    5  A    between atoms: C_10  and  C_12
REMARK    6  A    between atoms: N_14  and  C_15
REMARK    7  A    between atoms: C_15  and  C_16
REMARK    8  A    between atoms: C_16  and  C_18
REMARK    9  A    between atoms: C_16  and  N_69
REMARK   10  A    between atoms: N_27  and  C_28
REMARK                            x       y       z     vdW  Elec       q    Type
REMARK                         _______ _______ _______ _____ _____    ______ ____
ROOT
ATOM      1  C   UNL     1       4.038  -4.358   4.091  0.00  0.00    +0.094 C 
ENDROOT
BRANCH   1   4
ATOM      2  C   UNL     1       5.108  -4.267   6.279  0.00  0.00    +0.299 C 
ATOM      3  O   UNL     1       6.000  -3.611   5.782  0.00  0.00    -0.265 OA
ATOM      4  N   UNL     1       4.080  -4.690   5.517  0.00  0.00    -0.309 N 
ATOM      5  H   UNL     1       3.366  -5.215   5.914  0.00  0.00    +0.149 HD
BRANCH   2   7
ATOM      6  N   UNL     1       6.179  -4.183   8.494  0.00  0.00    -0.277 N 
ATOM      7  C   UNL     1       5.150  -4.606   7.732  0.00  0.00    +0.303 C 
ATOM      8  O   UNL     1       4.258  -5.262   8.229  0.00  0.00    -0.265 OA
ATOM      9  H   UNL     1       6.888  -3.652   8.099  0.00  0.00    +0.155 HD
BRANCH   6  14
ATOM     10  C   UNL     1       6.362  -5.508  14.005  0.00  0.00    +0.044 C 
ATOM     11  C   UNL     1       6.314  -5.156  12.540  0.00  0.00    -0.050 A 
ATOM     12  C   UNL     1       7.376  -5.481  11.717  0.00  0.00    +0.008 A 
ATOM     13  C   UNL     1       7.335  -5.160  10.374  0.00  0.00    -0.029 A 
ATOM     14  C   UNL     1       6.224  -4.510   9.851  0.00  0.00    +0.040 A 
ATOM     15  C   UNL     1       5.161  -4.180  10.682  0.00  0.00    -0.029 A 
ATOM     16  C   UNL     1       5.207  -4.509  12.023  0.00  0.00    +0.008 A 
ATOM     17  C   UNL     1       3.956  -3.469  10.121  0.00  0.00    +0.045 C 
ATOM     18  C   UNL     1       8.493  -5.515   9.478  0.00  0.00    +0.045 C 
ENDBRANCH   6  14
ENDBRANCH   2   7
ENDBRANCH   1   4
BRANCH   1  19
ATOM     19  C   UNL     1       2.807  -5.003   3.453  0.00  0.00    -0.020 C 
BRANCH  19  20
ATOM     20  C   UNL     1       2.696  -4.561   2.016  0.00  0.00    -0.059 A 
ATOM     21  C   UNL     1       3.508  -5.128   1.052  0.00  0.00    +0.004 A 
ATOM     22  C   UNL     1       3.407  -4.720  -0.261  0.00  0.00    +0.023 A 
ATOM     23  C   UNL     1       2.486  -3.736  -0.626  0.00  0.00    +0.033 A 
ATOM     24  C   UNL     1       1.672  -3.175   0.343  0.00  0.00    -0.026 A 
ATOM     25  C   UNL     1       1.782  -3.588   1.661  0.00  0.00    +0.007 A 
ATOM     26  C   UNL     1       0.647  -2.120   0.012  0.00  0.00    +0.038 C 
ATOM     27  C   UNL     1       0.937  -1.537  -1.373  0.00  0.00    +0.024 C 
ATOM     28  C   UNL     1       1.181  -2.705  -2.336  0.00  0.00    +0.105 C 
ATOM     29  N   UNL     1       2.437  -3.362  -1.968  0.00  0.00    -0.333 N 
ATOM     30  C   UNL     1       2.708  -4.509  -2.844  0.00  0.00    +0.129 C 
ENDBRANCH  19  20
BRANCH  19  35
ATOM     31  C   UNL     1       2.832  -6.959   4.903  0.00  0.00    -0.078 C 
ATOM     32  C   UNL     1       2.462  -8.453   4.724  0.00  0.00    -0.020 C 
ATOM     33  C   UNL     1       1.511  -8.430   3.505  0.00  0.00    -0.020 C 
ATOM     34  C   UNL     1       1.841  -7.123   2.762  0.00  0.00    -0.078 C 
ATOM     35  N   UNL     1       2.928  -6.491   3.511  0.00  0.00    +0.385 N 
ATOM     36  H   UNL     1       3.832  -6.771   3.112  0.00  0.00    -0.081 HD
ENDBRANCH  19  35
ENDBRANCH   1  19
TORSDOF 6
