REMARK  Name = ZINC13064555
REMARK  13 active torsions:
REMARK  status: ('A' for Active; 'I' for Inactive)
REMARK    1  A    between atoms: C_1  and  C_2
REMARK    2  A    between atoms: C_2  and  C_3
REMARK    3  A    between atoms: C_3  and  C_5
REMARK    4  A    between atoms: C_3  and  N_68
REMARK    5  A    between atoms: N_9  and  C_10
REMARK    6  A    between atoms: C_10  and  C_11
REMARK    7  A    between atoms: C_10  and  C_12
REMARK    8  A    between atoms: C_10  and  C_13
REMARK    9  A    between atoms: C_14  and  C_15
REMARK   10  A    between atoms: C_14  and  N_68
REMARK   11  A    between atoms: C_19  and  C_28
REMARK   12  A    between atoms: C_20  and  C_27
REMARK   13  A    between atoms: C_29  and  N_68
REMARK                            x       y       z     vdW  Elec       q    Type
REMARK                         _______ _______ _______ _____ _____    ______ ____
ROOT
ATOM      1  N   UNL     1      -6.237   3.022  -1.101  0.00  0.00    +0.391 N 
ATOM      2  H   UNL     1      -5.243   3.279  -1.126  0.00  0.00    -0.080 HD
ENDROOT
BRANCH   1   3
ATOM      3  C   UNL     1      -6.488   1.975  -2.114  0.00  0.00    -0.067 C 
ATOM      4  C   UNL     1      -5.209   1.133  -2.298  0.00  0.00    -0.015 C 
ATOM      5  C   UNL     1      -5.169   0.832  -3.818  0.00  0.00    -0.002 C 
ATOM      6  C   UNL     1      -5.683   2.153  -4.442  0.00  0.00    -0.002 C 
ATOM      7  C   UNL     1      -6.790   2.623  -3.476  0.00  0.00    -0.015 C 
ENDBRANCH   1   3
BRANCH   1   8
ATOM      8  C   UNL     1      -7.050   4.220  -1.401  0.00  0.00    +0.003 C 
BRANCH   8   9
ATOM      9  C   UNL     1      -8.467   3.826  -1.731  0.00  0.00    +0.139 A 
ATOM     10  N   UNL     1      -9.119   2.788  -1.268  0.00  0.00    -0.115 NA
ATOM     11  N   UNL     1     -10.300   2.797  -1.784  0.00  0.00    -0.023 NA
ATOM     12  N   UNL     1     -10.417   3.814  -2.564  0.00  0.00    -0.043 NA
ATOM     13  N   UNL     1      -9.310   4.476  -2.554  0.00  0.00    -0.226 N 
BRANCH  13  14
ATOM     14  C   UNL     1      -9.024   5.704  -3.301  0.00  0.00    +0.059 C 
ATOM     15  C   UNL     1      -7.969   5.415  -4.371  0.00  0.00    +0.036 C 
ATOM     16  C   UNL     1     -10.305   6.204  -3.970  0.00  0.00    +0.036 C 
ATOM     17  C   UNL     1      -8.497   6.773  -2.342  0.00  0.00    +0.036 C 
ENDBRANCH  13  14
ENDBRANCH   8   9
BRANCH   8  19
ATOM     18  C   UNL     1      -5.630   5.664   0.062  0.00  0.00    +0.002 C 
ATOM     19  C   UNL     1      -7.049   5.146  -0.183  0.00  0.00    -0.011 C 
ENDBRANCH   8  19
ENDBRANCH   1   8
BRANCH   1  20
ATOM     20  C   UNL     1      -6.567   2.511   0.246  0.00  0.00    -0.036 C 
BRANCH  20  21
ATOM     21  C   UNL     1      -5.640   1.370   0.575  0.00  0.00    +0.001 A 
ATOM     22  C   UNL     1      -4.474   1.611   1.224  0.00  0.00    +0.017 A 
ATOM     23  C   UNL     1      -3.596   0.480   1.530  0.00  0.00    -0.001 A 
ATOM     24  C   UNL     1      -2.381   0.667   2.196  0.00  0.00    +0.013 A 
ATOM     25  C   UNL     1      -1.584  -0.409   2.466  0.00  0.00    -0.047 A 
ATOM     26  C   UNL     1      -1.970  -1.687   2.085  0.00  0.00    -0.046 A 
ATOM     27  C   UNL     1      -3.162  -1.894   1.426  0.00  0.00    +0.030 A 
ATOM     28  C   UNL     1      -3.987  -0.813   1.135  0.00  0.00    +0.049 A 
ATOM     29  N   UNL     1      -5.189  -0.993   0.483  0.00  0.00    -0.322 N 
ATOM     30  H   UNL     1      -5.459  -1.885   0.216  0.00  0.00    +0.169 HD
ATOM     31  C   UNL     1      -5.989   0.052   0.207  0.00  0.00    +0.251 A 
ATOM     32  O   UNL     1      -7.041  -0.143  -0.376  0.00  0.00    -0.268 OA
ATOM     33  C   UNL     1      -1.074  -2.859   2.393  0.00  0.00    +0.044 C 
ATOM     34  C   UNL     1      -0.275  -0.207   3.184  0.00  0.00    +0.044 C 
ENDBRANCH  20  21
ENDBRANCH   1  20
TORSDOF 7
