REMARK  Name = ZINC13129209
REMARK  11 active torsions:
REMARK  status: ('A' for Active; 'I' for Inactive)
REMARK    1  A    between atoms: C_1  and  C_2
REMARK    2  A    between atoms: C_2  and  C_4
REMARK    3  A    between atoms: C_2  and  N_28
REMARK    4  A    between atoms: N_6  and  C_7
REMARK    5  A    between atoms: C_10  and  O_26
REMARK    6  A    between atoms: C_11  and  S_13
REMARK    7  A    between atoms: S_13  and  N_16
REMARK    8  A    between atoms: N_16  and  C_17
REMARK    9  A    between atoms: C_20  and  O_24
REMARK   10  A    between atoms: O_24  and  C_25
REMARK   11  A    between atoms: O_26  and  C_27
REMARK                            x       y       z     vdW  Elec       q    Type
REMARK                         _______ _______ _______ _____ _____    ______ ____
ROOT
ATOM      1  C   UNL     1      -1.588   3.068  -3.541  0.00  0.00    +0.036 A 
ATOM      2  C   UNL     1      -2.855   2.509  -3.644  0.00  0.00    +0.027 A 
ATOM      3  C   UNL     1      -3.247   1.520  -2.764  0.00  0.00    +0.049 A 
ATOM      4  C   UNL     1      -2.376   1.086  -1.775  0.00  0.00    +0.147 A 
ATOM      5  C   UNL     1      -1.111   1.644  -1.671  0.00  0.00    +0.152 A 
ATOM      6  C   UNL     1      -0.719   2.637  -2.548  0.00  0.00    +0.055 A 
ENDROOT
BRANCH   1   9
ATOM      7  C   UNL     1      -1.602   4.034  -5.717  0.00  0.00    +0.237 C 
ATOM      8  O   UNL     1      -2.386   3.181  -6.077  0.00  0.00    -0.273 OA
ATOM      9  N   UNL     1      -1.189   4.071  -4.434  0.00  0.00    -0.284 N 
ATOM     10  H   UNL     1      -0.617   4.792  -4.130  0.00  0.00    +0.155 HD
BRANCH   7  12
ATOM     11  C   UNL     1       0.434   4.944  -6.801  0.00  0.00    +0.038 C 
ATOM     12  C   UNL     1      -1.089   5.051  -6.703  0.00  0.00    +0.158 C 
BRANCH  12  13
ATOM     13  N   UNL     1      -1.682   4.798  -8.018  0.00  0.00    -0.289 N 
ATOM     14  C   UNL     1      -1.798   5.803  -8.910  0.00  0.00    +0.298 C 
ATOM     15  O   UNL     1      -1.411   6.919  -8.622  0.00  0.00    -0.253 OA
ATOM     16  N   UNL     1      -2.344   5.570 -10.120  0.00  0.00    -0.313 N 
ATOM     17  H   UNL     1      -1.992   3.908  -8.248  0.00  0.00    +0.151 HD
ATOM     18  H   UNL     1      -2.654   4.680 -10.349  0.00  0.00    +0.146 HD
ATOM     19  H   UNL     1      -2.428   6.293 -10.761  0.00  0.00    +0.146 HD
ENDBRANCH  12  13
ENDBRANCH   7  12
ENDBRANCH   1   9
BRANCH   5  20
ATOM     20  S   UNL     1      -0.005   1.093  -0.414  0.00  0.00    +0.076 S 
ATOM     21  O   UNL     1      -0.002  -0.327  -0.471  0.00  0.00    -0.150 OA
ATOM     22  O   UNL     1       1.181   1.863  -0.550  0.00  0.00    -0.150 OA
BRANCH  20  23
ATOM     23  N   UNL     1      -0.674   1.507   1.043  0.00  0.00    -0.216 N 
ATOM     24  H   UNL     1      -0.908   0.816   1.683  0.00  0.00    +0.174 HD
BRANCH  23  25
ATOM     25  C   UNL     1      -0.903   2.853   1.351  0.00  0.00    +0.049 A 
ATOM     26  C   UNL     1       0.086   3.798   1.110  0.00  0.00    +0.028 A 
ATOM     27  C   UNL     1      -0.141   5.127   1.410  0.00  0.00    +0.048 A 
ATOM     28  C   UNL     1      -1.353   5.516   1.961  0.00  0.00    +0.134 A 
ATOM     29  C   UNL     1      -2.340   4.572   2.206  0.00  0.00    +0.061 A 
ATOM     30  C   UNL     1      -2.116   3.243   1.902  0.00  0.00    +0.043 A 
ATOM     31 BR   UNL     1      -3.992   5.104   2.957  0.00  0.00    -0.046 Br
BRANCH  28  32
ATOM     32  O   UNL     1      -1.575   6.824   2.260  0.00  0.00    -0.494 OA
ATOM     33  C   UNL     1      -0.515   7.742   1.982  0.00  0.00    +0.277 C 
ENDBRANCH  28  32
ENDBRANCH  23  25
ENDBRANCH  20  23
ENDBRANCH   5  20
BRANCH   4  34
ATOM     34  O   UNL     1      -2.763   0.113  -0.908  0.00  0.00    -0.493 OA
ATOM     35  C   UNL     1      -4.034  -0.497  -1.143  0.00  0.00    +0.277 C 
ENDBRANCH   4  34
TORSDOF 8
