REMARK  Name = ZINC26829078
REMARK  7 active torsions:
REMARK  status: ('A' for Active; 'I' for Inactive)
REMARK    1  A    between atoms: C_1  and  C_2
REMARK    2  A    between atoms: C_2  and  C_3
REMARK    3  A    between atoms: C_4  and  O_22
REMARK    4  A    between atoms: C_5  and  O_20
REMARK    5  A    between atoms: C_6  and  C_13
REMARK    6  A    between atoms: C_13  and  C_14
REMARK    7  A    between atoms: O_20  and  C_21
REMARK                            x       y       z     vdW  Elec       q    Type
REMARK                         _______ _______ _______ _____ _____    ______ ____
ROOT
ATOM      1  C   UNL     1       0.039  -2.789   0.033  0.00  0.00    +0.013 A 
ATOM      2  C   UNL     1       0.041  -2.084   1.227  0.00  0.00    +0.163 A 
ATOM      3  C   UNL     1       0.023  -0.690   1.193  0.00  0.00    +0.167 A 
ATOM      4  C   UNL     1       0.002  -0.004   0.002  0.00  0.00    +0.029 A 
ATOM      5  C   UNL     1      -0.006  -0.696  -1.231  0.00  0.00    +0.088 A 
ATOM      6  C   UNL     1       0.019  -2.107  -1.158  0.00  0.00    +0.048 A 
ATOM      7  S   UNL     1       0.009  -2.576  -2.872  0.00  0.00    -0.052 S 
ATOM      8  C   UNL     1      -0.019  -0.925  -3.557  0.00  0.00    +0.157 A 
ATOM      9  N   UNL     1      -0.019  -0.175  -2.479  0.00  0.00    -0.225 NA
ATOM     10  N   UNL     1      -0.037  -0.538  -4.882  0.00  0.00    -0.337 N 
ATOM     11  H   UNL     1      -0.053   0.531  -5.142  0.00  0.00    +0.144 HD
ATOM     12  H   UNL     1      -0.035  -1.298  -5.677  0.00  0.00    +0.144 HD
ENDROOT
BRANCH   1  14
ATOM     13  C   UNL     1      -1.378  -4.824   0.060  0.00  0.00    +0.009 C 
ATOM     14  C   UNL     1       0.058  -4.296   0.043  0.00  0.00    +0.037 C 
ENDBRANCH   1  14
BRANCH   3  15
ATOM     15  O   UNL     1       0.025   0.006   2.362  0.00  0.00    -0.491 OA
ATOM     16  C   UNL     1      -1.247   0.321   2.932  0.00  0.00    +0.277 C 
ENDBRANCH   3  15
BRANCH   2  17
ATOM     17  O   UNL     1       0.060  -2.744   2.417  0.00  0.00    -0.503 OA
ATOM     18  H   UNL     1       0.062  -2.178   3.360  0.00  0.00    +0.292 HD
ENDBRANCH   2  17
BRANCH   4  19
ATOM     19  C   UNL     1      -0.018   1.503   0.010  0.00  0.00    +0.077 C 
BRANCH  19  20
ATOM     20  C   UNL     1       1.395   2.024  -0.000  0.00  0.00    -0.025 A 
ATOM     21  C   UNL     1       2.063   2.267   1.190  0.00  0.00    +0.007 A 
ATOM     22  C   UNL     1       3.365   2.742   1.132  0.00  0.00    +0.020 A 
ATOM     23  C   UNL     1       3.945   2.967  -0.102  0.00  0.00    +0.111 A 
ATOM     24  N   UNL     1       3.277   2.730  -1.214  0.00  0.00    -0.263 NA
ATOM     25  C   UNL     1       2.040   2.273  -1.197  0.00  0.00    +0.114 A 
ENDBRANCH  19  20
ENDBRANCH   4  19
TORSDOF 5
