REMARK  Name = ZINC39542679
REMARK  8 active torsions:
REMARK  status: ('A' for Active; 'I' for Inactive)
REMARK    1  A    between atoms: C_1  and  C_2
REMARK    2  A    between atoms: C_9  and  C_16
REMARK    3  A    between atoms: C_11  and  O_12
REMARK    4  A    between atoms: C_16  and  O_17
REMARK    5  A    between atoms: O_17  and  C_18
REMARK    6  A    between atoms: C_18  and  C_20
REMARK    7  A    between atoms: C_20  and  N_21
REMARK    8  A    between atoms: C_22  and  C_24
REMARK                            x       y       z     vdW  Elec       q    Type
REMARK                         _______ _______ _______ _____ _____    ______ ____
ROOT
ATOM      1  C   UNL     1       0.023  -7.486  -2.380  0.00  0.00    +0.268 C 
ENDROOT
BRANCH   1  10
ATOM      2  C   UNL     1       4.775  -6.688   5.016  0.00  0.00    +0.109 C 
ATOM      3  C   UNL     1       3.670  -6.660   3.991  0.00  0.00    +0.214 C 
ATOM      4  O   UNL     1       2.593  -6.165   4.270  0.00  0.00    -0.276 OA
ATOM      5  N   UNL     1       3.870  -7.173   2.793  0.00  0.00    -0.286 N 
ATOM      6  C   UNL     1       2.922  -7.032   1.826  0.00  0.00    +0.037 A 
ATOM      7  C   UNL     1       2.954  -7.860   0.690  0.00  0.00    +0.024 A 
ATOM      8  C   UNL     1       2.013  -7.730  -0.282  0.00  0.00    +0.014 A 
ATOM      9  C   UNL     1       1.001  -6.763  -0.154  0.00  0.00    +0.024 A 
ATOM     10  C   UNL     1       0.014  -6.613  -1.151  0.00  0.00    +0.007 A 
ATOM     11  C   UNL     1      -0.958  -5.649  -0.977  0.00  0.00    +0.095 A 
ATOM     12  C   UNL     1      -0.949  -4.855   0.161  0.00  0.00    +0.285 A 
ATOM     13  O   UNL     1      -0.013  -5.000   1.104  0.00  0.00    -0.425 OA
ATOM     14  C   UNL     1       0.961  -5.927   0.984  0.00  0.00    +0.141 A 
ATOM     15  C   UNL     1       1.920  -6.071   1.970  0.00  0.00    +0.070 A 
ATOM     16  H   UNL     1       4.693  -7.649   2.600  0.00  0.00    +0.155 HD
BRANCH  12  17
ATOM     17  O   UNL     1      -1.904  -3.918   0.319  0.00  0.00    -0.480 OA
ATOM     18  H   UNL     1      -1.825  -3.410   1.137  0.00  0.00    +0.295 HD
ENDBRANCH  12  17
ENDBRANCH   1  10
BRANCH   1  19
ATOM     19  O   UNL     1       0.080  -6.663  -3.547  0.00  0.00    -0.459 OA
BRANCH  19  20
ATOM     20  C   UNL     1       0.094  -7.290  -4.734  0.00  0.00    +0.325 C 
ATOM     21  O   UNL     1       0.059  -8.497  -4.780  0.00  0.00    -0.249 OA
BRANCH  20  22
ATOM     22  C   UNL     1       0.154  -6.489  -6.009  0.00  0.00    +0.225 C 
BRANCH  22  23
ATOM     23  N   UNL     1       0.159  -7.399  -7.158  0.00  0.00    -0.300 N 
ATOM     24  C   UNL     1       0.209  -6.902  -8.410  0.00  0.00    +0.253 C 
ATOM     25  O   UNL     1       0.249  -5.699  -8.586  0.00  0.00    -0.270 OA
ATOM     26  H   UNL     1       0.126  -8.358  -7.017  0.00  0.00    +0.150 HD
BRANCH  24  27
ATOM     27  C   UNL     1       0.213  -7.814  -9.561  0.00  0.00    +0.093 A 
ATOM     28  C   UNL     1       0.265  -7.506 -10.886  0.00  0.00    +0.068 A 
ATOM     29  C   UNL     1       0.260  -8.536 -11.845  0.00  0.00    +0.008 A 
ATOM     30  C   UNL     1       0.308  -8.420 -13.258  0.00  0.00    +0.010 A 
ATOM     31  C   UNL     1       0.294  -9.526 -14.047  0.00  0.00    +0.001 A 
ATOM     32  C   UNL     1       0.233 -10.805 -13.507  0.00  0.00    +0.001 A 
ATOM     33  C   UNL     1       0.186 -10.963 -12.137  0.00  0.00    +0.016 A 
ATOM     34  C   UNL     1       0.199  -9.850 -11.324  0.00  0.00    +0.021 A 
ATOM     35  S   UNL     1       0.161  -9.597  -9.567  0.00  0.00    -0.082 S 
ATOM     36 CL   UNL     1       0.337  -5.847 -11.391  0.00  0.00    -0.082 Cl
ENDBRANCH  24  27
ENDBRANCH  22  23
ENDBRANCH  20  22
ENDBRANCH  19  20
ENDBRANCH   1  19
TORSDOF 7
