REMARK  Name = ZINC10028743
REMARK  6 active torsions:
REMARK  status: ('A' for Active; 'I' for Inactive)
REMARK    1  A    between atoms: C_6  and  C_7
REMARK    2  A    between atoms: C_16  and  C_18
REMARK    3  A    between atoms: C_18  and  S_19
REMARK    4  A    between atoms: S_19  and  C_20
REMARK    5  A    between atoms: N_24  and  C_25
REMARK    6  A    between atoms: C_25  and  C_26
REMARK                            x       y       z     vdW  Elec       q    Type
REMARK                         _______ _______ _______ _____ _____    ______ ____
ROOT
ATOM      1  C   UNL     1      -7.343   2.379   4.547  0.00  0.00    +0.004 A 
ATOM      2  C   UNL     1      -6.896   1.320   5.264  0.00  0.00    +0.056 A 
ATOM      3  S   UNL     1      -5.184   1.188   4.783  0.00  0.00    -0.076 S 
ATOM      4  C   UNL     1      -5.109   2.545   3.642  0.00  0.00    +0.116 A 
ATOM      5  C   UNL     1      -6.412   3.068   3.660  0.00  0.00    +0.080 A 
ATOM      6  C   UNL     1      -6.639   4.196   2.809  0.00  0.00    +0.260 A 
ATOM      7  O   UNL     1      -7.739   4.720   2.756  0.00  0.00    -0.267 OA
ATOM      8  N   UNL     1      -5.619   4.674   2.073  0.00  0.00    -0.310 N 
ATOM      9  H   UNL     1      -5.766   5.441   1.498  0.00  0.00    +0.170 HD
ATOM     10  C   UNL     1      -4.389   4.100   2.115  0.00  0.00    +0.121 A 
ATOM     11  N   UNL     1      -4.152   3.069   2.881  0.00  0.00    -0.226 NA
ENDROOT
BRANCH   1  17
ATOM     12  C   UNL     1      -9.038   4.172   4.899  0.00  0.00    +0.010 A 
ATOM     13  C   UNL     1     -10.351   4.587   4.999  0.00  0.00    +0.020 A 
ATOM     14  C   UNL     1     -11.380   3.669   4.876  0.00  0.00    +0.041 A 
ATOM     15  C   UNL     1     -11.100   2.333   4.646  0.00  0.00    +0.020 A 
ATOM     16  C   UNL     1      -9.791   1.909   4.538  0.00  0.00    +0.010 A 
ATOM     17  C   UNL     1      -8.750   2.829   4.661  0.00  0.00    -0.016 A 
ATOM     18 CL   UNL     1     -13.029   4.196   5.011  0.00  0.00    -0.084 Cl
ENDBRANCH   1  17
BRANCH  10  19
ATOM     19  C   UNL     1      -3.278   4.665   1.269  0.00  0.00    +0.151 C 
BRANCH  19  20
ATOM     20  S   UNL     1      -1.767   3.707   1.538  0.00  0.00    -0.077 S 
BRANCH  20  21
ATOM     21  C   UNL     1      -0.667   4.560   0.458  0.00  0.00    +0.210 A 
ATOM     22  N   UNL     1      -0.960   5.598  -0.295  0.00  0.00    -0.102 NA
ATOM     23  N   UNL     1       0.072   5.976  -0.961  0.00  0.00    -0.022 NA
ATOM     24  N   UNL     1       1.083   5.227  -0.683  0.00  0.00    -0.043 NA
ATOM     25  N   UNL     1       0.639   4.271   0.247  0.00  0.00    -0.218 N 
BRANCH  25  26
ATOM     26  C   UNL     1       1.423   3.197   0.862  0.00  0.00    +0.179 C 
BRANCH  26  27
ATOM     27  C   UNL     1       1.326   1.937  -0.000  0.00  0.00    +0.140 C 
ATOM     28  C   UNL     1       2.192   0.804   0.604  0.00  0.00    +0.035 C 
ATOM     29  C   UNL     1       1.480  -0.451   0.029  0.00  0.00    +0.031 C 
ATOM     30  C   UNL     1       0.002  -0.004   0.002  0.00  0.00    +0.160 C 
ATOM     31  O   UNL     1      -0.017   1.428   0.010  0.00  0.00    -0.375 OA
ENDBRANCH  26  27
ENDBRANCH  25  26
ENDBRANCH  20  21
ENDBRANCH  19  20
ENDBRANCH  10  19
TORSDOF 6
