REMARK  Name = ZINC13724083
REMARK  5 active torsions:
REMARK  status: ('A' for Active; 'I' for Inactive)
REMARK    1  A    between atoms: C_1  and  N_2
REMARK    2  A    between atoms: N_2  and  C_3
REMARK    3  A    between atoms: C_3  and  C_4
REMARK    4  A    between atoms: C_4  and  O_5
REMARK    5  A    between atoms: C_19  and  C_21
REMARK                            x       y       z     vdW  Elec       q    Type
REMARK                         _______ _______ _______ _____ _____    ______ ____
ROOT
ATOM      1  C   UNL     1       1.540  -6.668  -1.660  0.00  0.00    +0.132 C 
ATOM      2  N   UNL     1       1.175  -6.098  -0.356  0.00  0.00    -0.300 N 
ATOM      3  C   UNL     1       1.245  -4.723  -0.380  0.00  0.00    +0.222 A 
ATOM      4  N   UNL     1       0.186  -4.020  -0.051  0.00  0.00    -0.207 NA
ATOM      5  C   UNL     1       0.195  -2.692  -0.058  0.00  0.00    +0.116 A 
ATOM      6  C   UNL     1       1.333  -1.956  -0.414  0.00  0.00    +0.055 A 
ATOM      7  C   UNL     1       1.196  -0.493  -0.374  0.00  0.00    -0.024 A 
ATOM      8  C   UNL     1       0.002  -0.004   0.002  0.00  0.00    -0.004 A 
ATOM      9  S   UNL     1      -1.002  -1.437   0.316  0.00  0.00    -0.073 S 
ATOM     10  C   UNL     1      -0.018   1.501   0.010  0.00  0.00    +0.043 C 
ATOM     11  C   UNL     1       1.471   1.909  -0.002  0.00  0.00    +0.010 C 
ATOM     12  C   UNL     1       2.126   0.686  -0.674  0.00  0.00    +0.037 C 
ATOM     13  C   UNL     1       2.515  -2.759  -0.781  0.00  0.00    +0.170 A 
ATOM     14  N   UNL     1       2.415  -4.122  -0.746  0.00  0.00    -0.181 N 
ATOM     15  N   UNL     1       3.669  -4.614  -1.135  0.00  0.00    -0.139 NA
ATOM     16  C   UNL     1       4.437  -3.568  -1.378  0.00  0.00    +0.218 A 
ATOM     17  N   UNL     1       3.737  -2.447  -1.164  0.00  0.00    -0.203 NA
ENDROOT
BRANCH  16  18
ATOM     18  C   UNL     1       5.847  -3.626  -1.816  0.00  0.00    +0.173 A 
ATOM     19  C   UNL     1       6.569  -4.757  -2.037  0.00  0.00    +0.053 A 
ATOM     20  C   UNL     1       7.855  -4.346  -2.438  0.00  0.00    +0.042 A 
ATOM     21  C   UNL     1       7.855  -2.998  -2.443  0.00  0.00    +0.196 A 
ATOM     22  O   UNL     1       6.639  -2.567  -2.072  0.00  0.00    -0.460 OA
ENDBRANCH  16  18
BRANCH   2  23
ATOM     23  C   UNL     1      -0.160  -6.550   0.061  0.00  0.00    +0.135 C 
BRANCH  23  24
ATOM     24  C   UNL     1      -0.131  -8.058   0.318  0.00  0.00    +0.174 C 
BRANCH  24  25
ATOM     25  O   UNL     1       0.726  -8.336   1.427  0.00  0.00    -0.393 OA
ATOM     26  H   UNL     1       0.792  -9.275   1.647  0.00  0.00    +0.209 HD
ENDBRANCH  24  25
ENDBRANCH  23  24
ENDBRANCH   2  23
TORSDOF 4
