REMARK  Name = ZINC63151785
REMARK  6 active torsions:
REMARK  status: ('A' for Active; 'I' for Inactive)
REMARK    1  A    between atoms: C_1  and  C_2
REMARK    2  A    between atoms: C_2  and  N_3
REMARK    3  A    between atoms: C_5  and  S_11
REMARK    4  A    between atoms: S_11  and  N_14
REMARK    5  A    between atoms: N_14  and  C_15
REMARK    6  A    between atoms: C_15  and  C_16
REMARK                            x       y       z     vdW  Elec       q    Type
REMARK                         _______ _______ _______ _____ _____    ______ ____
ROOT
ATOM      1  N   UNL     1      -1.333  -0.614  -0.475  0.00  0.00    -0.328 N 
ATOM      2  C   UNL     1      -1.585  -1.976  -0.358  0.00  0.00    +0.145 A 
ATOM      3  C   UNL     1      -2.864  -2.416  -0.031  0.00  0.00    +0.146 A 
ATOM      4  C   UNL     1      -3.100  -3.774   0.081  0.00  0.00    +0.048 A 
ATOM      5  C   UNL     1      -2.044  -4.651  -0.138  0.00  0.00    +0.038 A 
ATOM      6  C   UNL     1      -0.800  -4.145  -0.459  0.00  0.00    +0.128 A 
ATOM      7  N   UNL     1      -0.606  -2.844  -0.565  0.00  0.00    -0.237 NA
ATOM      8 BR   UNL     1      -2.309  -6.518   0.003  0.00  0.00    -0.049 Br
ATOM      9  H   UNL     1      -2.063   0.022  -0.403  0.00  0.00    +0.147 HD
ENDROOT
BRANCH   3  10
ATOM     10  S   UNL     1      -4.165  -1.258   0.236  0.00  0.00    +0.062 S 
ATOM     11  O   UNL     1      -5.335  -2.018   0.507  0.00  0.00    -0.153 OA
ATOM     12  O   UNL     1      -3.662  -0.284   1.141  0.00  0.00    -0.153 OA
BRANCH  10  13
ATOM     13  N   UNL     1      -4.429  -0.478  -1.201  0.00  0.00    -0.186 NA
ATOM     14  H   UNL     1      -4.260   0.474  -1.274  0.00  0.00    +0.148 HD
BRANCH  13  15
ATOM     15  C   UNL     1      -4.917  -1.226  -2.362  0.00  0.00    +0.141 C 
BRANCH  15  16
ATOM     16  C   UNL     1      -5.440  -0.264  -3.396  0.00  0.00    -0.025 A 
ATOM     17  C   UNL     1      -6.764   0.130  -3.382  0.00  0.00    +0.012 A 
ATOM     18  C   UNL     1      -7.203   0.998  -4.327  0.00  0.00    +0.045 A 
ATOM     19  S   UNL     1      -5.721   1.284  -5.281  0.00  0.00    -0.105 S 
ATOM     20  C   UNL     1      -4.616   0.233  -4.352  0.00  0.00    +0.050 A 
ENDBRANCH  15  16
ENDBRANCH  13  15
ENDBRANCH  10  13
ENDBRANCH   3  10
BRANCH   1  22
ATOM     21  C   UNL     1       0.033   1.390  -0.794  0.00  0.00    +0.024 C 
ATOM     22  C   UNL     1       0.033  -0.138  -0.706  0.00  0.00    +0.099 C 
ENDBRANCH   1  22
TORSDOF 5
