REMARK  Name = ZINC06193698
REMARK  11 active torsions:
REMARK  status: ('A' for Active; 'I' for Inactive)
REMARK    1  A    between atoms: C_1  and  C_2
REMARK    2  A    between atoms: C_2  and  N_66
REMARK    3  A    between atoms: C_3  and  C_4
REMARK    4  A    between atoms: C_3  and  N_66
REMARK    5  A    between atoms: C_10  and  C_12
REMARK    6  A    between atoms: C_10  and  C_26
REMARK    7  A    between atoms: C_10  and  N_66
REMARK    8  A    between atoms: C_15  and  C_25
REMARK    9  A    between atoms: C_18  and  C_24
REMARK   10  A    between atoms: N_30  and  C_31
REMARK   11  A    between atoms: C_31  and  C_32
REMARK                            x       y       z     vdW  Elec       q    Type
REMARK                         _______ _______ _______ _____ _____    ______ ____
ROOT
ATOM      1  C   UNL     1       4.928  -1.536  -2.241  0.00  0.00    +0.039 C 
ENDROOT
BRANCH   1   2
ATOM      2  C   UNL     1       6.323  -1.439  -1.680  0.00  0.00    +0.011 A 
ATOM      3  C   UNL     1       6.907  -2.531  -1.128  0.00  0.00    +0.018 A 
ATOM      4  C   UNL     1       8.265  -2.404  -0.596  0.00  0.00    +0.002 A 
ATOM      5  C   UNL     1       8.921  -3.497  -0.018  0.00  0.00    -0.041 A 
ATOM      6  C   UNL     1      10.187  -3.345   0.473  0.00  0.00    +0.004 A 
ATOM      7  C   UNL     1      10.827  -2.115   0.406  0.00  0.00    +0.005 A 
ATOM      8  C   UNL     1      10.200  -1.025  -0.158  0.00  0.00    -0.026 A 
ATOM      9  C   UNL     1       8.911  -1.156  -0.665  0.00  0.00    +0.052 A 
ATOM     10  N   UNL     1       8.261  -0.082  -1.235  0.00  0.00    -0.322 N 
ATOM     11  H   UNL     1       8.721   0.804  -1.284  0.00  0.00    +0.169 HD
ATOM     12  C   UNL     1       7.015  -0.210  -1.725  0.00  0.00    +0.251 A 
ATOM     13  O   UNL     1       6.470   0.761  -2.221  0.00  0.00    -0.268 OA
ATOM     14  C   UNL     1      10.907   0.304  -0.224  0.00  0.00    +0.046 C 
ATOM     15  C   UNL     1       8.235  -4.836   0.061  0.00  0.00    +0.044 C 
ENDBRANCH   1   2
BRANCH   1  16
ATOM     16  C   UNL     1       4.985  -1.461  -3.745  0.00  0.00    +0.143 A 
ATOM     17  N   UNL     1       5.216  -0.391  -4.466  0.00  0.00    -0.115 NA
ATOM     18  N   UNL     1       5.185  -0.735  -5.708  0.00  0.00    -0.023 NA
ATOM     19  N   UNL     1       4.933  -1.994  -5.797  0.00  0.00    -0.044 NA
ATOM     20  N   UNL     1       4.803  -2.478  -4.608  0.00  0.00    -0.226 N 
BRANCH  20  21
ATOM     21  C   UNL     1       4.511  -3.871  -4.262  0.00  0.00    +0.182 C 
BRANCH  21  22
ATOM     22  C   UNL     1       3.019  -4.067  -4.182  0.00  0.00    -0.026 A 
ATOM     23  C   UNL     1       2.362  -3.879  -2.980  0.00  0.00    +0.008 A 
ATOM     24  C   UNL     1       0.993  -4.054  -2.907  0.00  0.00    +0.038 A 
ATOM     25  C   UNL     1       0.281  -4.428  -4.034  0.00  0.00    +0.123 A 
ATOM     26  C   UNL     1       0.942  -4.621  -5.236  0.00  0.00    +0.038 A 
ATOM     27  C   UNL     1       2.310  -4.440  -5.308  0.00  0.00    +0.008 A 
ATOM     28  F   UNL     1      -1.056  -4.603  -3.962  0.00  0.00    -0.205 F 
ENDBRANCH  21  22
ENDBRANCH  20  21
ENDBRANCH   1  16
BRANCH   1  29
ATOM     29  N   UNL     1       4.129  -0.403  -1.729  0.00  0.00    +0.392 N 
ATOM     30  H   UNL     1       4.663   0.465  -1.855  0.00  0.00    -0.080 HD
BRANCH  29  32
ATOM     31  C   UNL     1       5.120  -0.267   0.502  0.00  0.00    -0.017 C 
ATOM     32  C   UNL     1       3.851  -0.591  -0.289  0.00  0.00    -0.080 C 
ENDBRANCH  29  32
BRANCH  29  33
ATOM     33  C   UNL     1       2.860  -0.299  -2.479  0.00  0.00    -0.042 C 
BRANCH  33  34
ATOM     34  C   UNL     1       2.170   0.984  -2.093  0.00  0.00    -0.064 A 
ATOM     35  C   UNL     1       2.437   2.148  -2.788  0.00  0.00    +0.002 A 
ATOM     36  C   UNL     1       1.805   3.325  -2.434  0.00  0.00    +0.000 A 
ATOM     37  C   UNL     1       0.905   3.337  -1.384  0.00  0.00    +0.000 A 
ATOM     38  C   UNL     1       0.638   2.173  -0.689  0.00  0.00    +0.000 A 
ATOM     39  C   UNL     1       1.271   0.996  -1.043  0.00  0.00    +0.002 A 
ENDBRANCH  33  34
ENDBRANCH  29  33
ENDBRANCH   1  29
TORSDOF 8
