REMARK  Name = ZINC62825231
REMARK  5 active torsions:
REMARK  status: ('A' for Active; 'I' for Inactive)
REMARK    1  A    between atoms: C_1  and  C_2
REMARK    2  A    between atoms: C_2  and  C_3
REMARK    3  A    between atoms: C_2  and  C_4
REMARK    4  A    between atoms: C_6  and  C_9
REMARK    5  A    between atoms: C_14  and  N_15
REMARK                            x       y       z     vdW  Elec       q    Type
REMARK                         _______ _______ _______ _____ _____    ______ ____
ROOT
ATOM      1  C   UNL     1       0.942  -2.386   4.288  0.00  0.00    +0.062 A 
ATOM      2  C   UNL     1       0.210  -3.574   4.209  0.00  0.00    +0.030 A 
ATOM      3  C   UNL     1       0.003  -4.331   5.343  0.00  0.00    +0.020 A 
ATOM      4  C   UNL     1       0.516  -3.919   6.563  0.00  0.00    +0.032 A 
ATOM      5  C   UNL     1       1.241  -2.747   6.656  0.00  0.00    +0.040 A 
ATOM      6  C   UNL     1       1.465  -1.975   5.523  0.00  0.00    +0.051 A 
ATOM      7 BR   UNL     1       1.936  -2.196   8.326  0.00  0.00    -0.048 Br
ATOM      8 BR   UNL     1      -0.988  -5.937   5.234  0.00  0.00    -0.050 Br
ENDROOT
BRANCH   1  11
ATOM      9  C   UNL     1       0.809  -0.494   1.230  0.00  0.00    +0.175 A 
ATOM     10  N   UNL     1       0.256  -1.231   2.195  0.00  0.00    -0.192 NA
ATOM     11  C   UNL     1       1.168  -1.573   3.078  0.00  0.00    +0.260 A 
ATOM     12  O   UNL     1       2.343  -1.050   2.685  0.00  0.00    -0.333 OA
ATOM     13  N   UNL     1       2.082  -0.357   1.474  0.00  0.00    -0.061 NA
BRANCH   9  15
ATOM     14  C   UNL     1       0.213   1.606   0.053  0.00  0.00    +0.015 C 
ATOM     15  C   UNL     1       0.081   0.082   0.043  0.00  0.00    +0.054 C 
ATOM     16  C   UNL     1       0.688  -0.474  -1.247  0.00  0.00    +0.015 C 
ENDBRANCH   9  15
ENDBRANCH   1  11
BRANCH   6  17
ATOM     17  N   UNL     1       2.200  -0.797   5.613  0.00  0.00    -0.357 N 
ATOM     18  H   UNL     1       2.272  -0.210   4.844  0.00  0.00    +0.142 HD
ATOM     19  H   UNL     1       2.640  -0.562   6.445  0.00  0.00    +0.142 HD
ENDBRANCH   6  17
TORSDOF 3
