REMARK  Name = ZINC59248256
REMARK  11 active torsions:
REMARK  status: ('A' for Active; 'I' for Inactive)
REMARK    1  A    between atoms: C_1  and  C_2
REMARK    2  A    between atoms: C_4  and  C_34
REMARK    3  A    between atoms: C_6  and  N_8
REMARK    4  A    between atoms: C_12  and  C_13
REMARK    5  A    between atoms: C_15  and  C_26
REMARK    6  A    between atoms: C_16  and  O_21
REMARK    7  A    between atoms: C_17  and  O_19
REMARK    8  A    between atoms: O_19  and  C_20
REMARK    9  A    between atoms: O_21  and  C_22
REMARK   10  A    between atoms: C_22  and  C_23
REMARK   11  A    between atoms: C_26  and  C_27
REMARK                            x       y       z     vdW  Elec       q    Type
REMARK                         _______ _______ _______ _____ _____    ______ ____
ROOT
ATOM      1  N   UNL     1       1.546   0.841   4.843  0.00  0.00    -0.188 N 
ATOM      2  C   UNL     1       0.671  -0.188   4.868  0.00  0.00    +0.264 C 
ATOM      3  O   UNL     1      -0.145  -0.341   3.980  0.00  0.00    -0.269 OA
ATOM      4  C   UNL     1       0.740  -1.121   6.011  0.00  0.00    +0.102 C 
ATOM      5  C   UNL     1      -0.120  -2.203   6.115  0.00  0.00    +0.026 C 
ATOM      6  C   UNL     1       1.762  -0.850   7.033  0.00  0.00    +0.276 C 
ATOM      7  O   UNL     1       1.893  -1.654   8.109  0.00  0.00    -0.268 OA
ATOM      8  N   UNL     1       2.551   0.199   6.873  0.00  0.00    -0.123 NA
ATOM      9  C   UNL     1       2.450   1.005   5.820  0.00  0.00    +0.340 C 
ATOM     10  O   UNL     1       3.217   1.948   5.741  0.00  0.00    -0.250 OA
ENDROOT
BRANCH   1  16
ATOM     11  C   UNL     1      -0.759   4.448   2.423  0.00  0.00    +0.044 C 
ATOM     12  C   UNL     1       0.407   3.507   2.579  0.00  0.00    -0.048 A 
ATOM     13  C   UNL     1       1.446   3.537   1.667  0.00  0.00    +0.006 A 
ATOM     14  C   UNL     1       2.518   2.675   1.806  0.00  0.00    -0.048 A 
ATOM     15  C   UNL     1       2.554   1.780   2.857  0.00  0.00    +0.027 A 
ATOM     16  C   UNL     1       1.513   1.747   3.775  0.00  0.00    +0.046 A 
ATOM     17  C   UNL     1       0.441   2.619   3.636  0.00  0.00    +0.027 A 
ATOM     18  C   UNL     1       3.648   2.711   0.809  0.00  0.00    +0.044 C 
ENDBRANCH   1  16
BRANCH   5  19
ATOM     19  C   UNL     1      -0.190  -2.963   7.361  0.00  0.00    -0.020 A 
ATOM     20  C   UNL     1      -0.298  -2.293   8.590  0.00  0.00    +0.015 A 
ATOM     21  C   UNL     1      -0.363  -3.005   9.753  0.00  0.00    +0.002 A 
ATOM     22  C   UNL     1      -0.323  -4.394   9.729  0.00  0.00    +0.166 A 
ATOM     23  C   UNL     1      -0.215  -5.075   8.515  0.00  0.00    +0.162 A 
ATOM     24  C   UNL     1      -0.156  -4.367   7.332  0.00  0.00    +0.057 A 
BRANCH  23  25
ATOM     25  O   UNL     1      -0.176  -6.434   8.497  0.00  0.00    -0.491 OA
ATOM     26  C   UNL     1      -0.066  -7.063   7.218  0.00  0.00    +0.277 C 
ENDBRANCH  23  25
BRANCH  22  27
ATOM     27  O   UNL     1      -0.387  -5.093  10.891  0.00  0.00    -0.477 OA
BRANCH  27  28
ATOM     28  C   UNL     1      -1.688  -5.461  11.355  0.00  0.00    +0.354 C 
BRANCH  28  29
ATOM     29  C   UNL     1      -1.562  -6.224  12.649  0.00  0.00    +0.393 C 
ATOM     30  O   UNL     1      -0.461  -6.433  13.129  0.00  0.00    -0.243 OA
ATOM     31  O   UNL     1      -2.561  -6.633  13.215  0.00  0.00    -0.243 OA
ENDBRANCH  28  29
ENDBRANCH  27  28
ENDBRANCH  22  27
BRANCH  21  32
ATOM     32  C   UNL     1      -0.478  -2.281  11.070  0.00  0.00    +0.065 C 
BRANCH  32  33
ATOM     33  C   UNL     1       0.893  -2.109  11.670  0.00  0.00    -0.030 C 
ATOM     34  C   UNL     1       1.318  -0.915  12.003  0.00  0.00    +0.004 C 
ENDBRANCH  32  33
ENDBRANCH  21  32
ENDBRANCH   5  19
TORSDOF 8
