REMARK  Name = ZINC18276442
REMARK  5 active torsions:
REMARK  status: ('A' for Active; 'I' for Inactive)
REMARK    1  A    between atoms: C_1  and  C_2
REMARK    2  A    between atoms: C_2  and  C_27
REMARK    3  A    between atoms: C_6  and  C_16
REMARK    4  A    between atoms: C_20  and  O_23
REMARK    5  A    between atoms: C_21  and  O_22
REMARK                            x       y       z     vdW  Elec       q    Type
REMARK                         _______ _______ _______ _____ _____    ______ ____
ROOT
ATOM      1  C   UNL     1       2.696  -0.141  -4.404  0.00  0.00    +0.011 C 
ATOM      2  C   UNL     1       3.653  -1.333  -4.477  0.00  0.00    -0.023 C 
ATOM      3  C   UNL     1       5.017  -0.936  -3.914  0.00  0.00    +0.058 C 
ATOM      4  C   UNL     1       4.875  -0.503  -2.465  0.00  0.00    +0.017 C 
ATOM      5  C   UNL     1       3.936  -1.054  -1.675  0.00  0.00    +0.037 C 
ATOM      6  C   UNL     1       3.697  -0.726  -0.222  0.00  0.00    +0.140 C 
ATOM      7  N   UNL     1       4.735   0.072   0.395  0.00  0.00    -0.331 N 
ATOM      8  C   UNL     1       4.983   1.376  -0.029  0.00  0.00    +0.049 A 
ATOM      9  C   UNL     1       4.772   2.462   0.806  0.00  0.00    +0.025 A 
ATOM     10  C   UNL     1       4.988   3.742   0.324  0.00  0.00    +0.002 A 
ATOM     11  C   UNL     1       5.407   3.938  -0.979  0.00  0.00    +0.002 A 
ATOM     12  C   UNL     1       5.636   2.854  -1.810  0.00  0.00    +0.025 A 
ATOM     13  C   UNL     1       5.442   1.574  -1.323  0.00  0.00    +0.052 A 
ATOM     14  N   UNL     1       5.763   0.441  -2.062  0.00  0.00    -0.316 N 
ATOM     15  C   UNL     1       3.058  -2.036  -2.194  0.00  0.00    +0.163 C 
ATOM     16  O   UNL     1       2.231  -2.531  -1.455  0.00  0.00    -0.292 OA
ATOM     17  C   UNL     1       3.114  -2.486  -3.623  0.00  0.00    +0.086 C 
ATOM     18  C   UNL     1       3.805  -1.789  -5.929  0.00  0.00    +0.011 C 
ATOM     19  H   UNL     1       5.266  -0.307   1.113  0.00  0.00    +0.147 HD
ATOM     20  H   UNL     1       6.693   0.316  -2.309  0.00  0.00    +0.152 HD
ENDROOT
BRANCH   6  21
ATOM     21  C   UNL     1       2.392   0.019  -0.109  0.00  0.00    +0.022 A 
ATOM     22  C   UNL     1       1.993   0.871  -1.123  0.00  0.00    +0.009 A 
ATOM     23  C   UNL     1       0.797   1.557  -1.023  0.00  0.00    +0.004 A 
ATOM     24  C   UNL     1      -0.006   1.394   0.092  0.00  0.00    +0.049 A 
ATOM     25  C   UNL     1       0.388   0.542   1.111  0.00  0.00    +0.159 A 
ATOM     26  C   UNL     1       1.593  -0.148   1.010  0.00  0.00    +0.164 A 
BRANCH  26  27
ATOM     27  O   UNL     1       1.984  -0.986   2.007  0.00  0.00    -0.503 OA
ATOM     28  H   UNL     1       1.657  -1.891   1.911  0.00  0.00    +0.292 HD
ENDBRANCH  26  27
BRANCH  25  29
ATOM     29  O   UNL     1      -0.400   0.380   2.207  0.00  0.00    -0.503 OA
ATOM     30  H   UNL     1      -1.045  -0.336   2.125  0.00  0.00    +0.292 HD
ENDBRANCH  25  29
ENDBRANCH   6  21
TORSDOF 3
