REMARK  Name = ZINC03838483
REMARK  16 active torsions:
REMARK  status: ('A' for Active; 'I' for Inactive)
REMARK    1  A    between atoms: C_1  and  C_2
REMARK    2  A    between atoms: C_2  and  C_3
REMARK    3  A    between atoms: C_2  and  C_4
REMARK    4  A    between atoms: C_4  and  C_6
REMARK    5  A    between atoms: C_4  and  N_10
REMARK    6  A    between atoms: C_6  and  O_8
REMARK    7  A    between atoms: O_8  and  C_9
REMARK    8  A    between atoms: C_11  and  C_13
REMARK    9  A    between atoms: C_15  and  N_24
REMARK   10  A    between atoms: C_17  and  O_23
REMARK   11  A    between atoms: C_19  and  O_22
REMARK   12  A    between atoms: C_25  and  C_27
REMARK   13  A    between atoms: C_30  and  S_35
REMARK   14  A    between atoms: C_32  and  O_33
REMARK   15  A    between atoms: O_33  and  C_34
REMARK   16  A    between atoms: S_35  and  C_36
REMARK                            x       y       z     vdW  Elec       q    Type
REMARK                         _______ _______ _______ _____ _____    ______ ____
ROOT
ATOM      1  C   UNL     1      -1.363  10.543  -2.066  0.00  0.00    +0.015 C 
ATOM      2  C   UNL     1      -1.266  10.168  -0.809  0.00  0.00    +0.006 C 
ATOM      3  C   UNL     1       0.004   9.674  -0.180  0.00  0.00    +0.128 C 
ATOM      4  C   UNL     1       1.205  10.066  -1.044  0.00  0.00    +0.167 C 
ATOM      5  C   UNL     1       0.918   9.655  -2.493  0.00  0.00    +0.149 C 
ATOM      6  C   UNL     1      -0.214  10.533  -3.031  0.00  0.00    +0.074 C 
ENDROOT
BRANCH   1   8
ATOM      7  N   UNL     1      -2.817  11.390  -3.836  0.00  0.00    -0.298 N 
ATOM      8  C   UNL     1      -2.674  10.998  -2.555  0.00  0.00    +0.241 C 
ATOM      9  O   UNL     1      -3.629  11.020  -1.802  0.00  0.00    -0.271 OA
ATOM     10  H   UNL     1      -2.055  11.372  -4.436  0.00  0.00    +0.150 HD
BRANCH   7  11
ATOM     11  C   UNL     1      -4.122  11.843  -4.323  0.00  0.00    +0.185 C 
BRANCH  11  13
ATOM     12  C   UNL     1      -5.152   9.698  -3.559  0.00  0.00    +0.009 C 
ATOM     13  C   UNL     1      -4.954  10.633  -4.754  0.00  0.00    +0.014 C 
ATOM     14  C   UNL     1      -6.317  11.106  -5.262  0.00  0.00    +0.009 C 
ENDBRANCH  11  13
BRANCH  11  15
ATOM     15  C   UNL     1      -3.928  12.764  -5.499  0.00  0.00    +0.328 C 
ATOM     16  O   UNL     1      -2.813  13.016  -5.892  0.00  0.00    -0.249 OA
BRANCH  15  17
ATOM     17  O   UNL     1      -4.993  13.304  -6.112  0.00  0.00    -0.467 OA
ATOM     18  C   UNL     1      -4.731  14.182  -7.238  0.00  0.00    +0.280 C 
ENDBRANCH  15  17
ENDBRANCH  11  15
ENDBRANCH   7  11
ENDBRANCH   1   8
BRANCH   3  19
ATOM     19  N   UNL     1      -0.051   8.216  -0.057  0.00  0.00    -0.302 N 
ATOM     20  C   UNL     1      -0.648   7.652   1.012  0.00  0.00    +0.248 C 
ATOM     21  O   UNL     1      -1.141   8.354   1.874  0.00  0.00    -0.270 OA
ATOM     22  H   UNL     1       0.343   7.655  -0.744  0.00  0.00    +0.150 HD
BRANCH  20  23
ATOM     23  C   UNL     1      -0.703   6.186   1.136  0.00  0.00    +0.078 A 
ATOM     24  C   UNL     1      -0.136   5.376   0.146  0.00  0.00    +0.018 A 
ATOM     25  C   UNL     1      -0.186   4.018   0.261  0.00  0.00    +0.015 A 
ATOM     26  C   UNL     1      -0.803   3.426   1.364  0.00  0.00    +0.011 A 
ATOM     27  C   UNL     1      -1.376   4.218   2.353  0.00  0.00    +0.061 A 
ATOM     28  C   UNL     1      -1.325   5.596   2.248  0.00  0.00    +0.133 A 
BRANCH  28  29
ATOM     29  O   UNL     1      -1.877   6.374   3.212  0.00  0.00    -0.494 OA
ATOM     30  C   UNL     1      -2.493   5.703   4.314  0.00  0.00    +0.277 C 
ENDBRANCH  28  29
BRANCH  26  31
ATOM     31  S   UNL     1      -0.862   1.671   1.500  0.00  0.00    -0.128 S 
ATOM     32  C   UNL     1      -0.013   1.086   0.008  0.00  0.00    +0.090 C 
ENDBRANCH  26  31
ENDBRANCH  20  23
ENDBRANCH   3  19
BRANCH   5  33
ATOM     33  O   UNL     1       2.090   9.841  -3.290  0.00  0.00    -0.389 OA
ATOM     34  H   UNL     1       1.972   9.612  -4.222  0.00  0.00    +0.210 HD
ENDBRANCH   5  33
BRANCH   4  35
ATOM     35  O   UNL     1       2.374   9.389  -0.576  0.00  0.00    -0.387 OA
ATOM     36  H   UNL     1       3.174   9.592  -1.079  0.00  0.00    +0.210 HD
ENDBRANCH   4  35
TORSDOF 11
