REMARK  Name = ZINC40701133
REMARK  13 active torsions:
REMARK  status: ('A' for Active; 'I' for Inactive)
REMARK    1  A    between atoms: C_1  and  N_2
REMARK    2  A    between atoms: N_2  and  C_3
REMARK    3  A    between atoms: C_3  and  C_4
REMARK    4  A    between atoms: C_4  and  C_5
REMARK    5  A    between atoms: C_5  and  C_7
REMARK    6  A    between atoms: C_5  and  O_12
REMARK    7  A    between atoms: O_12  and  C_13
REMARK    8  A    between atoms: C_16  and  O_23
REMARK    9  A    between atoms: O_23  and  C_24
REMARK   10  A    between atoms: C_26  and  O_40
REMARK   11  A    between atoms: C_28  and  O_39
REMARK   12  A    between atoms: C_30  and  O_38
REMARK   13  A    between atoms: C_32  and  C_35
REMARK                            x       y       z     vdW  Elec       q    Type
REMARK                         _______ _______ _______ _____ _____    ______ ____
ROOT
ATOM      1  C   UNL     1      -4.749  -1.914   1.192  0.00  0.00    +0.129 A 
ATOM      2  C   UNL     1      -5.442  -2.074   0.026  0.00  0.00    +0.050 A 
ATOM      3  C   UNL     1      -6.800  -1.776  -0.047  0.00  0.00    +0.050 A 
ATOM      4  C   UNL     1      -7.479  -1.316   1.046  0.00  0.00    +0.132 A 
ATOM      5  C   UNL     1      -6.797  -1.139   2.266  0.00  0.00    +0.027 A 
ATOM      6  C   UNL     1      -5.416  -1.446   2.341  0.00  0.00    +0.027 A 
ATOM      7  C   UNL     1      -4.737  -1.274   3.559  0.00  0.00    +0.012 A 
ATOM      8  C   UNL     1      -5.414  -0.820   4.649  0.00  0.00    +0.001 A 
ATOM      9  C   UNL     1      -6.774  -0.523   4.577  0.00  0.00    +0.001 A 
ATOM     10  C   UNL     1      -7.461  -0.668   3.411  0.00  0.00    +0.012 A 
ENDROOT
BRANCH   1  11
ATOM     11  O   UNL     1      -3.423  -2.209   1.244  0.00  0.00    -0.483 OA
BRANCH  11  12
ATOM     12  C   UNL     1      -2.790  -2.569   0.015  0.00  0.00    +0.208 C 
BRANCH  12  13
ATOM     13  C   UNL     1      -3.005  -4.037  -0.250  0.00  0.00    +0.030 A 
ATOM     14  C   UNL     1      -3.181  -4.674  -1.434  0.00  0.00    +0.015 A 
ATOM     15  C   UNL     1      -3.362  -6.044  -1.437  0.00  0.00    +0.008 A 
ATOM     16  C   UNL     1      -3.359  -6.710  -0.257  0.00  0.00    +0.045 A 
ATOM     17  S   UNL     1      -3.087  -5.389   0.912  0.00  0.00    -0.098 S 
ENDBRANCH  12  13
BRANCH  12  18
ATOM     18  C   UNL     1      -1.290  -2.283   0.111  0.00  0.00    +0.031 C 
BRANCH  18  19
ATOM     19  C   UNL     1      -1.066  -0.776   0.255  0.00  0.00    -0.079 C 
BRANCH  19  21
ATOM     20  C   UNL     1       0.588   0.945   0.486  0.00  0.00    -0.101 C 
ATOM     21  N   UNL     1       0.374  -0.501   0.348  0.00  0.00    +0.377 N 
ATOM     22  H   UNL     1       0.833  -0.831  -0.488  0.00  0.00    -0.086 HD
ATOM     23  H   UNL     1       0.756  -0.977   1.151  0.00  0.00    -0.086 HD
ENDBRANCH  19  21
ENDBRANCH  18  19
ENDBRANCH  12  18
ENDBRANCH  11  12
ENDBRANCH   1  11
BRANCH   4  24
ATOM     24  O   UNL     1      -8.805  -1.031   0.956  0.00  0.00    -0.460 OA
BRANCH  24  25
ATOM     25  C   UNL     1      -9.428  -1.234  -0.314  0.00  0.00    +0.340 C 
ATOM     26  C   UNL     1     -10.933  -0.981  -0.190  0.00  0.00    +0.214 C 
ATOM     27  C   UNL     1     -11.166   0.478   0.213  0.00  0.00    +0.180 C 
ATOM     28  C   UNL     1     -10.505   1.394  -0.822  0.00  0.00    +0.186 C 
ATOM     29  C   UNL     1      -9.017   1.049  -0.921  0.00  0.00    +0.266 C 
ATOM     30  O   UNL     1      -8.870  -0.330  -1.269  0.00  0.00    -0.322 OA
BRANCH  29  31
ATOM     31  C   UNL     1      -8.372   1.906  -1.980  0.00  0.00    +0.387 C 
ATOM     32  O   UNL     1      -8.305   3.114  -1.829  0.00  0.00    -0.243 OA
ATOM     33  O   UNL     1      -7.916   1.391  -2.986  0.00  0.00    -0.243 OA
ENDBRANCH  29  31
BRANCH  28  34
ATOM     34  O   UNL     1     -11.127   1.202  -2.095  0.00  0.00    -0.386 OA
ATOM     35  H   UNL     1     -10.757   1.752  -2.799  0.00  0.00    +0.210 HD
ENDBRANCH  28  34
BRANCH  27  36
ATOM     36  O   UNL     1     -12.569   0.742   0.261  0.00  0.00    -0.386 OA
ATOM     37  H   UNL     1     -12.790   1.650   0.510  0.00  0.00    +0.210 HD
ENDBRANCH  27  36
BRANCH  26  38
ATOM     38  O   UNL     1     -11.565  -1.238  -1.446  0.00  0.00    -0.383 OA
ATOM     39  H   UNL     1     -11.453  -2.144  -1.764  0.00  0.00    +0.210 HD
ENDBRANCH  26  38
ENDBRANCH  24  25
ENDBRANCH   4  24
TORSDOF 12
