REMARK  Name = ZINC09043902
REMARK  5 active torsions:
REMARK  status: ('A' for Active; 'I' for Inactive)
REMARK    1  A    between atoms: C_1  and  C_2
REMARK    2  A    between atoms: C_13  and  O_15
REMARK    3  A    between atoms: C_20  and  C_34
REMARK    4  A    between atoms: C_26  and  C_30
REMARK    5  A    between atoms: C_27  and  C_28
REMARK                            x       y       z     vdW  Elec       q    Type
REMARK                         _______ _______ _______ _____ _____    ______ ____
ROOT
ATOM      1  C   UNL     1      -0.019   1.526   0.010  0.00  0.00    +0.014 C 
ATOM      2  C   UNL     1       0.002  -0.004   0.002  0.00  0.00    -0.003 C 
ATOM      3  C   UNL     1       0.595  -0.568  -1.292  0.00  0.00    +0.010 C 
ATOM      4  C   UNL     1       2.102  -0.333  -1.337  0.00  0.00    +0.005 C 
ATOM      5  C   UNL     1       2.755  -1.085  -0.171  0.00  0.00    -0.001 C 
ATOM      6  C   UNL     1       2.228  -0.505   1.140  0.00  0.00    -0.004 C 
ATOM      7  C   UNL     1       0.733  -0.586   1.225  0.00  0.00    +0.001 C 
ATOM      8  C   UNL     1       0.240  -2.035   1.328  0.00  0.00    +0.007 C 
ATOM      9  C   UNL     1      -1.146  -2.059   0.651  0.00  0.00    +0.032 C 
ATOM     10  C   UNL     1      -1.419  -0.620   0.163  0.00  0.00    +0.121 C 
ATOM     11  C   UNL     1       2.862  -1.258   2.313  0.00  0.00    +0.004 C 
ATOM     12  C   UNL     1       4.382  -1.145   2.236  0.00  0.00    +0.005 C 
ATOM     13  C   UNL     1       4.794  -0.273   1.045  0.00  0.00    +0.001 C 
ATOM     14  C   UNL     1       4.275  -0.909  -0.264  0.00  0.00    -0.022 C 
ATOM     15  C   UNL     1       4.569   0.049  -1.421  0.00  0.00    +0.045 C 
ATOM     16  C   UNL     1       6.011   0.474  -1.421  0.00  0.00    -0.007 A 
ATOM     17  C   UNL     1       6.824   0.343  -0.319  0.00  0.00    +0.050 A 
ATOM     18  N   UNL     1       8.089   0.746  -0.364  0.00  0.00    -0.213 NA
ATOM     19  C   UNL     1       8.636   1.274  -1.441  0.00  0.00    +0.289 A 
ATOM     20  C   UNL     1       7.882   1.435  -2.612  0.00  0.00    +0.135 A 
ATOM     21  C   UNL     1       6.534   1.025  -2.600  0.00  0.00    +0.079 A 
ATOM     22  O   UNL     1       9.934   1.663  -1.416  0.00  0.00    -0.264 OA
ATOM     23  C   UNL     1       6.324  -0.242   0.991  0.00  0.00    +0.060 C 
ATOM     24  C   UNL     1       4.944  -2.264  -0.505  0.00  0.00    +0.012 C 
ENDROOT
BRANCH  10  25
ATOM     25  O   UNL     1      -2.103  -0.637  -1.092  0.00  0.00    -0.391 OA
ATOM     26  H   UNL     1      -2.994  -1.011  -1.049  0.00  0.00    +0.210 HD
ENDBRANCH  10  25
BRANCH  21  27
ATOM     27  C   UNL     1       5.715   1.169  -3.766  0.00  0.00    +0.101 C 
ATOM     28  N   UNL     1       5.065   1.283  -4.691  0.00  0.00    -0.191 NA
ENDBRANCH  21  27
BRANCH  20  29
ATOM     29  C   UNL     1       8.467   2.003  -3.790  0.00  0.00    +0.106 C 
ATOM     30  N   UNL     1       8.931   2.453  -4.724  0.00  0.00    -0.191 NA
ENDBRANCH  20  29
TORSDOF 3
