REMARK  Name = ZINC07976207
REMARK  11 active torsions:
REMARK  status: ('A' for Active; 'I' for Inactive)
REMARK    1  A    between atoms: C_1  and  C_2
REMARK    2  A    between atoms: C_2  and  O_3
REMARK    3  A    between atoms: O_3  and  C_4
REMARK    4  A    between atoms: C_7  and  C_10
REMARK    5  A    between atoms: N_12  and  C_13
REMARK    6  A    between atoms: C_13  and  C_14
REMARK    7  A    between atoms: N_16  and  C_17
REMARK    8  A    between atoms: C_17  and  C_19
REMARK    9  A    between atoms: C_17  and  C_20
REMARK   10  A    between atoms: C_23  and  S_26
REMARK   11  A    between atoms: S_26  and  N_29
REMARK                            x       y       z     vdW  Elec       q    Type
REMARK                         _______ _______ _______ _____ _____    ______ ____
ROOT
ATOM      1  C   UNL     1       3.879  -4.758  -0.060  0.00  0.00    +0.231 C 
ATOM      2  O   UNL     1       4.787  -3.954  -0.064  0.00  0.00    -0.274 OA
ATOM      3  N   UNL     1       4.147  -6.079  -0.069  0.00  0.00    -0.307 N 
ATOM      4  H   UNL     1       3.420  -6.721  -0.065  0.00  0.00    +0.149 HD
ENDROOT
BRANCH   3   5
ATOM      5  C   UNL     1       5.536  -6.544  -0.085  0.00  0.00    +0.100 C 
ATOM      6  C   UNL     1       6.074  -6.594   1.347  0.00  0.00    +0.033 C 
BRANCH   5   7
ATOM      7  C   UNL     1       5.598  -7.921  -0.693  0.00  0.00    -0.027 A 
ATOM      8  C   UNL     1       4.623  -8.854  -0.391  0.00  0.00    +0.007 A 
ATOM      9  C   UNL     1       4.677 -10.116  -0.952  0.00  0.00    +0.029 A 
ATOM     10  C   UNL     1       5.711 -10.449  -1.808  0.00  0.00    +0.105 A 
ATOM     11  C   UNL     1       6.688  -9.517  -2.106  0.00  0.00    +0.029 A 
ATOM     12  C   UNL     1       6.631  -8.254  -1.548  0.00  0.00    +0.007 A 
BRANCH  10  13
ATOM     13  S   UNL     1       5.783 -12.060  -2.518  0.00  0.00    +0.056 S 
ATOM     14  O   UNL     1       4.456 -12.567  -2.510  0.00  0.00    -0.153 OA
ATOM     15  O   UNL     1       6.548 -11.944  -3.710  0.00  0.00    -0.153 OA
BRANCH  13  16
ATOM     16  N   UNL     1       6.660 -13.011  -1.484  0.00  0.00    -0.204 NA
ATOM     17  H   UNL     1       7.017 -12.636  -0.664  0.00  0.00    +0.144 HD
ATOM     18  H   UNL     1       6.815 -13.945  -1.698  0.00  0.00    +0.144 HD
ENDBRANCH  13  16
ENDBRANCH  10  13
ENDBRANCH   5   7
ENDBRANCH   3   5
BRANCH   1  19
ATOM     19  C   UNL     1       2.450  -4.279  -0.043  0.00  0.00    +0.200 C 
BRANCH  19  22
ATOM     20  C   UNL     1       1.247  -2.160  -0.021  0.00  0.00    +0.244 C 
ATOM     21  O   UNL     1       0.204  -2.785  -0.014  0.00  0.00    -0.270 OA
ATOM     22  N   UNL     1       2.425  -2.814  -0.036  0.00  0.00    -0.303 N 
ATOM     23  H   UNL     1       3.257  -2.316  -0.041  0.00  0.00    +0.150 HD
BRANCH  20  27
ATOM     24  C   UNL     1       1.177   2.086   0.002  0.00  0.00    +0.121 A 
ATOM     25  C   UNL     1      -0.017   1.373   0.010  0.00  0.00    +0.046 A 
ATOM     26  C   UNL     1       0.002  -0.004   0.002  0.00  0.00    +0.016 A 
ATOM     27  C   UNL     1       1.223  -0.684  -0.013  0.00  0.00    +0.037 A 
ATOM     28  C   UNL     1       2.420   0.036  -0.021  0.00  0.00    +0.016 A 
ATOM     29  C   UNL     1       2.393   1.413  -0.013  0.00  0.00    +0.046 A 
BRANCH  24  30
ATOM     30  O   UNL     1       1.154   3.443   0.009  0.00  0.00    -0.492 OA
BRANCH  30  32
ATOM     31  C   UNL     1       2.190   5.626   0.011  0.00  0.00    +0.048 C 
ATOM     32  C   UNL     1       2.416   4.113   0.001  0.00  0.00    +0.225 C 
ENDBRANCH  30  32
ENDBRANCH  24  30
ENDBRANCH  20  27
ENDBRANCH  19  22
ENDBRANCH   1  19
TORSDOF 9
