REMARK  Name = ZINC12122472
REMARK  8 active torsions:
REMARK  status: ('A' for Active; 'I' for Inactive)
REMARK    1  A    between atoms: C_1  and  N_2
REMARK    2  A    between atoms: N_2  and  C_3
REMARK    3  A    between atoms: C_3  and  C_5
REMARK    4  A    between atoms: C_3  and  C_13
REMARK    5  A    between atoms: C_5  and  C_6
REMARK    6  A    between atoms: C_18  and  C_19
REMARK    7  A    between atoms: C_18  and  N_65
REMARK    8  A    between atoms: C_29  and  C_31
REMARK                            x       y       z     vdW  Elec       q    Type
REMARK                         _______ _______ _______ _____ _____    ______ ____
ROOT
ATOM      1  C   UNL     1      -0.077   2.164  -1.155  0.00  0.00    +0.083 C 
ENDROOT
BRANCH   1   2
ATOM      2  C   UNL     1      -0.070   2.308   0.368  0.00  0.00    +0.006 C 
ATOM      3  C   UNL     1       1.347   2.069   0.897  0.00  0.00    -0.013 C 
ATOM      4  C   UNL     1       1.336   2.152   2.426  0.00  0.00    -0.078 C 
ATOM      5  C   UNL     1      -0.961   1.384   2.510  0.00  0.00    -0.078 C 
ATOM      6  C   UNL     1      -1.019   1.276   0.984  0.00  0.00    -0.013 C 
ATOM      7  N   UNL     1       0.423   1.119   2.957  0.00  0.00    +0.382 N 
ATOM      8  H   UNL     1       0.717   0.201   2.603  0.00  0.00    -0.081 HD
BRANCH   7   9
ATOM      9  C   UNL     1       0.482   1.104   4.434  0.00  0.00    -0.042 C 
BRANCH   9  10
ATOM     10  C   UNL     1       1.923   1.141   4.871  0.00  0.00    -0.055 A 
ATOM     11  C   UNL     1       2.449   2.278   5.404  0.00  0.00    +0.002 A 
ATOM     12  C   UNL     1       3.778   2.325   5.819  0.00  0.00    +0.002 A 
ATOM     13  C   UNL     1       4.592   1.241   5.694  0.00  0.00    +0.028 A 
ATOM     14  C   UNL     1       4.088   0.051   5.143  0.00  0.00    +0.071 A 
ATOM     15  C   UNL     1       2.734   0.003   4.727  0.00  0.00    +0.002 A 
ATOM     16  C   UNL     1       2.230  -1.190   4.176  0.00  0.00    +0.012 A 
ATOM     17  C   UNL     1       3.077  -2.256   4.064  0.00  0.00    +0.020 A 
ATOM     18  C   UNL     1       4.398  -2.142   4.493  0.00  0.00    +0.111 A 
ATOM     19  N   UNL     1       4.863  -1.030   5.007  0.00  0.00    -0.255 NA
ENDBRANCH   9  10
ENDBRANCH   7   9
ENDBRANCH   1   2
BRANCH   1  21
ATOM     20  C   UNL     1      -2.135   1.621  -2.538  0.00  0.00    +0.132 C 
ATOM     21  N   UNL     1      -1.393   2.544  -1.675  0.00  0.00    -0.294 N 
ATOM     22  C   UNL     1      -1.922   3.743  -1.359  0.00  0.00    +0.282 C 
ATOM     23  O   UNL     1      -3.060   4.013  -1.694  0.00  0.00    -0.267 OA
BRANCH  22  24
ATOM     24  C   UNL     1      -1.125   4.722  -0.612  0.00  0.00    +0.189 A 
ATOM     25  C   UNL     1      -1.578   5.908  -0.109  0.00  0.00    +0.054 A 
ATOM     26  C   UNL     1      -0.486   6.519   0.527  0.00  0.00    +0.042 A 
ATOM     27  C   UNL     1       0.572   5.690   0.386  0.00  0.00    +0.196 A 
ATOM     28  O   UNL     1       0.181   4.605  -0.296  0.00  0.00    -0.458 OA
ENDBRANCH  22  24
ENDBRANCH   1  21
BRANCH   1  29
ATOM     29  C   UNL     1       0.992   3.076  -1.759  0.00  0.00    +0.059 C 
BRANCH  29  30
ATOM     30  C   UNL     1       1.269   2.654  -3.179  0.00  0.00    -0.027 A 
ATOM     31  C   UNL     1       2.252   1.718  -3.443  0.00  0.00    +0.005 A 
ATOM     32  C   UNL     1       2.503   1.327  -4.745  0.00  0.00    +0.000 A 
ATOM     33  C   UNL     1       1.778   1.879  -5.785  0.00  0.00    +0.001 A 
ATOM     34  C   UNL     1       0.800   2.819  -5.523  0.00  0.00    +0.020 A 
ATOM     35  C   UNL     1       0.544   3.207  -4.219  0.00  0.00    +0.044 A 
ATOM     36 CL   UNL     1      -0.685   4.388  -3.889  0.00  0.00    -0.083 Cl
ENDBRANCH  29  30
ENDBRANCH   1  29
TORSDOF 7
