REMARK  Name = ZINC36436095
REMARK  4 active torsions:
REMARK  status: ('A' for Active; 'I' for Inactive)
REMARK    1  A    between atoms: C_4  and  C_7
REMARK    2  A    between atoms: C_10  and  C_13
REMARK    3  A    between atoms: N_17  and  C_18
REMARK    4  A    between atoms: N_25  and  N_26
REMARK                            x       y       z     vdW  Elec       q    Type
REMARK                         _______ _______ _______ _____ _____    ______ ____
ROOT
ATOM      1  C   UNL     1       7.316  -2.782   0.454  0.00  0.00    +0.082 A 
ATOM      2  C   UNL     1       8.477  -2.078   0.590  0.00  0.00    +0.077 A 
ATOM      3  S   UNL     1       9.690  -3.351   0.273  0.00  0.00    -0.060 S 
ATOM      4  C   UNL     1       8.546  -4.694  -0.010  0.00  0.00    +0.164 A 
ATOM      5  N   UNL     1       8.810  -6.016  -0.318  0.00  0.00    -0.293 N 
ATOM      6  N   UNL     1       7.372  -4.088   0.159  0.00  0.00    -0.211 N 
ATOM      7  H   UNL     1       8.081  -6.620  -0.528  0.00  0.00    +0.154 HD
ENDROOT
BRANCH   6   8
ATOM      8  N   UNL     1       6.186  -4.820   0.022  0.00  0.00    -0.169 NA
ATOM      9  C   UNL     1       5.692  -5.457   1.045  0.00  0.00    +0.069 C 
ATOM     10  C   UNL     1       6.294  -5.309   2.430  0.00  0.00    +0.058 C 
ATOM     11  C   UNL     1       7.201  -6.478   2.724  0.00  0.00    +0.007 C 
ATOM     12  C   UNL     1       6.487  -7.819   2.790  0.00  0.00    +0.005 C 
ATOM     13  C   UNL     1       6.047  -8.287   1.408  0.00  0.00    +0.036 C 
ATOM     14  C   UNL     1       4.671  -7.719   1.101  0.00  0.00    -0.038 A 
ATOM     15  C   UNL     1       4.524  -6.342   0.903  0.00  0.00    +0.001 A 
ATOM     16  C   UNL     1       3.271  -5.815   0.578  0.00  0.00    +0.010 A 
ATOM     17  C   UNL     1       2.182  -6.657   0.481  0.00  0.00    +0.001 A 
ATOM     18  C   UNL     1       2.326  -8.015   0.705  0.00  0.00    +0.000 A 
ATOM     19  C   UNL     1       3.581  -8.554   1.014  0.00  0.00    +0.004 A 
ENDBRANCH   6   8
BRANCH   5  20
ATOM     20  C   UNL     1      10.128  -6.482  -0.327  0.00  0.00    +0.051 A 
ATOM     21  C   UNL     1      11.104  -5.821   0.408  0.00  0.00    +0.025 A 
ATOM     22  C   UNL     1      12.406  -6.284   0.397  0.00  0.00    +0.002 A 
ATOM     23  C   UNL     1      12.737  -7.404  -0.344  0.00  0.00    +0.002 A 
ATOM     24  C   UNL     1      11.768  -8.065  -1.076  0.00  0.00    +0.022 A 
ATOM     25  C   UNL     1      10.463  -7.610  -1.066  0.00  0.00    +0.062 A 
ATOM     26 CL   UNL     1       9.245  -8.444  -1.980  0.00  0.00    -0.082 Cl
ENDBRANCH   5  20
BRANCH   1  30
ATOM     27  C   UNL     1       3.560  -0.857   0.976  0.00  0.00    -0.018 A 
ATOM     28  C   UNL     1       3.656  -1.990   0.168  0.00  0.00    +0.009 A 
ATOM     29  C   UNL     1       4.872  -2.613  -0.002  0.00  0.00    +0.010 A 
ATOM     30  C   UNL     1       6.008  -2.112   0.635  0.00  0.00    +0.001 A 
ATOM     31  C   UNL     1       5.911  -0.979   1.444  0.00  0.00    +0.010 A 
ATOM     32  C   UNL     1       4.696  -0.353   1.609  0.00  0.00    +0.009 A 
BRANCH  27  36
ATOM     33  C   UNL     1      -0.196   1.066   1.499  0.00  0.00    +0.000 A 
ATOM     34  C   UNL     1      -0.103  -0.060   0.700  0.00  0.00    +0.001 A 
ATOM     35  C   UNL     1       1.113  -0.688   0.527  0.00  0.00    +0.008 A 
ATOM     36  C   UNL     1       2.250  -0.186   1.158  0.00  0.00    -0.018 A 
ATOM     37  C   UNL     1       2.151   0.949   1.961  0.00  0.00    +0.008 A 
ATOM     38  C   UNL     1       0.929   1.569   2.127  0.00  0.00    +0.001 A 
ENDBRANCH  27  36
ENDBRANCH   1  30
TORSDOF 4
