REMARK  Name = ZINC35867377
REMARK  7 active torsions:
REMARK  status: ('A' for Active; 'I' for Inactive)
REMARK    1  A    between atoms: C_1  and  C_2
REMARK    2  A    between atoms: C_2  and  C_3
REMARK    3  A    between atoms: C_3  and  C_5
REMARK    4  A    between atoms: C_3  and  C_6
REMARK    5  A    between atoms: C_16  and  C_20
REMARK    6  A    between atoms: N_29  and  C_30
REMARK    7  A    between atoms: C_35  and  C_36
REMARK                            x       y       z     vdW  Elec       q    Type
REMARK                         _______ _______ _______ _____ _____    ______ ____
ROOT
ATOM      1  C   UNL     1       0.830  -1.985  -1.367  0.00  0.00    +0.135 A 
ATOM      2  N   UNL     1       2.055  -2.479  -1.401  0.00  0.00    -0.216 NA
ATOM      3  C   UNL     1       2.291  -3.780  -1.434  0.00  0.00    +0.133 A 
ATOM      4  C   UNL     1       1.190  -4.683  -1.432  0.00  0.00    +0.051 A 
ATOM      5  C   UNL     1       1.205  -6.146  -1.463  0.00  0.00    -0.025 A 
ATOM      6  C   UNL     1       0.010  -6.770  -1.455  0.00  0.00    -0.004 A 
ATOM      7  S   UNL     1      -1.192  -5.468  -1.407  0.00  0.00    -0.073 S 
ATOM      8  C   UNL     1      -0.084  -4.082  -1.396  0.00  0.00    +0.114 A 
ATOM      9  N   UNL     1      -0.228  -2.772  -1.359  0.00  0.00    -0.224 NA
ATOM     10  C   UNL     1      -0.243  -8.247  -1.480  0.00  0.00    +0.046 C 
ATOM     11  C   UNL     1       1.069  -8.969  -1.141  0.00  0.00    -0.009 C 
ATOM     12  C   UNL     1       2.194  -8.365  -1.986  0.00  0.00    +0.008 C 
ATOM     13  C   UNL     1       2.503  -6.948  -1.502  0.00  0.00    +0.037 C 
ATOM     14  C   UNL     1       0.929 -10.460  -1.455  0.00  0.00    +0.008 C 
ATOM     15  N   UNL     1       3.588  -4.258  -1.469  0.00  0.00    -0.312 N 
ATOM     16  C   UNL     1       4.331  -4.311  -2.737  0.00  0.00    +0.125 C 
ATOM     17  C   UNL     1       5.645  -3.539  -2.567  0.00  0.00    +0.128 C 
ATOM     18  N   UNL     1       6.306  -4.001  -1.339  0.00  0.00    -0.282 N 
ATOM     19  C   UNL     1       5.564  -3.947  -0.072  0.00  0.00    +0.128 C 
ATOM     20  C   UNL     1       4.251  -4.714  -0.240  0.00  0.00    +0.125 C 
ATOM     21  C   UNL     1       7.571  -4.466  -1.374  0.00  0.00    +0.307 C 
ATOM     22  O   UNL     1       8.207  -4.420  -2.409  0.00  0.00    -0.252 OA
ATOM     23  N   UNL     1       8.130  -4.981  -0.261  0.00  0.00    -0.269 N 
ATOM     24  H   UNL     1       7.613  -5.046   0.557  0.00  0.00    +0.156 HD
ENDROOT
BRANCH  23  25
ATOM     25  C   UNL     1       9.459  -5.421  -0.285  0.00  0.00    +0.038 A 
ATOM     26  C   UNL     1      10.069  -5.724  -1.495  0.00  0.00    +0.023 A 
ATOM     27  C   UNL     1      11.380  -6.158  -1.516  0.00  0.00    +0.002 A 
ATOM     28  C   UNL     1      12.085  -6.291  -0.333  0.00  0.00    +0.000 A 
ATOM     29  C   UNL     1      11.480  -5.990   0.873  0.00  0.00    +0.005 A 
ATOM     30  C   UNL     1      10.171  -5.550   0.900  0.00  0.00    -0.029 A 
ATOM     31  C   UNL     1       9.514  -5.216   2.215  0.00  0.00    +0.045 C 
ENDBRANCH  23  25
BRANCH   1  32
ATOM     32  C   UNL     1       0.638  -0.491  -1.329  0.00  0.00    +0.054 C 
ATOM     33  C   UNL     1      -0.171  -0.050  -2.550  0.00  0.00    +0.015 C 
BRANCH  32  35
ATOM     34  C   UNL     1      -0.198   1.419   0.047  0.00  0.00    +0.004 C 
ATOM     35  C   UNL     1      -0.113  -0.105  -0.053  0.00  0.00    +0.007 C 
ENDBRANCH  32  35
ENDBRANCH   1  32
TORSDOF 3
