REMARK  Name = ZINC08757681
REMARK  6 active torsions:
REMARK  status: ('A' for Active; 'I' for Inactive)
REMARK    1  A    between atoms: C_4  and  N_7
REMARK    2  A    between atoms: N_7  and  C_8
REMARK    3  A    between atoms: C_8  and  N_25
REMARK    4  A    between atoms: N_15  and  C_18
REMARK    5  A    between atoms: N_25  and  C_26
REMARK    6  A    between atoms: C_26  and  C_27
REMARK                            x       y       z     vdW  Elec       q    Type
REMARK                         _______ _______ _______ _____ _____    ______ ____
ROOT
ATOM      1  C   UNL     1       3.819   5.463  -1.655  0.00  0.00    +0.106 C 
ATOM      2  C   UNL     1       4.014   6.067  -2.904  0.00  0.00    +0.135 C 
ATOM      3  C   UNL     1       3.044   5.939  -3.936  0.00  0.00    +0.260 C 
ATOM      4  O   UNL     1       2.025   5.299  -3.751  0.00  0.00    -0.269 OA
ATOM      5  N   UNL     1       3.272   6.535  -5.124  0.00  0.00    -0.235 N 
ATOM      6  C   UNL     1       4.394   7.243  -5.337  0.00  0.00    +0.320 C 
ATOM      7  O   UNL     1       4.563   7.766  -6.421  0.00  0.00    -0.251 OA
ATOM      8  N   UNL     1       5.335   7.388  -4.389  0.00  0.00    -0.190 N 
ATOM      9  C   UNL     1       5.184   6.829  -3.172  0.00  0.00    +0.267 C 
ATOM     10  O   UNL     1       6.039   6.970  -2.317  0.00  0.00    -0.269 OA
ATOM     11  H   UNL     1       2.616   6.453  -5.834  0.00  0.00    +0.159 HD
ENDROOT
BRANCH   8  12
ATOM     12  C   UNL     1       6.486   8.137  -4.668  0.00  0.00    +0.047 A 
ATOM     13  C   UNL     1       7.727   7.516  -4.711  0.00  0.00    +0.024 A 
ATOM     14  C   UNL     1       8.860   8.256  -4.986  0.00  0.00    +0.003 A 
ATOM     15  C   UNL     1       8.760   9.616  -5.218  0.00  0.00    +0.020 A 
ATOM     16  C   UNL     1       7.525  10.239  -5.175  0.00  0.00    +0.043 A 
ATOM     17  C   UNL     1       6.387   9.501  -4.906  0.00  0.00    +0.044 A 
ATOM     18 CL   UNL     1       7.404  11.946  -5.466  0.00  0.00    -0.083 Cl
ENDBRANCH   8  12
BRANCH   1  19
ATOM     19  N   UNL     1       4.691   5.708  -0.636  0.00  0.00    -0.302 N 
ATOM     20  H   UNL     1       4.506   6.416   0.001  0.00  0.00    +0.153 HD
BRANCH  19  24
ATOM     21  C   UNL     1       8.146   3.413  -0.257  0.00  0.00    +0.000 A 
ATOM     22  C   UNL     1       7.833   4.354   0.707  0.00  0.00    +0.002 A 
ATOM     23  C   UNL     1       6.689   5.116   0.585  0.00  0.00    +0.023 A 
ATOM     24  C   UNL     1       5.851   4.937  -0.509  0.00  0.00    +0.032 A 
ATOM     25  C   UNL     1       6.165   3.988  -1.472  0.00  0.00    +0.023 A 
ATOM     26  C   UNL     1       7.314   3.232  -1.347  0.00  0.00    +0.002 A 
ENDBRANCH  19  24
ENDBRANCH   1  19
BRANCH   1  27
ATOM     27  N   UNL     1       2.758   4.632  -1.458  0.00  0.00    -0.327 N 
ATOM     28  H   UNL     1       2.184   4.394  -2.203  0.00  0.00    +0.148 HD
BRANCH  27  29
ATOM     29  C   UNL     1       2.483   4.099  -0.122  0.00  0.00    +0.139 C 
BRANCH  29  30
ATOM     30  C   UNL     1       1.196   3.315  -0.149  0.00  0.00    -0.016 A 
ATOM     31  C   UNL     1       1.228   1.933  -0.121  0.00  0.00    +0.006 A 
ATOM     32  C   UNL     1       0.048   1.214  -0.145  0.00  0.00    +0.000 A 
ATOM     33  C   UNL     1      -1.165   1.876  -0.203  0.00  0.00    +0.001 A 
ATOM     34  C   UNL     1      -1.198   3.257  -0.225  0.00  0.00    +0.015 A 
ATOM     35  C   UNL     1      -0.017   3.977  -0.201  0.00  0.00    +0.023 A 
ATOM     36 BR   UNL     1      -0.061   5.867  -0.239  0.00  0.00    -0.050 Br
ENDBRANCH  29  30
ENDBRANCH  27  29
ENDBRANCH   1  27
TORSDOF 6
