REMARK  Name = ZINC14459724
REMARK  10 active torsions:
REMARK  status: ('A' for Active; 'I' for Inactive)
REMARK    1  A    between atoms: C_1  and  C_2
REMARK    2  A    between atoms: C_2  and  O_3
REMARK    3  A    between atoms: O_3  and  C_4
REMARK    4  A    between atoms: C_7  and  N_10
REMARK    5  A    between atoms: N_10  and  S_11
REMARK    6  A    between atoms: S_11  and  C_14
REMARK    7  A    between atoms: C_27  and  C_30
REMARK    8  A    between atoms: C_34  and  O_37
REMARK    9  A    between atoms: C_35  and  O_36
REMARK   10  A    between atoms: O_37  and  C_38
REMARK                            x       y       z     vdW  Elec       q    Type
REMARK                         _______ _______ _______ _____ _____    ______ ____
ROOT
ATOM      1  C   UNL     1       4.800  -0.220   1.888  0.00  0.00    +0.109 A 
ATOM      2  C   UNL     1       5.071  -0.259   0.532  0.00  0.00    +0.030 A 
ATOM      3  C   UNL     1       4.589   0.740  -0.290  0.00  0.00    +0.025 A 
ATOM      4  C   UNL     1       3.838   1.779   0.244  0.00  0.00    +0.031 A 
ATOM      5  C   UNL     1       3.565   1.823   1.603  0.00  0.00    -0.018 A 
ATOM      6  C   UNL     1       4.053   0.812   2.419  0.00  0.00    +0.034 A 
ATOM      7  C   UNL     1       2.763   2.923   2.223  0.00  0.00    +0.049 C 
ATOM      8  C   UNL     1       1.369   2.460   2.572  0.00  0.00    -0.023 C 
ATOM      9  C   UNL     1       0.506   3.426   2.370  0.00  0.00    -0.030 C 
ATOM     10  C   UNL     1       1.211   4.670   1.862  0.00  0.00    +0.033 C 
ATOM     11  C   UNL     1       2.540   4.114   1.271  0.00  0.00    +0.029 C 
ATOM     12  C   UNL     1       2.233   3.605  -0.140  0.00  0.00    +0.109 C 
ATOM     13  N   UNL     1       3.356   2.783  -0.603  0.00  0.00    -0.336 N 
ATOM     14  H   UNL     1       3.755   2.931  -1.475  0.00  0.00    +0.147 HD
ENDROOT
BRANCH  12  15
ATOM     15  C   UNL     1       0.976   2.775  -0.115  0.00  0.00    +0.018 A 
ATOM     16  C   UNL     1       1.049   1.417   0.138  0.00  0.00    +0.009 A 
ATOM     17  C   UNL     1      -0.102   0.652   0.162  0.00  0.00    +0.004 A 
ATOM     18  C   UNL     1      -1.331   1.241  -0.072  0.00  0.00    +0.049 A 
ATOM     19  C   UNL     1      -1.412   2.601  -0.321  0.00  0.00    +0.162 A 
ATOM     20  C   UNL     1      -0.253   3.371  -0.344  0.00  0.00    +0.163 A 
BRANCH  20  21
ATOM     21  O   UNL     1      -0.327   4.706  -0.593  0.00  0.00    -0.503 OA
ATOM     22  H   UNL     1      -0.262   4.936  -1.530  0.00  0.00    +0.292 HD
ENDBRANCH  20  21
BRANCH  19  23
ATOM     23  O   UNL     1      -2.621   3.182  -0.546  0.00  0.00    -0.491 OA
ATOM     24  C   UNL     1      -3.768   2.330  -0.506  0.00  0.00    +0.277 C 
ENDBRANCH  19  23
ENDBRANCH  12  15
BRANCH   1  25
ATOM     25  S   UNL     1       5.411  -1.493   2.942  0.00  0.00    +0.072 S 
ATOM     26  O   UNL     1       4.494  -1.601   4.022  0.00  0.00    -0.150 OA
ATOM     27  O   UNL     1       5.734  -2.594   2.103  0.00  0.00    -0.150 OA
BRANCH  25  28
ATOM     28  N   UNL     1       6.838  -0.953   3.586  0.00  0.00    -0.216 N 
ATOM     29  H   UNL     1       6.926  -0.841   4.545  0.00  0.00    +0.174 HD
BRANCH  28  33
ATOM     30  C   UNL     1      10.054  -0.076   1.083  0.00  0.00    +0.121 A 
ATOM     31  C   UNL     1       9.699   0.808   2.091  0.00  0.00    +0.047 A 
ATOM     32  C   UNL     1       8.633   0.518   2.921  0.00  0.00    +0.028 A 
ATOM     33  C   UNL     1       7.918  -0.658   2.745  0.00  0.00    +0.048 A 
ATOM     34  C   UNL     1       8.277  -1.546   1.739  0.00  0.00    +0.028 A 
ATOM     35  C   UNL     1       9.339  -1.252   0.907  0.00  0.00    +0.047 A 
BRANCH  30  36
ATOM     36  O   UNL     1      11.104   0.210   0.267  0.00  0.00    -0.492 OA
BRANCH  36  38
ATOM     37  C   UNL     1      12.614  -0.254  -1.561  0.00  0.00    +0.048 C 
ATOM     38  C   UNL     1      11.414  -0.745  -0.750  0.00  0.00    +0.225 C 
ENDBRANCH  36  38
ENDBRANCH  30  36
ENDBRANCH  28  33
ENDBRANCH  25  28
ENDBRANCH   1  25
TORSDOF 8
