REMARK  Name = ZINC46086845
REMARK  10 active torsions:
REMARK  status: ('A' for Active; 'I' for Inactive)
REMARK    1  A    between atoms: C_1  and  C_2
REMARK    2  A    between atoms: C_2  and  O_3
REMARK    3  A    between atoms: O_3  and  C_4
REMARK    4  A    between atoms: C_7  and  C_10
REMARK    5  A    between atoms: C_10  and  C_12
REMARK    6  A    between atoms: C_13  and  N_21
REMARK    7  A    between atoms: C_22  and  C_24
REMARK    8  A    between atoms: C_25  and  C_35
REMARK    9  A    between atoms: C_30  and  O_33
REMARK   10  A    between atoms: O_33  and  C_34
REMARK                            x       y       z     vdW  Elec       q    Type
REMARK                         _______ _______ _______ _____ _____    ______ ____
ROOT
ATOM      1  C   UNL     1       1.376  -6.547  -3.201  0.00  0.00    +0.197 A 
ATOM      2  C   UNL     1       1.712  -7.876  -3.366  0.00  0.00    +0.091 A 
ATOM      3  C   UNL     1       2.622  -7.917  -4.517  0.00  0.00    +0.042 A 
ATOM      4  C   UNL     1       3.302  -8.940  -5.180  0.00  0.00    +0.013 A 
ATOM      5  C   UNL     1       4.097  -8.642  -6.251  0.00  0.00    +0.001 A 
ATOM      6  C   UNL     1       4.232  -7.330  -6.683  0.00  0.00    +0.004 A 
ATOM      7  C   UNL     1       3.569  -6.306  -6.041  0.00  0.00    +0.047 A 
ATOM      8  C   UNL     1       2.754  -6.585  -4.949  0.00  0.00    +0.138 A 
ATOM      9  O   UNL     1       1.997  -5.809  -4.149  0.00  0.00    -0.450 OA
ENDROOT
BRANCH   2  10
ATOM     10  N   UNL     1       1.280  -8.951  -2.602  0.00  0.00    -0.278 N 
ATOM     11  C   UNL     1       1.235 -10.186  -3.140  0.00  0.00    +0.252 C 
ATOM     12  O   UNL     1       1.509 -10.348  -4.315  0.00  0.00    -0.270 OA
ATOM     13  H   UNL     1       1.010  -8.813  -1.681  0.00  0.00    +0.155 HD
BRANCH  11  14
ATOM     14  C   UNL     1       0.856 -11.337  -2.308  0.00  0.00    +0.085 A 
ATOM     15  C   UNL     1      -0.397 -11.831  -2.112  0.00  0.00    +0.115 A 
ATOM     16  O   UNL     1      -0.345 -12.886  -1.290  0.00  0.00    -0.459 OA
ATOM     17  C   UNL     1       0.921 -13.146  -0.903  0.00  0.00    +0.136 A 
ATOM     18  C   UNL     1       1.756 -12.201  -1.518  0.00  0.00    +0.036 A 
ATOM     19  C   UNL     1       3.129 -12.231  -1.303  0.00  0.00    +0.058 A 
ATOM     20  C   UNL     1       3.671 -13.203  -0.481  0.00  0.00    +0.121 A 
ATOM     21  C   UNL     1       2.844 -14.143   0.126  0.00  0.00    +0.049 A 
ATOM     22  C   UNL     1       1.481 -14.112  -0.076  0.00  0.00    +0.050 A 
ATOM     23  C   UNL     1      -1.655 -11.273  -2.726  0.00  0.00    +0.087 C 
BRANCH  20  24
ATOM     24  O   UNL     1       5.013 -13.239  -0.265  0.00  0.00    -0.495 OA
ATOM     25  C   UNL     1       5.504 -14.269   0.595  0.00  0.00    +0.277 C 
ENDBRANCH  20  24
ENDBRANCH  11  14
ENDBRANCH   2  10
BRANCH   1  26
ATOM     26  C   UNL     1       0.512  -6.038  -2.201  0.00  0.00    +0.230 C 
ATOM     27  O   UNL     1       0.073  -6.780  -1.340  0.00  0.00    -0.283 OA
BRANCH  26  31
ATOM     28  C   UNL     1      -0.548  -1.924  -2.202  0.00  0.00    +0.121 A 
ATOM     29  C   UNL     1      -1.151  -2.795  -1.302  0.00  0.00    +0.046 A 
ATOM     30  C   UNL     1      -0.810  -4.129  -1.298  0.00  0.00    +0.015 A 
ATOM     31  C   UNL     1       0.143  -4.607  -2.202  0.00  0.00    +0.026 A 
ATOM     32  C   UNL     1       0.746  -3.729  -3.105  0.00  0.00    +0.015 A 
ATOM     33  C   UNL     1       0.396  -2.397  -3.106  0.00  0.00    +0.046 A 
BRANCH  28  34
ATOM     34  O   UNL     1      -0.886  -0.610  -2.202  0.00  0.00    -0.492 OA
BRANCH  34  36
ATOM     35  C   UNL     1      -2.113   1.311  -1.397  0.00  0.00    +0.048 C 
ATOM     36  C   UNL     1      -1.863  -0.191  -1.247  0.00  0.00    +0.225 C 
ENDBRANCH  34  36
ENDBRANCH  28  34
ENDBRANCH  26  31
ENDBRANCH   1  26
TORSDOF 7
