REMARK  Name = ZINC35524282
REMARK  14 active torsions:
REMARK  status: ('A' for Active; 'I' for Inactive)
REMARK    1  A    between atoms: C_1  and  C_2
REMARK    2  A    between atoms: C_2  and  O_3
REMARK    3  A    between atoms: O_3  and  N_4
REMARK    4  A    between atoms: C_5  and  C_7
REMARK    5  A    between atoms: C_7  and  N_8
REMARK    6  A    between atoms: C_11  and  C_22
REMARK    7  A    between atoms: N_13  and  C_14
REMARK    8  A    between atoms: C_17  and  C_21
REMARK    9  A    between atoms: C_19  and  C_20
REMARK   10  A    between atoms: C_22  and  C_23
REMARK   11  A    between atoms: C_22  and  C_24
REMARK   12  A    between atoms: C_22  and  C_25
REMARK   13  A    between atoms: C_26  and  C_32
REMARK   14  A    between atoms: C_37  and  C_38
REMARK                            x       y       z     vdW  Elec       q    Type
REMARK                         _______ _______ _______ _____ _____    ______ ____
ROOT
ATOM      1  N   UNL     1      -2.259  -5.438   3.171  0.00  0.00    -0.246 N 
ATOM      2  C   UNL     1      -3.479  -5.876   3.708  0.00  0.00    +0.136 A 
ATOM      3  C   UNL     1      -4.308  -6.745   3.085  0.00  0.00    +0.034 A 
ATOM      4  C   UNL     1      -5.419  -6.942   3.907  0.00  0.00    +0.075 A 
ATOM      5  N   UNL     1      -5.262  -6.218   4.989  0.00  0.00    -0.169 NA
ATOM      6  N   UNL     1      -4.040  -5.533   4.892  0.00  0.00    -0.217 N 
ATOM      7  C   UNL     1      -4.042  -7.376   1.742  0.00  0.00    +0.112 C 
ATOM      8  S   UNL     1      -4.280  -6.107   0.446  0.00  0.00    -0.138 S 
ATOM      9  C   UNL     1      -3.515  -4.639   1.212  0.00  0.00    +0.166 C 
ATOM     10  C   UNL     1      -2.239  -5.002   1.907  0.00  0.00    +0.231 C 
ATOM     11  O   UNL     1      -1.183  -4.903   1.319  0.00  0.00    -0.274 OA
ENDROOT
BRANCH   6  12
ATOM     12  C   UNL     1      -3.502  -4.657   5.844  0.00  0.00    +0.070 A 
ATOM     13  C   UNL     1      -2.805  -5.159   6.935  0.00  0.00    +0.028 A 
ATOM     14  C   UNL     1      -2.275  -4.293   7.872  0.00  0.00    +0.005 A 
ATOM     15  C   UNL     1      -2.438  -2.928   7.723  0.00  0.00    -0.050 A 
ATOM     16  C   UNL     1      -3.131  -2.425   6.638  0.00  0.00    +0.008 A 
ATOM     17  C   UNL     1      -3.658  -3.286   5.694  0.00  0.00    -0.025 A 
ATOM     18  C   UNL     1      -4.408  -2.737   4.508  0.00  0.00    +0.046 C 
ATOM     19  C   UNL     1      -1.859  -1.986   8.748  0.00  0.00    +0.044 C 
ENDBRANCH   6  12
BRANCH   7  20
ATOM     20  C   UNL     1      -5.001  -8.517   1.520  0.00  0.00    -0.027 A 
ATOM     21  C   UNL     1      -6.162  -8.314   0.797  0.00  0.00    +0.005 A 
ATOM     22  C   UNL     1      -7.042  -9.360   0.594  0.00  0.00    +0.000 A 
ATOM     23  C   UNL     1      -6.760 -10.611   1.113  0.00  0.00    +0.000 A 
ATOM     24  C   UNL     1      -5.599 -10.814   1.835  0.00  0.00    +0.003 A 
ATOM     25  C   UNL     1      -4.718  -9.768   2.035  0.00  0.00    -0.046 A 
ATOM     26  C   UNL     1      -3.449  -9.991   2.818  0.00  0.00    +0.044 C 
ENDBRANCH   7  20
BRANCH   4  27
ATOM     27  C   UNL     1      -6.596  -7.832   3.603  0.00  0.00    +0.007 C 
ATOM     28  C   UNL     1      -6.126  -9.286   3.515  0.00  0.00    +0.017 C 
ATOM     29  C   UNL     1      -7.637  -7.699   4.715  0.00  0.00    +0.017 C 
ATOM     30  C   UNL     1      -7.218  -7.416   2.268  0.00  0.00    +0.017 C 
ENDBRANCH   4  27
BRANCH   1  31
ATOM     31  C   UNL     1      -1.036  -5.453   3.978  0.00  0.00    +0.212 C 
BRANCH  31  33
ATOM     32  N   UNL     1       1.028  -4.108   4.192  0.00  0.00    -0.193 N 
ATOM     33  C   UNL     1      -0.149  -4.306   3.567  0.00  0.00    +0.253 C 
ATOM     34  O   UNL     1      -0.495  -3.562   2.674  0.00  0.00    -0.272 OA
ATOM     35  H   UNL     1       1.266  -4.649   4.961  0.00  0.00    +0.182 HD
BRANCH  32  36
ATOM     36  O   UNL     1       1.917  -3.109   3.727  0.00  0.00    -0.280 OA
BRANCH  36  38
ATOM     37  C   UNL     1       4.006  -1.904   3.893  0.00  0.00    +0.036 C 
ATOM     38  C   UNL     1       3.126  -3.009   4.482  0.00  0.00    +0.187 C 
ENDBRANCH  36  38
ENDBRANCH  32  36
ENDBRANCH  31  33
ENDBRANCH   1  31
TORSDOF 7
