REMARK  Name = ZINC63195679
REMARK  7 active torsions:
REMARK  status: ('A' for Active; 'I' for Inactive)
REMARK    1  A    between atoms: C_1  and  C_2
REMARK    2  A    between atoms: C_7  and  N_8
REMARK    3  A    between atoms: C_9  and  C_11
REMARK    4  A    between atoms: C_11  and  N_12
REMARK    5  A    between atoms: C_17  and  C_19
REMARK    6  A    between atoms: C_19  and  C_21
REMARK    7  A    between atoms: C_19  and  N_22
REMARK                            x       y       z     vdW  Elec       q    Type
REMARK                         _______ _______ _______ _____ _____    ______ ____
ROOT
ATOM      1  C   UNL     1       0.031  -0.169   4.867  0.00  0.00    +0.181 C 
ENDROOT
BRANCH   1   2
ATOM      2  N   UNL     1      -0.168  -1.009   6.055  0.00  0.00    -0.293 NA
ATOM      3  C   UNL     1      -1.357  -1.857   5.907  0.00  0.00    +0.085 C 
ATOM      4  C   UNL     1      -1.451  -2.819   7.094  0.00  0.00    +0.015 C 
ATOM      5  C   UNL     1      -1.534  -2.013   8.393  0.00  0.00    +0.003 C 
ATOM      6  C   UNL     1      -0.307  -1.102   8.499  0.00  0.00    +0.017 C 
ATOM      7  C   UNL     1      -0.247  -0.190   7.271  0.00  0.00    +0.042 C 
BRANCH   7   8
ATOM      8  C   UNL     1       0.989   0.707   7.364  0.00  0.00    -0.061 C 
ATOM      9  C   UNL     1       0.933   1.520   8.659  0.00  0.00    -0.013 C 
BRANCH   8  10
ATOM     10  N   UNL     1       2.199  -0.125   7.359  0.00  0.00    +0.381 N 
ATOM     11  H   UNL     1       2.180  -0.752   8.149  0.00  0.00    -0.090 HD
ATOM     12  H   UNL     1       2.236  -0.661   6.504  0.00  0.00    -0.090 HD
ATOM     13  H   UNL     1       3.014   0.467   7.419  0.00  0.00    -0.090 HD
ENDBRANCH   8  10
ENDBRANCH   7   8
ENDBRANCH   1   2
BRANCH   1  15
ATOM     14  N   UNL     1       0.752  -0.465   2.519  0.00  0.00    -0.284 N 
ATOM     15  C   UNL     1       0.503  -1.025   3.719  0.00  0.00    +0.231 C 
ATOM     16  O   UNL     1       0.658  -2.217   3.876  0.00  0.00    -0.274 OA
ATOM     17  H   UNL     1       0.691   0.497   2.410  0.00  0.00    +0.155 HD
BRANCH  14  24
ATOM     18  C   UNL     1       0.074   0.440  -0.092  0.00  0.00    +0.046 C 
ATOM     19  C   UNL     1       0.787  -0.867   0.138  0.00  0.00    -0.028 A 
ATOM     20  C   UNL     1       1.137  -1.662  -0.936  0.00  0.00    +0.020 A 
ATOM     21  C   UNL     1       1.791  -2.863  -0.726  0.00  0.00    +0.018 A 
ATOM     22  C   UNL     1       2.098  -3.271   0.560  0.00  0.00    +0.017 A 
ATOM     23  C   UNL     1       1.751  -2.480   1.638  0.00  0.00    +0.024 A 
ATOM     24  C   UNL     1       1.099  -1.271   1.429  0.00  0.00    +0.036 A 
ATOM     25 BR   UNL     1       2.267  -3.949  -2.199  0.00  0.00    -0.050 Br
ENDBRANCH  14  24
ENDBRANCH   1  15
TORSDOF 5
