REMARK  Name = ZINC13465326
REMARK  12 active torsions:
REMARK  status: ('A' for Active; 'I' for Inactive)
REMARK    1  A    between atoms: C_1  and  C_2
REMARK    2  A    between atoms: N_5  and  C_11
REMARK    3  A    between atoms: C_7  and  C_10
REMARK    4  A    between atoms: C_11  and  C_12
REMARK    5  A    between atoms: C_11  and  C_13
REMARK    6  A    between atoms: C_11  and  C_14
REMARK    7  A    between atoms: C_14  and  N_15
REMARK    8  A    between atoms: N_15  and  C_16
REMARK    9  A    between atoms: C_19  and  N_34
REMARK   10  A    between atoms: C_21  and  S_22
REMARK   11  A    between atoms: S_22  and  N_25
REMARK   12  A    between atoms: C_28  and  C_31
REMARK                            x       y       z     vdW  Elec       q    Type
REMARK                         _______ _______ _______ _____ _____    ______ ____
ROOT
ATOM      1  C   UNL     1       6.618   0.403  -1.297  0.00  0.00    +0.054 A 
ATOM      2  C   UNL     1       7.062   1.363  -2.197  0.00  0.00    +0.027 A 
ATOM      3  C   UNL     1       8.257   2.018  -1.972  0.00  0.00    +0.034 A 
ATOM      4  C   UNL     1       9.011   1.718  -0.852  0.00  0.00    +0.128 A 
ATOM      5  C   UNL     1       8.573   0.762   0.045  0.00  0.00    +0.063 A 
ATOM      6  C   UNL     1       7.376   0.108  -0.171  0.00  0.00    +0.128 A 
ENDROOT
BRANCH   6   7
ATOM      7  S   UNL     1       6.814  -1.105   0.978  0.00  0.00    +0.063 S 
ATOM      8  O   UNL     1       6.396  -2.226   0.212  0.00  0.00    -0.153 OA
ATOM      9  O   UNL     1       7.809  -1.199   1.988  0.00  0.00    -0.153 OA
BRANCH   7  10
ATOM     10  N   UNL     1       5.456  -0.497   1.706  0.00  0.00    -0.176 NA
ATOM     11  C   UNL     1       5.567   0.439   2.834  0.00  0.00    +0.110 C 
ATOM     12  C   UNL     1       4.744  -0.103   4.007  0.00  0.00    +0.032 C 
ATOM     13  C   UNL     1       3.309  -0.360   3.542  0.00  0.00    +0.105 C 
ATOM     14  C   UNL     1       3.312  -1.410   2.429  0.00  0.00    +0.032 C 
ATOM     15  C   UNL     1       4.119  -0.879   1.234  0.00  0.00    +0.110 C 
BRANCH  13  16
ATOM     16  C   UNL     1       2.487  -0.861   4.702  0.00  0.00    +0.359 C 
ATOM     17  O   UNL     1       1.341  -0.474   4.849  0.00  0.00    -0.246 OA
ATOM     18  O   UNL     1       2.970  -1.653   5.494  0.00  0.00    -0.246 OA
ENDBRANCH  13  16
ENDBRANCH   7  10
ENDBRANCH   6   7
BRANCH   4  19
ATOM     19  N   UNL     1      10.292   2.422  -0.614  0.00  0.00    +0.056 N 
ATOM     20  O   UNL     1      10.677   3.258  -1.399  0.00  0.00    -0.126 OA
ATOM     21  O   UNL     1      10.952   2.161   0.364  0.00  0.00    -0.126 OA
ENDBRANCH   4  19
BRANCH   1  22
ATOM     22  N   UNL     1       5.410  -0.261  -1.521  0.00  0.00    -0.341 N 
ATOM     23  H   UNL     1       5.066  -0.880  -0.858  0.00  0.00    +0.146 HD
BRANCH  22  24
ATOM     24  C   UNL     1       4.661  -0.022  -2.757  0.00  0.00    +0.123 C 
BRANCH  24  25
ATOM     25  C   UNL     1       3.458  -0.966  -2.816  0.00  0.00    +0.032 C 
ATOM     26  C   UNL     1       2.755  -0.813  -4.166  0.00  0.00    +0.029 C 
ATOM     27  C   UNL     1       2.482  -0.619  -1.690  0.00  0.00    +0.029 C 
BRANCH  25  31
ATOM     28  C   UNL     1       3.863  -4.837  -1.106  0.00  0.00    +0.039 C 
ATOM     29  C   UNL     1       3.302  -4.718  -2.524  0.00  0.00    +0.130 C 
ATOM     30  C   UNL     1       2.791  -3.294  -2.755  0.00  0.00    +0.116 C 
ATOM     31  N   UNL     1       3.916  -2.353  -2.657  0.00  0.00    -0.291 NA
ATOM     32  C   UNL     1       4.956  -2.681  -3.643  0.00  0.00    +0.116 C 
ATOM     33  C   UNL     1       5.446  -4.111  -3.404  0.00  0.00    +0.130 C 
ATOM     34  O   UNL     1       4.334  -5.009  -3.471  0.00  0.00    -0.371 OA
ATOM     35  C   UNL     1       6.471  -4.486  -4.476  0.00  0.00    +0.039 C 
ENDBRANCH  25  31
ENDBRANCH  24  25
ENDBRANCH  22  24
ENDBRANCH   1  22
TORSDOF 8
