REMARK  Name = ZINC54201411
REMARK  7 active torsions:
REMARK  status: ('A' for Active; 'I' for Inactive)
REMARK    1  A    between atoms: C_1  and  C_2
REMARK    2  A    between atoms: C_7  and  C_8
REMARK    3  A    between atoms: C_16  and  C_29
REMARK    4  A    between atoms: C_19  and  C_21
REMARK    5  A    between atoms: C_24  and  O_27
REMARK    6  A    between atoms: O_27  and  C_28
REMARK    7  A    between atoms: C_34  and  O_35
REMARK                            x       y       z     vdW  Elec       q    Type
REMARK                         _______ _______ _______ _____ _____    ______ ____
ROOT
ATOM      1  C   UNL     1       0.025   0.010   2.489  0.00  0.00    +0.028 C 
ATOM      2  C   UNL     1      -0.057  -0.677   3.655  0.00  0.00    +0.079 C 
ATOM      3  C   UNL     1      -0.178  -0.177   5.046  0.00  0.00    +0.276 C 
ATOM      4  O   UNL     1      -0.220   1.016   5.301  0.00  0.00    -0.267 OA
ATOM      5  N   UNL     1      -0.238  -1.090   5.990  0.00  0.00    -0.152 NA
ATOM      6  C   UNL     1      -0.193  -2.387   5.728  0.00  0.00    +0.174 C 
ATOM      7  S   UNL     1      -0.057  -2.442   3.948  0.00  0.00    -0.050 S 
ATOM      8  N   UNL     1      -0.245  -3.434   6.608  0.00  0.00    -0.195 N 
ATOM      9  C   UNL     1      -0.372  -3.318   8.069  0.00  0.00    +0.139 C 
ATOM     10  C   UNL     1      -0.382  -4.783   8.549  0.00  0.00    +0.087 C 
ATOM     11  C   UNL     1      -0.257  -5.585   7.274  0.00  0.00    +0.069 C 
ATOM     12  N   UNL     1      -0.194  -4.784   6.266  0.00  0.00    -0.182 NA
ENDROOT
BRANCH   1  19
ATOM     13  C   UNL     1      -0.583   1.287  -0.035  0.00  0.00    +0.044 C 
ATOM     14  C   UNL     1       0.006  -0.099   0.004  0.00  0.00    -0.043 A 
ATOM     15  C   UNL     1       0.268  -0.773  -1.170  0.00  0.00    +0.004 A 
ATOM     16  C   UNL     1       0.809  -2.047  -1.135  0.00  0.00    +0.000 A 
ATOM     17  C   UNL     1       1.092  -2.654   0.076  0.00  0.00    +0.001 A 
ATOM     18  C   UNL     1       0.836  -1.994   1.259  0.00  0.00    +0.008 A 
ATOM     19  C   UNL     1       0.295  -0.704   1.233  0.00  0.00    -0.021 A 
ENDBRANCH   1  19
BRANCH  11  20
ATOM     20  C   UNL     1      -0.220  -7.056   7.195  0.00  0.00    -0.002 A 
ATOM     21  C   UNL     1      -0.307  -7.824   8.359  0.00  0.00    +0.013 A 
ATOM     22  C   UNL     1      -0.272  -9.199   8.280  0.00  0.00    +0.046 A 
ATOM     23  C   UNL     1      -0.148  -9.823   7.046  0.00  0.00    +0.120 A 
ATOM     24  C   UNL     1      -0.061  -9.064   5.885  0.00  0.00    +0.046 A 
ATOM     25  C   UNL     1      -0.101  -7.689   5.954  0.00  0.00    +0.013 A 
BRANCH  23  26
ATOM     26  O   UNL     1      -0.113 -11.179   6.973  0.00  0.00    -0.495 OA
ATOM     27  C   UNL     1       0.015 -11.755   5.671  0.00  0.00    +0.277 C 
ENDBRANCH  23  26
ENDBRANCH  11  20
BRANCH   9  28
ATOM     28  C   UNL     1      -1.659  -2.627   8.437  0.00  0.00    +0.017 A 
ATOM     29  C   UNL     1      -2.727  -2.641   7.560  0.00  0.00    +0.009 A 
ATOM     30  C   UNL     1      -3.908  -2.007   7.897  0.00  0.00    +0.001 A 
ATOM     31  C   UNL     1      -4.025  -1.357   9.112  0.00  0.00    +0.004 A 
ATOM     32  C   UNL     1      -2.961  -1.341   9.993  0.00  0.00    +0.046 A 
ATOM     33  C   UNL     1      -1.776  -1.981   9.659  0.00  0.00    +0.122 A 
BRANCH  33  34
ATOM     34  O   UNL     1      -0.730  -1.971  10.527  0.00  0.00    -0.506 OA
ATOM     35  H   UNL     1      -0.131  -1.221  10.411  0.00  0.00    +0.292 HD
ENDBRANCH  33  34
ENDBRANCH   9  28
TORSDOF 5
