REMARK  Name = ZINC13733560
REMARK  6 active torsions:
REMARK  status: ('A' for Active; 'I' for Inactive)
REMARK    1  A    between atoms: C_1  and  C_2
REMARK    2  A    between atoms: C_2  and  C_3
REMARK    3  A    between atoms: C_8  and  N_9
REMARK    4  A    between atoms: C_37  and  C_39
REMARK    5  A    between atoms: C_39  and  C_40
REMARK    6  A    between atoms: C_39  and  C_41
REMARK                            x       y       z     vdW  Elec       q    Type
REMARK                         _______ _______ _______ _____ _____    ______ ____
ROOT
ATOM      1  N   UNL     1      -1.202   0.085  -1.654  0.00  0.00    -0.210 N 
ATOM      2  C   UNL     1      -0.710  -0.826  -2.502  0.00  0.00    +0.232 C 
ATOM      3  O   UNL     1      -0.617  -2.014  -2.277  0.00  0.00    -0.274 OA
ATOM      4  C   UNL     1      -0.289  -0.144  -3.784  0.00  0.00    +0.107 C 
ATOM      5  C   UNL     1      -0.611   1.353  -3.516  0.00  0.00    +0.121 C 
ATOM      6  C   UNL     1      -1.203   1.337  -2.124  0.00  0.00    +0.233 C 
ATOM      7  O   UNL     1      -1.612   2.309  -1.527  0.00  0.00    -0.274 OA
ATOM      8  C   UNL     1       0.757   2.046  -3.506  0.00  0.00    +0.118 C 
ATOM      9  C   UNL     1       0.802   3.158  -2.498  0.00  0.00    +0.005 A 
ATOM     10  C   UNL     1       0.619   3.205  -1.133  0.00  0.00    +0.008 A 
ATOM     11  C   UNL     1       0.726   4.410  -0.462  0.00  0.00    +0.000 A 
ATOM     12  C   UNL     1       1.016   5.566  -1.163  0.00  0.00    +0.002 A 
ATOM     13  C   UNL     1       1.200   5.523  -2.530  0.00  0.00    +0.026 A 
ATOM     14  C   UNL     1       1.095   4.313  -3.212  0.00  0.00    +0.057 A 
ATOM     15  N   UNL     1       1.238   4.026  -4.579  0.00  0.00    -0.262 N 
ATOM     16  C   UNL     1       1.050   2.699  -4.833  0.00  0.00    +0.143 A 
ATOM     17  N   UNL     1       1.129   2.188  -6.028  0.00  0.00    -0.231 NA
ATOM     18  C   UNL     1       1.406   2.941  -7.118  0.00  0.00    +0.078 A 
ATOM     19  C   UNL     1       1.487   2.384  -8.396  0.00  0.00    +0.028 A 
ATOM     20  C   UNL     1       1.772   3.190  -9.475  0.00  0.00    +0.002 A 
ATOM     21  C   UNL     1       1.981   4.553  -9.309  0.00  0.00    +0.001 A 
ATOM     22  C   UNL     1       1.907   5.126  -8.058  0.00  0.00    +0.015 A 
ATOM     23  C   UNL     1       1.619   4.327  -6.953  0.00  0.00    +0.065 A 
ATOM     24  C   UNL     1       1.524   4.880  -5.596  0.00  0.00    +0.266 A 
ATOM     25  O   UNL     1       1.698   6.067  -5.389  0.00  0.00    -0.267 OA
ATOM     26  N   UNL     1       1.743   0.995  -3.196  0.00  0.00    -0.296 NA
ATOM     27  C   UNL     1       1.246  -0.217  -3.921  0.00  0.00    +0.070 C 
ATOM     28  H   UNL     1       2.663   1.257  -3.515  0.00  0.00    +0.123 HD
ENDROOT
BRANCH   1  34
ATOM     29  C   UNL     1      -3.039  -0.458  -0.180  0.00  0.00    -0.026 A 
ATOM     30  C   UNL     1      -3.508  -0.790   1.076  0.00  0.00    +0.005 A 
ATOM     31  C   UNL     1      -2.627  -0.907   2.135  0.00  0.00    +0.000 A 
ATOM     32  C   UNL     1      -1.275  -0.692   1.941  0.00  0.00    +0.002 A 
ATOM     33  C   UNL     1      -0.800  -0.360   0.688  0.00  0.00    +0.024 A 
ATOM     34  C   UNL     1      -1.681  -0.247  -0.379  0.00  0.00    +0.047 A 
BRANCH  29  36
ATOM     35  C   UNL     1      -4.065  -1.659  -2.092  0.00  0.00    +0.009 C 
ATOM     36  C   UNL     1      -3.999  -0.331  -1.335  0.00  0.00    +0.033 C 
ENDBRANCH  29  36
ENDBRANCH   1  34
BRANCH  27  37
ATOM     37  C   UNL     1       1.776  -1.506  -3.291  0.00  0.00    +0.001 C 
ATOM     38  C   UNL     1       1.273  -2.709  -4.092  0.00  0.00    +0.009 C 
ATOM     39  C   UNL     1       3.306  -1.489  -3.304  0.00  0.00    +0.009 C 
ENDBRANCH  27  37
TORSDOF 3
