REMARK  Name = ZINC47968564
REMARK  11 active torsions:
REMARK  status: ('A' for Active; 'I' for Inactive)
REMARK    1  A    between atoms: C_1  and  C_2
REMARK    2  A    between atoms: C_2  and  O_3
REMARK    3  A    between atoms: O_3  and  C_4
REMARK    4  A    between atoms: N_6  and  C_7
REMARK    5  A    between atoms: C_7  and  C_9
REMARK    6  A    between atoms: C_7  and  C_13
REMARK    7  A    between atoms: C_9  and  C_10
REMARK    8  A    between atoms: C_10  and  C_11
REMARK    9  A    between atoms: C_10  and  C_12
REMARK   10  A    between atoms: C_13  and  N_14
REMARK   11  A    between atoms: N_17  and  C_18
REMARK                            x       y       z     vdW  Elec       q    Type
REMARK                         _______ _______ _______ _____ _____    ______ ____
ROOT
ATOM      1  N   UNL     1       3.914  -3.441  -2.918  0.00  0.00    -0.297 N 
ATOM      2  C   UNL     1       5.105  -3.591  -3.531  0.00  0.00    +0.304 C 
ATOM      3  O   UNL     1       5.183  -4.239  -4.557  0.00  0.00    -0.253 OA
ATOM      4  N   UNL     1       6.209  -3.023  -3.007  0.00  0.00    -0.269 N 
ATOM      5  H   UNL     1       3.852  -2.924  -2.099  0.00  0.00    +0.150 HD
ATOM      6  H   UNL     1       6.137  -2.451  -2.227  0.00  0.00    +0.156 HD
ENDROOT
BRANCH   4   7
ATOM      7  C   UNL     1       7.462  -3.258  -3.590  0.00  0.00    +0.038 A 
ATOM      8  C   UNL     1       8.592  -3.356  -2.790  0.00  0.00    +0.027 A 
ATOM      9  C   UNL     1       9.828  -3.587  -3.364  0.00  0.00    +0.051 A 
ATOM     10  C   UNL     1       9.942  -3.723  -4.739  0.00  0.00    +0.162 A 
ATOM     11  C   UNL     1       8.812  -3.628  -5.542  0.00  0.00    +0.164 A 
ATOM     12  C   UNL     1       7.572  -3.400  -4.966  0.00  0.00    +0.072 A 
ATOM     13  O   UNL     1       8.904  -3.767  -6.893  0.00  0.00    -0.485 OA
ATOM     14  C   UNL     1      10.208  -3.628  -7.468  0.00  0.00    +0.270 C 
ATOM     15  C   UNL     1      11.193  -4.451  -6.627  0.00  0.00    +0.270 C 
ATOM     16  O   UNL     1      11.169  -3.946  -5.287  0.00  0.00    -0.485 OA
ENDBRANCH   4   7
BRANCH   1  17
ATOM     17  C   UNL     1       2.714  -4.058  -3.487  0.00  0.00    +0.128 C 
BRANCH  17  18
ATOM     18  C   UNL     1       1.507  -3.736  -2.604  0.00  0.00    +0.093 C 
BRANCH  18  21
ATOM     19  C   UNL     1       0.774  -1.776  -1.357  0.00  0.00    +0.401 C 
ATOM     20  O   UNL     1       0.307  -2.520  -0.518  0.00  0.00    -0.226 OA
ATOM     21  N   UNL     1       1.395  -2.285  -2.439  0.00  0.00    -0.277 N 
ATOM     22  H   UNL     1       1.768  -1.691  -3.109  0.00  0.00    +0.152 HD
BRANCH  19  23
ATOM     23  O   UNL     1       0.671  -0.442  -1.205  0.00  0.00    -0.451 OA
BRANCH  23  25
ATOM     24  C   UNL     1      -0.018   1.558  -0.037  0.00  0.00    +0.048 C 
ATOM     25  C   UNL     1       0.000   0.028  -0.035  0.00  0.00    +0.230 C 
ENDBRANCH  23  25
ENDBRANCH  19  23
ENDBRANCH  18  21
BRANCH  18  26
ATOM     26  C   UNL     1       0.235  -4.274  -3.263  0.00  0.00    +0.027 C 
BRANCH  26  27
ATOM     27  C   UNL     1      -0.954  -4.064  -2.323  0.00  0.00    -0.015 C 
ATOM     28  C   UNL     1      -2.244  -4.487  -3.030  0.00  0.00    +0.007 C 
ATOM     29  C   UNL     1      -0.763  -4.909  -1.062  0.00  0.00    +0.007 C 
ENDBRANCH  26  27
ENDBRANCH  18  26
ENDBRANCH  17  18
ENDBRANCH   1  17
TORSDOF 8
