REMARK  Name = ZINC36698864
REMARK  16 active torsions:
REMARK  status: ('A' for Active; 'I' for Inactive)
REMARK    1  A    between atoms: C_1  and  C_2
REMARK    2  A    between atoms: C_2  and  C_3
REMARK    3  A    between atoms: C_3  and  C_4
REMARK    4  A    between atoms: C_4  and  N_5
REMARK    5  A    between atoms: N_5  and  C_6
REMARK    6  A    between atoms: N_5  and  S_8
REMARK    7  A    between atoms: C_6  and  C_7
REMARK    8  A    between atoms: S_8  and  C_11
REMARK    9  A    between atoms: C_14  and  C_17
REMARK   10  A    between atoms: N_19  and  C_20
REMARK   11  A    between atoms: C_20  and  C_21
REMARK   12  A    between atoms: C_21  and  N_22
REMARK   13  A    between atoms: N_22  and  C_23
REMARK   14  A    between atoms: N_22  and  C_24
REMARK   15  A    between atoms: C_29  and  C_35
REMARK   16  A    between atoms: C_30  and  C_34
REMARK                            x       y       z     vdW  Elec       q    Type
REMARK                         _______ _______ _______ _____ _____    ______ ____
ROOT
ATOM      1  C   UNL     1      -0.001   2.014  -7.038  0.00  0.00    +0.252 C 
ATOM      2  O   UNL     1      -1.001   2.699  -6.949  0.00  0.00    -0.270 OA
ATOM      3  N   UNL     1       0.948   2.321  -7.945  0.00  0.00    -0.248 N 
ATOM      4  C   UNL     1       0.850   3.490  -8.680  0.00  0.00    +0.168 A 
ATOM      5  N   UNL     1       1.662   3.953  -9.602  0.00  0.00    -0.224 NA
ATOM      6  C   UNL     1       1.440   5.121 -10.244  0.00  0.00    +0.081 A 
ATOM      7  C   UNL     1       2.229   5.728 -11.249  0.00  0.00    +0.032 A 
ATOM      8  C   UNL     1       1.858   6.926 -11.800  0.00  0.00    -0.045 A 
ATOM      9  C   UNL     1       0.705   7.584 -11.398  0.00  0.00    -0.046 A 
ATOM     10  C   UNL     1      -0.090   7.019 -10.418  0.00  0.00    +0.021 A 
ATOM     11  C   UNL     1       0.273   5.819  -9.860  0.00  0.00    +0.041 A 
ATOM     12  S   UNL     1      -0.416   4.750  -8.619  0.00  0.00    -0.052 S 
ATOM     13  C   UNL     1       0.322   8.901 -12.023  0.00  0.00    +0.044 C 
ATOM     14  C   UNL     1       2.724   7.544 -12.868  0.00  0.00    +0.044 C 
ENDROOT
BRANCH   1  18
ATOM     15  C   UNL     1       0.505  -1.347  -4.491  0.00  0.00    +0.106 A 
ATOM     16  C   UNL     1      -0.175  -0.232  -4.034  0.00  0.00    +0.029 A 
ATOM     17  C   UNL     1      -0.342   0.863  -4.856  0.00  0.00    +0.015 A 
ATOM     18  C   UNL     1       0.176   0.844  -6.152  0.00  0.00    +0.037 A 
ATOM     19  C   UNL     1       0.861  -0.284  -6.607  0.00  0.00    +0.015 A 
ATOM     20  C   UNL     1       1.026  -1.370  -5.773  0.00  0.00    +0.029 A 
BRANCH  15  21
ATOM     21  S   UNL     1       0.715  -2.742  -3.435  0.00  0.00    +0.061 S 
ATOM     22  O   UNL     1       0.917  -3.865  -4.281  0.00  0.00    -0.153 OA
ATOM     23  O   UNL     1      -0.334  -2.687  -2.478  0.00  0.00    -0.153 OA
BRANCH  21  24
ATOM     24  N   UNL     1       2.128  -2.516  -2.602  0.00  0.00    -0.177 NA
BRANCH  24  25
ATOM     25  C   UNL     1       3.390  -3.017  -3.151  0.00  0.00    +0.106 C 
ATOM     26  C   UNL     1       3.691  -4.397  -2.564  0.00  0.00    +0.022 C 
ENDBRANCH  24  25
BRANCH  24  27
ATOM     27  C   UNL     1       2.116  -1.817  -1.315  0.00  0.00    +0.109 C 
BRANCH  27  28
ATOM     28  C   UNL     1       2.437  -0.337  -1.535  0.00  0.00    +0.017 C 
BRANCH  28  30
ATOM     29  C   UNL     1       2.745   1.873  -0.412  0.00  0.00    +0.004 C 
ATOM     30  C   UNL     1       2.424   0.394  -0.191  0.00  0.00    -0.002 C 
ENDBRANCH  28  30
ENDBRANCH  27  28
ENDBRANCH  24  27
ENDBRANCH  21  24
ENDBRANCH  15  21
ENDBRANCH   1  18
BRANCH   3  31
ATOM     31  C   UNL     1       2.082   1.417  -8.154  0.00  0.00    +0.097 C 
BRANCH  31  32
ATOM     32  C   UNL     1       1.869   0.622  -9.444  0.00  0.00    -0.060 C 
BRANCH  32  33
ATOM     33  N   UNL     1       3.062  -0.191  -9.720  0.00  0.00    +0.377 N 
ATOM     34  C   UNL     1       3.221  -1.201  -8.665  0.00  0.00    -0.097 C 
ATOM     35  C   UNL     1       2.908  -0.859 -11.019  0.00  0.00    -0.097 C 
ATOM     36  H   UNL     1       3.876   0.404  -9.742  0.00  0.00    -0.083 HD
ENDBRANCH  32  33
ENDBRANCH  31  32
ENDBRANCH   3  31
TORSDOF 10
