REMARK  Name = ZINC08772718
REMARK  5 active torsions:
REMARK  status: ('A' for Active; 'I' for Inactive)
REMARK    1  A    between atoms: C_9  and  O_29
REMARK    2  A    between atoms: C_10  and  C_11
REMARK    3  A    between atoms: C_11  and  C_13
REMARK    4  A    between atoms: C_11  and  N_61
REMARK    5  A    between atoms: N_17  and  C_18
REMARK                            x       y       z     vdW  Elec       q    Type
REMARK                         _______ _______ _______ _____ _____    ______ ____
ROOT
ATOM      1  C   UNL     1       3.608   2.245  -0.021  0.00  0.00    +0.039 C 
ENDROOT
BRANCH   1  11
ATOM      2  C   UNL     1       2.437   0.050  -0.022  0.00  0.00    +0.017 A 
ATOM      3  C   UNL     1       1.240  -0.693  -0.014  0.00  0.00    +0.005 A 
ATOM      4  C   UNL     1       1.254  -2.096  -0.022  0.00  0.00    +0.059 A 
ATOM      5  C   UNL     1       0.076  -2.789  -0.014  0.00  0.00    +0.163 A 
ATOM      6  C   UNL     1      -1.151  -2.109   0.004  0.00  0.00    +0.164 A 
ATOM      7  C   UNL     1      -1.192  -0.743   0.011  0.00  0.00    +0.077 A 
ATOM      8  C   UNL     1       0.002  -0.004   0.002  0.00  0.00    +0.079 A 
ATOM      9  N   UNL     1      -0.016   1.334   0.009  0.00  0.00    -0.213 NA
ATOM     10  C   UNL     1       1.099   2.033   0.003  0.00  0.00    +0.215 A 
ATOM     11  C   UNL     1       2.353   1.411  -0.013  0.00  0.00    +0.008 A 
ATOM     12  O   UNL     1      -2.324  -2.800   0.018  0.00  0.00    -0.485 OA
ATOM     13  C   UNL     1      -2.266  -4.177  -0.369  0.00  0.00    +0.270 C 
ATOM     14  C   UNL     1      -1.084  -4.832   0.360  0.00  0.00    +0.270 C 
ATOM     15  O   UNL     1       0.114  -4.151  -0.028  0.00  0.00    -0.485 OA
BRANCH  10  16
ATOM     16  O   UNL     1       1.032   3.387   0.011  0.00  0.00    -0.492 OA
ATOM     17  H   UNL     1       1.021   3.775   0.896  0.00  0.00    +0.294 HD
ENDBRANCH  10  16
ENDBRANCH   1  11
BRANCH   1  23
ATOM     18  C   UNL     1       4.454   0.815   1.736  0.00  0.00    -0.067 C 
ATOM     19  C   UNL     1       5.408  -0.361   1.977  0.00  0.00    +0.050 C 
ATOM     20  S   UNL     1       7.112   0.278   1.996  0.00  0.00    -0.164 S 
ATOM     21  C   UNL     1       7.188   1.264   0.469  0.00  0.00    +0.050 C 
ATOM     22  C   UNL     1       5.981   2.208   0.443  0.00  0.00    -0.067 C 
ATOM     23  N   UNL     1       4.738   1.402   0.407  0.00  0.00    +0.390 N 
ATOM     24  H   UNL     1       4.859   0.639  -0.270  0.00  0.00    -0.080 HD
ENDBRANCH   1  23
BRANCH   1  25
ATOM     25  C   UNL     1       3.876   2.736  -1.420  0.00  0.00    +0.143 A 
ATOM     26  N   UNL     1       4.343   2.031  -2.421  0.00  0.00    -0.115 NA
ATOM     27  N   UNL     1       4.432   2.805  -3.447  0.00  0.00    -0.023 NA
ATOM     28  N   UNL     1       4.033   3.987  -3.126  0.00  0.00    -0.044 NA
ATOM     29  N   UNL     1       3.677   3.983  -1.886  0.00  0.00    -0.227 N 
BRANCH  29  30
ATOM     30  C   UNL     1       3.158   5.123  -1.127  0.00  0.00    +0.111 C 
ATOM     31  C   UNL     1       1.869   5.627  -1.780  0.00  0.00    +0.027 C 
ATOM     32  C   UNL     1       1.327   6.817  -0.987  0.00  0.00    +0.002 C 
ATOM     33  C   UNL     1       2.366   7.940  -0.977  0.00  0.00    +0.000 C 
ATOM     34  C   UNL     1       3.655   7.436  -0.324  0.00  0.00    +0.002 C 
ATOM     35  C   UNL     1       4.197   6.246  -1.117  0.00  0.00    +0.027 C 
ENDBRANCH  29  30
ENDBRANCH   1  25
TORSDOF 5
