REMARK  Name = ZINC40091867
REMARK  14 active torsions:
REMARK  status: ('A' for Active; 'I' for Inactive)
REMARK    1  A    between atoms: C_1  and  C_2
REMARK    2  A    between atoms: C_2  and  C_3
REMARK    3  A    between atoms: C_3  and  C_4
REMARK    4  A    between atoms: C_4  and  N_5
REMARK    5  A    between atoms: C_6  and  C_26
REMARK    6  A    between atoms: C_8  and  C_13
REMARK    7  A    between atoms: C_13  and  C_15
REMARK    8  A    between atoms: C_18  and  O_22
REMARK    9  A    between atoms: C_19  and  C_21
REMARK   10  A    between atoms: O_22  and  C_23
REMARK   11  A    between atoms: C_23  and  C_24
REMARK   12  A    between atoms: C_24  and  C_25
REMARK   13  A    between atoms: C_31  and  O_32
REMARK   14  A    between atoms: O_32  and  C_33
REMARK                            x       y       z     vdW  Elec       q    Type
REMARK                         _______ _______ _______ _____ _____    ______ ____
ROOT
ATOM      1  N   UNL     1       1.250  -2.376  -2.882  0.00  0.00    -0.283 N 
ATOM      2  C   UNL     1       0.599  -2.645  -4.170  0.00  0.00    +0.148 C 
ATOM      3  C   UNL     1       1.667  -3.219  -5.070  0.00  0.00    +0.076 C 
ATOM      4  C   UNL     1       2.808  -3.263  -4.344  0.00  0.00    +0.249 C 
ATOM      5  C   UNL     1       2.543  -2.733  -2.990  0.00  0.00    +0.288 C 
ATOM      6  O   UNL     1       3.369  -2.637  -2.104  0.00  0.00    -0.266 OA
ATOM      7  O   UNL     1       4.003  -3.715  -4.788  0.00  0.00    -0.282 OA
ENDROOT
BRANCH   2   8
ATOM      8  C   UNL     1       0.059  -1.365  -4.754  0.00  0.00    +0.020 A 
ATOM      9  C   UNL     1      -1.233  -1.319  -5.242  0.00  0.00    +0.024 A 
ATOM     10  C   UNL     1      -1.730  -0.145  -5.779  0.00  0.00    +0.018 A 
ATOM     11  C   UNL     1      -0.934   0.986  -5.828  0.00  0.00    +0.019 A 
ATOM     12  C   UNL     1       0.358   0.945  -5.341  0.00  0.00    +0.047 A 
ATOM     13  C   UNL     1       0.856  -0.231  -4.798  0.00  0.00    +0.125 A 
ATOM     14 BR   UNL     1      -3.498  -0.085  -6.446  0.00  0.00    -0.050 Br
BRANCH  13  15
ATOM     15  O   UNL     1       2.125  -0.273  -4.314  0.00  0.00    -0.495 OA
ATOM     16  C   UNL     1       2.857   0.955  -4.304  0.00  0.00    +0.277 C 
ENDBRANCH  13  15
ENDBRANCH   2   8
BRANCH   3  17
ATOM     17  C   UNL     1       1.500  -3.645  -6.463  0.00  0.00    +0.195 C 
ATOM     18  O   UNL     1       2.037  -3.020  -7.360  0.00  0.00    -0.287 OA
BRANCH  17  19
ATOM     19  C   UNL     1       0.682  -4.833  -6.778  0.00  0.00    +0.023 A 
ATOM     20  C   UNL     1       0.015  -5.516  -5.757  0.00  0.00    +0.015 A 
ATOM     21  C   UNL     1      -0.747  -6.623  -6.055  0.00  0.00    +0.046 A 
ATOM     22  C   UNL     1      -0.853  -7.062  -7.370  0.00  0.00    +0.123 A 
ATOM     23  C   UNL     1      -0.192  -6.386  -8.389  0.00  0.00    -0.008 A 
ATOM     24  C   UNL     1       0.567  -5.274  -8.100  0.00  0.00    +0.018 A 
ATOM     25  C   UNL     1      -0.311  -6.867  -9.812  0.00  0.00    +0.047 C 
BRANCH  22  26
ATOM     26  O   UNL     1      -1.605  -8.154  -7.659  0.00  0.00    -0.492 OA
BRANCH  26  27
ATOM     27  C   UNL     1      -2.345  -8.736  -6.584  0.00  0.00    +0.229 C 
BRANCH  27  28
ATOM     28  C   UNL     1      -3.046 -10.004  -7.075  0.00  0.00    +0.038 C 
ATOM     29  C   UNL     1      -3.838 -10.627  -5.924  0.00  0.00    +0.007 C 
ENDBRANCH  27  28
ENDBRANCH  26  27
ENDBRANCH  22  26
ENDBRANCH  17  19
ENDBRANCH   3  17
BRANCH   1  30
ATOM     30  C   UNL     1       0.608  -1.813  -1.692  0.00  0.00    +0.109 C 
BRANCH  30  31
ATOM     31  C   UNL     1       0.673  -0.285  -1.752  0.00  0.00    +0.019 C 
BRANCH  31  33
ATOM     32  C   UNL     1       0.035   1.831  -0.587  0.00  0.00    +0.004 C 
ATOM     33  C   UNL     1      -0.030   0.304  -0.527  0.00  0.00    -0.002 C 
ENDBRANCH  31  33
ENDBRANCH  30  31
ENDBRANCH   1  30
TORSDOF 10
