REMARK  Name = ZINC39673772
REMARK  10 active torsions:
REMARK  status: ('A' for Active; 'I' for Inactive)
REMARK    1  A    between atoms: C_1  and  C_2
REMARK    2  A    between atoms: C_2  and  C_3
REMARK    3  A    between atoms: C_3  and  C_4
REMARK    4  A    between atoms: C_4  and  C_6
REMARK    5  A    between atoms: C_4  and  N_7
REMARK    6  A    between atoms: C_8  and  C_10
REMARK    7  A    between atoms: C_21  and  C_23
REMARK    8  A    between atoms: C_28  and  O_29
REMARK    9  A    between atoms: O_29  and  C_30
REMARK   10  A    between atoms: C_33  and  C_36
REMARK                            x       y       z     vdW  Elec       q    Type
REMARK                         _______ _______ _______ _____ _____    ______ ____
ROOT
ATOM      1  C   UNL     1      -1.812  -4.272   0.785  0.00  0.00    +0.100 C 
ATOM      2  C   UNL     1      -2.934  -3.348   0.262  0.00  0.00    +0.121 C 
ATOM      3  N   UNL     1      -3.301  -3.915  -1.057  0.00  0.00    -0.296 N 
ATOM      4  C   UNL     1      -3.252  -5.383  -0.854  0.00  0.00    +0.115 C 
ATOM      5  C   UNL     1      -2.026  -5.608   0.053  0.00  0.00    -0.004 C 
ATOM      6  C   UNL     1      -0.802  -5.950  -0.790  0.00  0.00    -0.010 C 
ATOM      7  C   UNL     1      -1.017  -7.309  -1.464  0.00  0.00    -0.082 C 
ATOM      8  N   UNL     1      -1.232  -8.337  -0.438  0.00  0.00    +0.379 N 
ATOM      9  C   UNL     1      -2.463  -8.049   0.309  0.00  0.00    -0.082 C 
ATOM     10  C   UNL     1      -2.310  -6.721   1.057  0.00  0.00    -0.010 C 
ATOM     11  C   UNL     1      -3.609  -3.247  -2.187  0.00  0.00    +0.252 C 
ATOM     12  O   UNL     1      -3.983  -3.856  -3.170  0.00  0.00    -0.270 OA
ATOM     13  H   UNL     1      -1.312  -9.240  -0.880  0.00  0.00    -0.086 HD
ATOM     14  H   UNL     1      -0.449  -8.345   0.198  0.00  0.00    -0.086 HD
ENDROOT
BRANCH  11  15
ATOM     15  C   UNL     1      -3.493  -1.777  -2.229  0.00  0.00    +0.099 A 
ATOM     16  C   UNL     1      -3.782  -1.006  -1.097  0.00  0.00    +0.020 A 
ATOM     17  C   UNL     1      -3.657   0.368  -1.189  0.00  0.00    +0.021 A 
ATOM     18  C   UNL     1      -3.255   0.937  -2.385  0.00  0.00    +0.114 A 
ATOM     19  N   UNL     1      -2.988   0.192  -3.439  0.00  0.00    -0.220 NA
ATOM     20  C   UNL     1      -3.086  -1.127  -3.404  0.00  0.00    +0.233 A 
BRANCH  20  21
ATOM     21  O   UNL     1      -2.797  -1.853  -4.510  0.00  0.00    -0.437 OA
BRANCH  21  22
ATOM     22  C   UNL     1      -2.502  -1.183  -5.654  0.00  0.00    +0.130 A 
ATOM     23  C   UNL     1      -3.454  -1.069  -6.658  0.00  0.00    +0.046 A 
ATOM     24  C   UNL     1      -3.152  -0.386  -7.820  0.00  0.00    +0.007 A 
ATOM     25  C   UNL     1      -1.903   0.183  -7.984  0.00  0.00    -0.050 A 
ATOM     26  C   UNL     1      -0.953   0.071  -6.986  0.00  0.00    +0.007 A 
ATOM     27  C   UNL     1      -1.251  -0.605  -5.819  0.00  0.00    +0.046 A 
ATOM     28  C   UNL     1      -1.576   0.927  -9.254  0.00  0.00    +0.044 C 
ENDBRANCH  21  22
ENDBRANCH  20  21
ENDBRANCH  11  15
BRANCH   1  30
ATOM     29  N   UNL     1       0.600  -3.962   1.238  0.00  0.00    -0.312 N 
ATOM     30  C   UNL     1      -0.459  -3.700   0.447  0.00  0.00    +0.218 C 
ATOM     31  O   UNL     1      -0.325  -3.003  -0.537  0.00  0.00    -0.275 OA
ATOM     32  H   UNL     1       0.492  -4.519   2.024  0.00  0.00    +0.149 HD
BRANCH  29  33
ATOM     33  C   UNL     1       1.915  -3.406   0.909  0.00  0.00    +0.070 C 
ATOM     34  C   UNL     1       2.621  -4.322  -0.092  0.00  0.00    +0.028 C 
BRANCH  33  35
ATOM     35  C   UNL     1       2.756  -3.297   2.182  0.00  0.00    +0.022 C 
BRANCH  35  37
ATOM     36  C   UNL     1       2.955  -2.176   4.406  0.00  0.00    +0.004 C 
ATOM     37  C   UNL     1       2.114  -2.285   3.133  0.00  0.00    -0.002 C 
ENDBRANCH  35  37
ENDBRANCH  33  35
ENDBRANCH  29  33
ENDBRANCH   1  30
TORSDOF 7
