REMARK  Name = ZINC40111146
REMARK  9 active torsions:
REMARK  status: ('A' for Active; 'I' for Inactive)
REMARK    1  A    between atoms: C_4  and  N_35
REMARK    2  A    between atoms: C_5  and  C_7
REMARK    3  A    between atoms: C_9  and  C_18
REMARK    4  A    between atoms: N_13  and  C_14
REMARK    5  A    between atoms: C_14  and  C_15
REMARK    6  A    between atoms: C_15  and  O_16
REMARK    7  A    between atoms: C_18  and  C_20
REMARK    8  A    between atoms: C_23  and  S_26
REMARK    9  A    between atoms: S_26  and  N_29
REMARK                            x       y       z     vdW  Elec       q    Type
REMARK                         _______ _______ _______ _____ _____    ______ ____
ROOT
ATOM      1  C   UNL     1      -0.215  -2.064   1.732  0.00  0.00    +0.147 C 
ATOM      2  C   UNL     1       1.176  -2.639   1.599  0.00  0.00    +0.076 C 
ATOM      3  C   UNL     1       1.165  -3.442   0.510  0.00  0.00    +0.249 C 
ATOM      4  C   UNL     1      -0.186  -3.425  -0.091  0.00  0.00    +0.288 C 
ATOM      5  O   UNL     1      -0.516  -4.047  -1.082  0.00  0.00    -0.266 OA
ATOM      6  N   UNL     1      -0.996  -2.620   0.621  0.00  0.00    -0.281 N 
ATOM      7  O   UNL     1       2.221  -4.147   0.045  0.00  0.00    -0.282 OA
ENDROOT
BRANCH   1  12
ATOM      8  C   UNL     1      -2.140  -4.004   4.336  0.00  0.00    +0.000 A 
ATOM      9  C   UNL     1      -1.937  -3.229   5.463  0.00  0.00    +0.002 A 
ATOM     10  C   UNL     1      -1.177  -2.078   5.383  0.00  0.00    +0.033 A 
ATOM     11  C   UNL     1      -0.620  -1.701   4.175  0.00  0.00    +0.131 A 
ATOM     12  C   UNL     1      -0.822  -2.476   3.048  0.00  0.00    +0.008 A 
ATOM     13  C   UNL     1      -1.583  -3.627   3.129  0.00  0.00    +0.008 A 
BRANCH  11  14
ATOM     14  N   UNL     1       0.193  -0.467   4.088  0.00  0.00    +0.057 N 
ATOM     15  O   UNL     1       0.284   0.266   5.045  0.00  0.00    -0.126 OA
ATOM     16  O   UNL     1       0.766  -0.191   3.060  0.00  0.00    -0.126 OA
ENDBRANCH  11  14
ENDBRANCH   1  12
BRANCH   2  17
ATOM     17  C   UNL     1       2.318  -2.376   2.480  0.00  0.00    +0.195 C 
ATOM     18  O   UNL     1       2.399  -2.938   3.556  0.00  0.00    -0.287 OA
BRANCH  17  19
ATOM     19  C   UNL     1       3.373  -1.428   2.060  0.00  0.00    +0.022 A 
ATOM     20  C   UNL     1       3.336  -0.857   0.786  0.00  0.00    +0.013 A 
ATOM     21  C   UNL     1       4.323   0.027   0.402  0.00  0.00    +0.029 A 
ATOM     22  C   UNL     1       5.348   0.347   1.275  0.00  0.00    +0.106 A 
ATOM     23  C   UNL     1       5.390  -0.215   2.538  0.00  0.00    +0.029 A 
ATOM     24  C   UNL     1       4.407  -1.096   2.938  0.00  0.00    +0.013 A 
BRANCH  22  25
ATOM     25  S   UNL     1       6.604   1.477   0.775  0.00  0.00    +0.061 S 
ATOM     26  O   UNL     1       7.746   1.192   1.571  0.00  0.00    -0.153 OA
ATOM     27  O   UNL     1       6.639   1.443  -0.646  0.00  0.00    -0.153 OA
BRANCH  25  28
ATOM     28  N   UNL     1       6.096   2.994   1.200  0.00  0.00    -0.177 NA
ATOM     29  C   UNL     1       5.300   3.805   0.269  0.00  0.00    +0.109 C 
ATOM     30  C   UNL     1       4.022   4.260   0.980  0.00  0.00    +0.017 C 
ATOM     31  C   UNL     1       4.394   4.979   2.279  0.00  0.00    +0.003 C 
ATOM     32  C   UNL     1       5.143   4.014   3.201  0.00  0.00    +0.017 C 
ATOM     33  C   UNL     1       6.429   3.553   2.517  0.00  0.00    +0.109 C 
ENDBRANCH  25  28
ENDBRANCH  22  25
ENDBRANCH  17  19
ENDBRANCH   2  17
BRANCH   6  34
ATOM     34  C   UNL     1      -2.407  -2.346   0.338  0.00  0.00    +0.137 C 
BRANCH  34  35
ATOM     35  C   UNL     1      -2.516  -1.133  -0.589  0.00  0.00    +0.175 C 
BRANCH  35  36
ATOM     36  O   UNL     1      -1.930  -1.446  -1.854  0.00  0.00    -0.393 OA
ATOM     37  H   UNL     1      -1.963  -0.721  -2.493  0.00  0.00    +0.209 HD
ENDBRANCH  35  36
ENDBRANCH  34  35
ENDBRANCH   6  34
TORSDOF 9
