REMARK  Name = ZINC11086258
REMARK  6 active torsions:
REMARK  status: ('A' for Active; 'I' for Inactive)
REMARK    1  A    between atoms: C_4  and  C_7
REMARK    2  A    between atoms: N_9  and  CA_10
REMARK    3  A    between atoms: CA_10  and  C_26
REMARK    4  A    between atoms: C_11  and  C_12
REMARK    5  A    between atoms: C_15  and  O_18
REMARK    6  A    between atoms: O_18  and  C_19
REMARK                            x       y       z     vdW  Elec       q    Type
REMARK                         _______ _______ _______ _____ _____    ______ ____
ROOT
ATOM      1  CA  UNL     1      -1.214  -2.321  -1.182  0.00  0.00    +0.123 C 
ATOM      2  C   UNL     1      -2.216  -2.954  -0.526  0.00  0.00    +0.038 C 
ENDROOT
BRANCH   2   3
ATOM      3  C   UNL     1      -3.557  -2.357  -0.481  0.00  0.00    -0.023 A 
ATOM      4  C   UNL     1      -3.711  -0.967  -0.560  0.00  0.00    +0.011 A 
ATOM      5  C   UNL     1      -4.970  -0.413  -0.522  0.00  0.00    +0.047 A 
ATOM      6  C   UNL     1      -6.088  -1.229  -0.395  0.00  0.00    +0.129 A 
ATOM      7  C   UNL     1      -5.941  -2.609  -0.311  0.00  0.00    +0.047 A 
ATOM      8  C   UNL     1      -4.687  -3.174  -0.353  0.00  0.00    +0.011 A 
BRANCH   6   9
ATOM      9  O   UNL     1      -7.328  -0.677  -0.354  0.00  0.00    -0.455 OA
BRANCH   9  10
ATOM     10  C   UNL     1      -7.436   0.664  -0.548  0.00  0.00    +0.142 A 
ATOM     11  C   UNL     1      -7.464   1.524   0.540  0.00  0.00    +0.047 A 
ATOM     12  C   UNL     1      -7.569   2.886   0.340  0.00  0.00    +0.004 A 
ATOM     13  C   UNL     1      -7.657   3.393  -0.943  0.00  0.00    +0.001 A 
ATOM     14  C   UNL     1      -7.634   2.539  -2.030  0.00  0.00    +0.019 A 
ATOM     15  C   UNL     1      -7.524   1.175  -1.836  0.00  0.00    +0.060 A 
ATOM     16 BR   UNL     1      -7.492   0.006  -3.322  0.00  0.00    -0.046 Br
ENDBRANCH   9  10
ENDBRANCH   6   9
ENDBRANCH   2   3
BRANCH   1  19
ATOM     17  C   UNL     1      -0.762  -0.009  -1.518  0.00  0.00    +0.248 C 
ATOM     18  O   UNL     1       0.025  -0.040  -0.592  0.00  0.00    -0.270 OA
ATOM     19  N   UNL     1      -1.464  -1.113  -1.843  0.00  0.00    -0.276 N 
ATOM     20  H   UNL     1      -2.142  -1.071  -2.535  0.00  0.00    +0.155 HD
BRANCH  17  24
ATOM     21  C   UNL     1      -1.301   3.577  -3.730  0.00  0.00    +0.000 A 
ATOM     22  C   UNL     1      -0.405   3.545  -2.676  0.00  0.00    +0.001 A 
ATOM     23  C   UNL     1      -0.225   2.384  -1.954  0.00  0.00    +0.013 A 
ATOM     24  C   UNL     1      -0.950   1.239  -2.288  0.00  0.00    +0.037 A 
ATOM     25  C   UNL     1      -1.849   1.276  -3.355  0.00  0.00    +0.013 A 
ATOM     26  C   UNL     1      -2.023   2.445  -4.066  0.00  0.00    +0.001 A 
ENDBRANCH  17  24
ENDBRANCH   1  19
BRANCH   1  27
ATOM     27  C   UNL     1       0.133  -2.902  -1.200  0.00  0.00    +0.400 C 
ATOM     28  O   UNL     1       0.377  -3.893  -0.539  0.00  0.00    -0.239 OA
ATOM     29  OXT UNL     1       1.102  -2.335  -1.948  0.00  0.00    -0.239 OA
ENDBRANCH   1  27
TORSDOF 6
