REMARK  Name = ZINC63515255
REMARK  10 active torsions:
REMARK  status: ('A' for Active; 'I' for Inactive)
REMARK    1  A    between atoms: C_1  and  C_2
REMARK    2  A    between atoms: C_4  and  C_33
REMARK    3  A    between atoms: C_9  and  C_32
REMARK    4  A    between atoms: N_10  and  C_11
REMARK    5  A    between atoms: C_11  and  C_12
REMARK    6  A    between atoms: C_12  and  C_13
REMARK    7  A    between atoms: C_16  and  O_24
REMARK    8  A    between atoms: C_21  and  C_23
REMARK    9  A    between atoms: O_24  and  C_25
REMARK   10  A    between atoms: C_25  and  C_26
REMARK                            x       y       z     vdW  Elec       q    Type
REMARK                         _______ _______ _______ _____ _____    ______ ____
ROOT
ATOM      1  C   UNL     1       4.438   0.054   1.303  0.00  0.00    -0.037 C 
ATOM      2  C   UNL     1       4.964  -1.150   0.985  0.00  0.00    +0.003 A 
ATOM      3  C   UNL     1       4.359  -2.443   0.649  0.00  0.00    +0.055 A 
ATOM      4  C   UNL     1       5.158  -3.501   0.368  0.00  0.00    +0.122 A 
ATOM      5  C   UNL     1       6.561  -3.407   0.385  0.00  0.00    +0.048 A 
ATOM      6  C   UNL     1       7.209  -2.261   0.682  0.00  0.00    +0.029 A 
ATOM      7  C   UNL     1       6.442  -1.053   1.002  0.00  0.00    +0.043 A 
ATOM      8  N   UNL     1       6.814   0.163   1.319  0.00  0.00    -0.378 N 
ATOM      9  C   UNL     1       5.613   0.978   1.533  0.00  0.00    +0.103 C 
ATOM     10  C   UNL     1       5.591   1.514   2.966  0.00  0.00    +0.035 C 
ATOM     11  H   UNL     1       7.730   0.472   1.396  0.00  0.00    +0.160 HD
ENDROOT
BRANCH   1  12
ATOM     12  C   UNL     1       2.976   0.406   1.403  0.00  0.00    +0.052 C 
BRANCH  12  13
ATOM     13  C   UNL     1       2.131  -0.831   1.091  0.00  0.00    +0.111 C 
BRANCH  13  21
ATOM     14  C   UNL     1      -0.019   1.526   0.010  0.00  0.00    +0.029 C 
ATOM     15  C   UNL     1       0.002  -0.004   0.002  0.00  0.00    +0.087 C 
ATOM     16  C   UNL     1      -1.434  -0.534   0.013  0.00  0.00    +0.127 C 
ATOM     17  C   UNL     1      -2.007  -0.383   1.399  0.00  0.00    +0.247 C 
ATOM     18  O   UNL     1      -3.186  -0.130   1.542  0.00  0.00    -0.273 OA
ATOM     19  N   UNL     1      -1.224  -0.526   2.470  0.00  0.00    -0.170 NA
ATOM     20  C   UNL     1       0.075  -0.626   2.364  0.00  0.00    +0.087 C 
ATOM     21  N   UNL     1       0.710  -0.489   1.188  0.00  0.00    -0.316 N 
ATOM     22  C   UNL     1       0.888  -0.905   3.602  0.00  0.00    +0.080 C 
BRANCH  16  23
ATOM     23  C   UNL     1      -1.436  -1.989  -0.378  0.00  0.00    -0.034 A 
ATOM     24  C   UNL     1      -0.740  -2.911   0.382  0.00  0.00    +0.004 A 
ATOM     25  C   UNL     1      -0.743  -4.245   0.023  0.00  0.00    +0.000 A 
ATOM     26  C   UNL     1      -1.442  -4.659  -1.096  0.00  0.00    +0.000 A 
ATOM     27  C   UNL     1      -2.139  -3.738  -1.855  0.00  0.00    +0.000 A 
ATOM     28  C   UNL     1      -2.140  -2.404  -1.494  0.00  0.00    +0.004 A 
ENDBRANCH  16  23
ENDBRANCH  13  21
ENDBRANCH  12  13
ENDBRANCH   1  12
BRANCH   4  29
ATOM     29  O   UNL     1       4.584  -4.694   0.059  0.00  0.00    -0.487 OA
BRANCH  29  30
ATOM     30  C   UNL     1       5.464  -5.782  -0.230  0.00  0.00    +0.264 C 
BRANCH  30  31
ATOM     31  C   UNL     1       4.653  -7.012  -0.547  0.00  0.00    -0.010 A 
ATOM     32  C   UNL     1       4.283  -7.876   0.466  0.00  0.00    +0.007 A 
ATOM     33  C   UNL     1       3.540  -9.005   0.175  0.00  0.00    +0.000 A 
ATOM     34  C   UNL     1       3.167  -9.269  -1.130  0.00  0.00    +0.000 A 
ATOM     35  C   UNL     1       3.536  -8.404  -2.143  0.00  0.00    +0.000 A 
ATOM     36  C   UNL     1       4.275  -7.273  -1.851  0.00  0.00    +0.007 A 
ENDBRANCH  30  31
ENDBRANCH  29  30
ENDBRANCH   4  29
TORSDOF 7
