REMARK  Name = ZINC02592501
REMARK  9 active torsions:
REMARK  status: ('A' for Active; 'I' for Inactive)
REMARK    1  A    between atoms: C_1  and  C_2
REMARK    2  A    between atoms: C_5  and  C_37
REMARK    3  A    between atoms: C_6  and  O_8
REMARK    4  A    between atoms: O_8  and  C_9
REMARK    5  A    between atoms: C_9  and  C_10
REMARK    6  A    between atoms: C_10  and  N_11
REMARK    7  A    between atoms: C_13  and  C_20
REMARK    8  A    between atoms: C_25  and  O_36
REMARK    9  A    between atoms: N_26  and  C_29
REMARK                            x       y       z     vdW  Elec       q    Type
REMARK                         _______ _______ _______ _____ _____    ______ ____
ROOT
ATOM      1  N   UNL     1      -1.278   7.071   3.121  0.00  0.00    -0.343 N 
ATOM      2  C   UNL     1      -1.963   8.124   3.600  0.00  0.00    +0.095 A 
ATOM      3  C   UNL     1      -2.177   9.039   2.582  0.00  0.00    +0.001 A 
ATOM      4  C   UNL     1      -1.560   8.457   1.372  0.00  0.00    +0.007 A 
ATOM      5  C   UNL     1      -1.016   7.227   1.774  0.00  0.00    +0.050 A 
ATOM      6  C   UNL     1      -0.359   6.436   0.838  0.00  0.00    +0.026 A 
ATOM      7  C   UNL     1      -0.250   6.862  -0.469  0.00  0.00    +0.002 A 
ATOM      8  C   UNL     1      -0.789   8.077  -0.863  0.00  0.00    +0.001 A 
ATOM      9  C   UNL     1      -1.443   8.876   0.051  0.00  0.00    +0.010 A 
ENDROOT
BRANCH   3  10
ATOM     10  C   UNL     1      -2.852  10.273   2.679  0.00  0.00    +0.028 C 
ATOM     11  C   UNL     1      -4.081  10.343   3.322  0.00  0.00    +0.102 C 
ATOM     12  C   UNL     1      -4.721  11.639   3.624  0.00  0.00    +0.276 C 
ATOM     13  O   UNL     1      -4.183  12.689   3.314  0.00  0.00    -0.268 OA
ATOM     14  N   UNL     1      -5.910  11.633   4.248  0.00  0.00    -0.127 NA
ATOM     15  C   UNL     1      -6.509  10.520   4.591  0.00  0.00    +0.286 C 
ATOM     16  N   UNL     1      -5.994   9.284   4.353  0.00  0.00    -0.192 N 
ATOM     17  C   UNL     1      -4.808   9.129   3.728  0.00  0.00    +0.263 C 
ATOM     18  O   UNL     1      -4.352   8.022   3.510  0.00  0.00    -0.269 OA
BRANCH  16  19
ATOM     19  C   UNL     1      -6.711   8.150   4.759  0.00  0.00    +0.046 A 
ATOM     20  C   UNL     1      -7.609   7.547   3.889  0.00  0.00    +0.025 A 
ATOM     21  C   UNL     1      -8.311   6.427   4.289  0.00  0.00    +0.022 A 
ATOM     22  C   UNL     1      -8.127   5.912   5.561  0.00  0.00    +0.041 A 
ATOM     23  C   UNL     1      -7.237   6.514   6.431  0.00  0.00    +0.022 A 
ATOM     24  C   UNL     1      -6.529   7.632   6.034  0.00  0.00    +0.025 A 
ATOM     25 CL   UNL     1      -9.016   4.508   6.063  0.00  0.00    -0.084 Cl
ENDBRANCH  16  19
BRANCH  15  26
ATOM     26  O   UNL     1      -7.700  10.604   5.214  0.00  0.00    -0.483 OA
ATOM     27  H   UNL     1      -8.050  11.492   5.375  0.00  0.00    +0.295 HD
ENDBRANCH  15  26
ENDBRANCH   3  10
BRANCH   1  28
ATOM     28  C   UNL     1      -0.872   5.911   3.918  0.00  0.00    +0.163 C 
BRANCH  28  29
ATOM     29  C   UNL     1       0.563   6.109   4.412  0.00  0.00    +0.250 C 
BRANCH  29  30
ATOM     30  O   UNL     1       0.959   4.977   5.190  0.00  0.00    -0.490 OA
BRANCH  30  36
ATOM     31  C   UNL     1       5.234   7.268   5.741  0.00  0.00    +0.044 C 
ATOM     32  C   UNL     1       4.327   6.092   5.997  0.00  0.00    -0.047 A 
ATOM     33  C   UNL     1       4.774   5.028   6.759  0.00  0.00    +0.004 A 
ATOM     34  C   UNL     1       3.945   3.947   6.995  0.00  0.00    +0.007 A 
ATOM     35  C   UNL     1       2.669   3.926   6.467  0.00  0.00    -0.009 A 
ATOM     36  C   UNL     1       2.216   4.994   5.707  0.00  0.00    +0.124 A 
ATOM     37  C   UNL     1       3.050   6.077   5.471  0.00  0.00    +0.049 A 
ATOM     38  C   UNL     1       1.767   2.745   6.720  0.00  0.00    +0.047 C 
ENDBRANCH  30  36
ENDBRANCH  29  30
ENDBRANCH  28  29
ENDBRANCH   1  28
TORSDOF 7
