REMARK  Name = ZINC39737912
REMARK  10 active torsions:
REMARK  status: ('A' for Active; 'I' for Inactive)
REMARK    1  A    between atoms: C_1  and  C_2
REMARK    2  A    between atoms: C_2  and  O_3
REMARK    3  A    between atoms: O_3  and  C_4
REMARK    4  A    between atoms: C_4  and  C_6
REMARK    5  A    between atoms: C_7  and  C_27
REMARK    6  A    between atoms: C_8  and  C_20
REMARK    7  A    between atoms: C_9  and  N_11
REMARK    8  A    between atoms: C_12  and  C_14
REMARK    9  A    between atoms: C_23  and  O_25
REMARK   10  A    between atoms: O_25  and  C_26
REMARK                            x       y       z     vdW  Elec       q    Type
REMARK                         _______ _______ _______ _____ _____    ______ ____
ROOT
ATOM      1  C   UNL     1      -2.841  -2.416   0.016  0.00  0.00    +0.102 A 
ATOM      2  C   UNL     1      -3.204  -3.737   0.018  0.00  0.00    -0.015 A 
ATOM      3  C   UNL     1      -4.566  -4.000   0.028  0.00  0.00    +0.069 A 
ATOM      4  C   UNL     1      -5.437  -2.907   0.035  0.00  0.00    +0.085 A 
ATOM      5  S   UNL     1      -4.412  -1.577   0.036  0.00  0.00    -0.066 S 
ATOM      6  C   UNL     1      -2.181  -4.843   0.009  0.00  0.00    +0.046 C 
ENDROOT
BRANCH   3   7
ATOM      7  C   UNL     1      -5.075  -5.377   0.031  0.00  0.00    +0.255 C 
ATOM      8  O   UNL     1      -5.277  -5.948   1.085  0.00  0.00    -0.270 OA
ATOM      9  N   UNL     1      -5.317  -6.008  -1.135  0.00  0.00    -0.217 N 
ATOM     10  C   UNL     1      -5.784  -7.272  -1.133  0.00  0.00    +0.407 C 
ATOM     11  O   UNL     1      -5.986  -7.843  -0.080  0.00  0.00    -0.226 OA
ATOM     12  H   UNL     1      -5.155  -5.552  -1.976  0.00  0.00    +0.161 HD
BRANCH  10  13
ATOM     13  O   UNL     1      -6.026  -7.902  -2.297  0.00  0.00    -0.453 OA
ATOM     14  C   UNL     1      -6.519  -9.241  -2.220  0.00  0.00    +0.282 C 
ENDBRANCH  10  13
ENDBRANCH   3   7
BRANCH   4  15
ATOM     15  N   UNL     1      -6.816  -2.918   0.045  0.00  0.00    -0.275 N 
ATOM     16  C   UNL     1      -7.499  -1.756   0.051  0.00  0.00    +0.255 C 
ATOM     17  O   UNL     1      -6.899  -0.698   0.048  0.00  0.00    -0.269 OA
ATOM     18  H   UNL     1      -7.294  -3.762   0.048  0.00  0.00    +0.156 HD
BRANCH  16  19
ATOM     19  C   UNL     1      -8.963  -1.768   0.062  0.00  0.00    +0.076 A 
ATOM     20  C   UNL     1      -9.846  -0.698   0.063  0.00  0.00    +0.022 A 
ATOM     21  C   UNL     1     -11.180  -1.025   0.074  0.00  0.00    +0.028 A 
ATOM     22  C   UNL     1     -11.538  -2.335   0.083  0.00  0.00    +0.079 A 
ATOM     23  S   UNL     1     -10.075  -3.162   0.068  0.00  0.00    -0.072 S 
ATOM     24 CL   UNL     1     -13.140  -3.003   0.098  0.00  0.00    -0.076 Cl
ENDBRANCH  16  19
ENDBRANCH   4  15
BRANCH   1  25
ATOM     25  C   UNL     1      -1.497  -1.839   0.006  0.00  0.00    +0.346 C 
ATOM     26  O   UNL     1      -0.522  -2.567  -0.007  0.00  0.00    -0.244 OA
BRANCH  25  27
ATOM     27  O   UNL     1      -1.339  -0.499   0.012  0.00  0.00    -0.461 OA
BRANCH  27  29
ATOM     28  C   UNL     1      -0.019   1.526   0.010  0.00  0.00    +0.048 C 
ATOM     29  C   UNL     1       0.002  -0.004   0.002  0.00  0.00    +0.229 C 
ENDBRANCH  27  29
ENDBRANCH  25  27
ENDBRANCH   1  25
TORSDOF 7
