REMARK  Name = ZINC52627257
REMARK  10 active torsions:
REMARK  status: ('A' for Active; 'I' for Inactive)
REMARK    1  A    between atoms: C_1  and  C_2
REMARK    2  A    between atoms: C_2  and  C_3
REMARK    3  A    between atoms: C_2  and  C_4
REMARK    4  A    between atoms: C_2  and  C_5
REMARK    5  A    between atoms: C_8  and  N_11
REMARK    6  A    between atoms: C_18  and  O_25
REMARK    7  A    between atoms: C_20  and  C_22
REMARK    8  A    between atoms: O_25  and  C_26
REMARK    9  A    between atoms: C_29  and  C_32
REMARK   10  A    between atoms: C_35  and  C_37
REMARK                            x       y       z     vdW  Elec       q    Type
REMARK                         _______ _______ _______ _____ _____    ______ ____
ROOT
ATOM      1  N   UNL     1       2.532  -1.915  -4.779  0.00  0.00    -0.267 N 
ATOM      2  C   UNL     1       2.080  -2.777  -5.772  0.00  0.00    +0.133 A 
ATOM      3  C   UNL     1       3.061  -3.018  -6.723  0.00  0.00    +0.035 A 
ATOM      4  C   UNL     1       2.798  -3.854  -7.791  0.00  0.00    +0.012 A 
ATOM      5  C   UNL     1       1.540  -4.437  -7.882  0.00  0.00    +0.020 A 
ATOM      6  C   UNL     1       0.604  -4.160  -6.906  0.00  0.00    +0.113 A 
ATOM      7  N   UNL     1       0.887  -3.359  -5.900  0.00  0.00    -0.240 NA
ATOM      8  C   UNL     1       4.303  -2.245  -6.343  0.00  0.00    +0.239 C 
ATOM      9  C   UNL     1       3.916  -1.516  -5.046  0.00  0.00    +0.238 C 
ENDROOT
BRANCH   1  13
ATOM     10  C   UNL     1       0.270  -0.639  -1.522  0.00  0.00    -0.042 A 
ATOM     11  C   UNL     1      -0.281  -1.505  -2.449  0.00  0.00    +0.006 A 
ATOM     12  C   UNL     1       0.466  -1.930  -3.530  0.00  0.00    +0.024 A 
ATOM     13  C   UNL     1       1.773  -1.487  -3.686  0.00  0.00    +0.036 A 
ATOM     14  C   UNL     1       2.324  -0.617  -2.754  0.00  0.00    +0.024 A 
ATOM     15  C   UNL     1       1.570  -0.192  -1.678  0.00  0.00    +0.006 A 
BRANCH  10  17
ATOM     16  C   UNL     1      -0.683   1.346  -0.382  0.00  0.00    +0.015 C 
ATOM     17  C   UNL     1      -0.548  -0.178  -0.344  0.00  0.00    -0.013 C 
ATOM     18  C   UNL     1       0.146  -0.596   0.954  0.00  0.00    +0.015 C 
ATOM     19  C   UNL     1      -1.938  -0.814  -0.407  0.00  0.00    +0.015 C 
ENDBRANCH  10  17
ENDBRANCH   1  13
BRANCH   9  20
ATOM     20  C   UNL     1       4.001  -0.023  -5.237  0.00  0.00    +0.380 C 
ATOM     21  O   UNL     1       2.999   0.663  -5.132  0.00  0.00    -0.244 OA
ATOM     22  O   UNL     1       5.073   0.498  -5.496  0.00  0.00    -0.244 OA
ENDBRANCH   9  20
BRANCH   8  23
ATOM     23  O   UNL     1       4.636  -1.302  -7.363  0.00  0.00    -0.482 OA
BRANCH  23  24
ATOM     24  C   UNL     1       5.478  -1.724  -8.341  0.00  0.00    +0.122 A 
ATOM     25  C   UNL     1       5.881  -3.054  -8.383  0.00  0.00    +0.046 A 
ATOM     26  C   UNL     1       6.735  -3.486  -9.372  0.00  0.00    +0.013 A 
ATOM     27  C   UNL     1       7.197  -2.584 -10.337  0.00  0.00    -0.003 A 
ATOM     28  C   UNL     1       6.789  -1.247 -10.291  0.00  0.00    +0.013 A 
ATOM     29  C   UNL     1       5.931  -0.825  -9.300  0.00  0.00    +0.046 A 
BRANCH  27  30
ATOM     30  C   UNL     1       8.110  -3.041 -11.396  0.00  0.00    +0.053 C 
ATOM     31  N   UNL     1       8.568  -4.249 -11.568  0.00  0.00    -0.259 NA
ATOM     32  C   UNL     1       9.389  -4.361 -12.632  0.00  0.00    +0.119 C 
ATOM     33  C   UNL     1       9.550  -3.205 -13.273  0.00  0.00    +0.056 C 
ATOM     34  C   UNL     1       8.703  -2.203 -12.512  0.00  0.00    +0.097 C 
BRANCH  33  35
ATOM     35  C   UNL     1      10.391  -2.949 -14.498  0.00  0.00    +0.415 C 
ATOM     36  F   UNL     1      11.011  -4.139 -14.895  0.00  0.00    -0.166 F 
ATOM     37  F   UNL     1       9.575  -2.480 -15.533  0.00  0.00    -0.166 F 
ATOM     38  F   UNL     1      11.366  -1.991 -14.202  0.00  0.00    -0.166 F 
ENDBRANCH  33  35
ENDBRANCH  27  30
ENDBRANCH  23  24
ENDBRANCH   8  23
TORSDOF 7
