REMARK  Name = ZINC36068396
REMARK  13 active torsions:
REMARK  status: ('A' for Active; 'I' for Inactive)
REMARK    1  A    between atoms: C_1  and  C_2
REMARK    2  A    between atoms: C_2  and  C_3
REMARK    3  A    between atoms: C_3  and  C_5
REMARK    4  A    between atoms: C_3  and  N_6
REMARK    5  A    between atoms: C_7  and  C_9
REMARK    6  A    between atoms: C_12  and  C_14
REMARK    7  A    between atoms: C_14  and  N_15
REMARK    8  A    between atoms: N_15  and  C_16
REMARK    9  A    between atoms: N_15  and  C_26
REMARK   10  A    between atoms: C_16  and  C_17
REMARK   11  A    between atoms: C_26  and  C_27
REMARK   12  A    between atoms: C_30  and  C_34
REMARK   13  A    between atoms: C_32  and  C_33
REMARK                            x       y       z     vdW  Elec       q    Type
REMARK                         _______ _______ _______ _____ _____    ______ ____
ROOT
ATOM      1  N   UNL     1      -4.082   2.817   6.199  0.00  0.00    +0.391 N 
ATOM      2  H   UNL     1      -3.221   2.930   5.686  0.00  0.00    -0.080 HD
ENDROOT
BRANCH   1   3
ATOM      3  C   UNL     1      -4.523   1.418   6.114  0.00  0.00    +0.020 C 
BRANCH   3   7
ATOM      4  C   UNL     1      -4.140   0.260   2.703  0.00  0.00    +0.163 A 
ATOM      5  C   UNL     1      -5.438   0.669   2.678  0.00  0.00    +0.230 A 
ATOM      6  O   UNL     1      -5.726   1.133   3.905  0.00  0.00    -0.449 OA
ATOM      7  C   UNL     1      -4.629   1.012   4.666  0.00  0.00    +0.179 A 
ATOM      8  N   UNL     1      -3.673   0.486   3.961  0.00  0.00    -0.210 NA
BRANCH   4  10
ATOM      9  N   UNL     1      -2.099  -0.692   1.752  0.00  0.00    -0.307 N 
ATOM     10  C   UNL     1      -3.384  -0.325   1.580  0.00  0.00    +0.266 C 
ATOM     11  O   UNL     1      -3.921  -0.475   0.499  0.00  0.00    -0.268 OA
ATOM     12  H   UNL     1      -1.671  -0.572   2.614  0.00  0.00    +0.149 HD
BRANCH   9  13
ATOM     13  C   UNL     1      -1.348  -1.273   0.636  0.00  0.00    +0.070 C 
ATOM     14  C   UNL     1      -1.616  -2.777   0.569  0.00  0.00    +0.028 C 
BRANCH  13  16
ATOM     15  C   UNL     1       0.434   0.472   0.790  0.00  0.00    +0.005 C 
ATOM     16  C   UNL     1       0.148  -1.030   0.847  0.00  0.00    +0.018 C 
ENDBRANCH  13  16
ENDBRANCH   9  13
ENDBRANCH   4  10
ENDBRANCH   3   7
ENDBRANCH   1   3
BRANCH   1  17
ATOM     17  C   UNL     1      -3.864   3.177   7.606  0.00  0.00    -0.042 C 
BRANCH  17  18
ATOM     18  C   UNL     1      -2.712   2.375   8.157  0.00  0.00    -0.060 A 
ATOM     19  C   UNL     1      -2.955   1.197   8.838  0.00  0.00    +0.005 A 
ATOM     20  C   UNL     1      -1.902   0.458   9.344  0.00  0.00    +0.050 A 
ATOM     21  C   UNL     1      -0.600   0.898   9.170  0.00  0.00    +0.166 A 
ATOM     22  C   UNL     1      -0.355   2.085   8.485  0.00  0.00    +0.166 A 
ATOM     23  C   UNL     1      -1.415   2.818   7.975  0.00  0.00    +0.051 A 
ATOM     24  O   UNL     1       0.992   2.299   8.448  0.00  0.00    -0.453 OA
ATOM     25  C   UNL     1       1.544   1.446   9.469  0.00  0.00    +0.466 C 
ATOM     26  O   UNL     1       0.595   0.367   9.564  0.00  0.00    -0.453 OA
ENDBRANCH  17  18
ENDBRANCH   1  17
BRANCH   1  27
ATOM     27  C   UNL     1      -5.114   3.691   5.624  0.00  0.00    -0.042 C 
BRANCH  27  28
ATOM     28  C   UNL     1      -4.609   5.111   5.596  0.00  0.00    -0.061 A 
ATOM     29  C   UNL     1      -5.011   6.007   6.569  0.00  0.00    +0.002 A 
ATOM     30  C   UNL     1      -4.548   7.309   6.543  0.00  0.00    +0.003 A 
ATOM     31  C   UNL     1      -3.683   7.716   5.543  0.00  0.00    -0.050 A 
ATOM     32  C   UNL     1      -3.281   6.820   4.571  0.00  0.00    +0.007 A 
ATOM     33  C   UNL     1      -3.741   5.516   4.599  0.00  0.00    -0.049 A 
ATOM     34  C   UNL     1      -3.298   4.538   3.542  0.00  0.00    +0.044 C 
ATOM     35  C   UNL     1      -3.180   9.136   5.514  0.00  0.00    +0.044 C 
ENDBRANCH  27  28
ENDBRANCH   1  27
TORSDOF 9
