REMARK  Name = ZINC04092879
REMARK  10 active torsions:
REMARK  status: ('A' for Active; 'I' for Inactive)
REMARK    1  A    between atoms: C_1  and  C_2
REMARK    2  A    between atoms: C_2  and  O_3
REMARK    3  A    between atoms: O_3  and  C_4
REMARK    4  A    between atoms: C_4  and  C_6
REMARK    5  A    between atoms: C_6  and  C_29
REMARK    6  A    between atoms: C_11  and  C_14
REMARK    7  A    between atoms: C_17  and  N_20
REMARK    8  A    between atoms: N_20  and  C_21
REMARK    9  A    between atoms: N_20  and  C_22
REMARK   10  A    between atoms: N_25  and  C_28
REMARK                            x       y       z     vdW  Elec       q    Type
REMARK                         _______ _______ _______ _____ _____    ______ ____
ROOT
ATOM      1  C   UNL     1       1.513  -2.400   2.505  0.00  0.00    +0.070 C 
ATOM      2  C   UNL     1       0.846  -3.726   2.926  0.00  0.00    +0.090 C 
ATOM      3  C   UNL     1       0.901  -3.725   4.478  0.00  0.00    +0.077 C 
ATOM      4  C   UNL     1       1.611  -2.406   4.847  0.00  0.00    -0.026 C 
ATOM      5  N   UNL     1       1.357  -1.509   3.683  0.00  0.00    +0.398 N 
ATOM      6  C   UNL     1      -0.555  -3.652   4.879  0.00  0.00    +0.224 C 
ATOM      7  O   UNL     1      -0.967  -3.629   6.019  0.00  0.00    -0.275 OA
ATOM      8  N   UNL     1      -1.317  -3.618   3.780  0.00  0.00    -0.245 N 
ATOM      9  C   UNL     1      -0.632  -3.660   2.614  0.00  0.00    +0.225 C 
ATOM     10  O   UNL     1      -1.113  -3.646   1.502  0.00  0.00    -0.275 OA
ATOM     11  C   UNL     1      -2.780  -3.546   3.833  0.00  0.00    +0.141 C 
ATOM     12  H   UNL     1       2.041  -0.768   3.658  0.00  0.00    -0.083 HD
ATOM     13  H   UNL     1       0.423  -1.128   3.716  0.00  0.00    -0.083 HD
ENDROOT
BRANCH   4  14
ATOM     14  C   UNL     1       1.004  -1.813   6.093  0.00  0.00    -0.060 A 
ATOM     15  C   UNL     1      -0.182  -1.106   6.012  0.00  0.00    +0.004 A 
ATOM     16  C   UNL     1      -0.742  -0.562   7.152  0.00  0.00    +0.023 A 
ATOM     17  C   UNL     1      -0.112  -0.726   8.379  0.00  0.00    +0.029 A 
ATOM     18  C   UNL     1       1.079  -1.437   8.456  0.00  0.00    +0.023 A 
ATOM     19  C   UNL     1       1.630  -1.983   7.314  0.00  0.00    +0.004 A 
BRANCH  17  20
ATOM     20  N   UNL     1      -0.675  -0.177   9.533  0.00  0.00    -0.336 N 
ATOM     21  C   UNL     1      -1.990   0.467   9.472  0.00  0.00    +0.129 C 
ATOM     22  C   UNL     1       0.049  -0.244  10.805  0.00  0.00    +0.129 C 
ENDBRANCH  17  20
ENDBRANCH   4  14
BRANCH   1  23
ATOM     23  C   UNL     1       2.973  -2.618   2.202  0.00  0.00    -0.047 A 
ATOM     24  C   UNL     1       3.398  -3.824   1.677  0.00  0.00    +0.003 A 
ATOM     25  C   UNL     1       4.737  -4.023   1.398  0.00  0.00    +0.000 A 
ATOM     26  C   UNL     1       5.652  -3.016   1.644  0.00  0.00    +0.000 A 
ATOM     27  C   UNL     1       5.227  -1.810   2.168  0.00  0.00    +0.000 A 
ATOM     28  C   UNL     1       3.887  -1.609   2.442  0.00  0.00    +0.003 A 
ENDBRANCH   1  23
BRANCH   1  29
ATOM     29  C   UNL     1       0.810  -1.816   1.307  0.00  0.00    +0.301 C 
ATOM     30  O   UNL     1       1.253  -1.999   0.198  0.00  0.00    -0.252 OA
BRANCH  29  31
ATOM     31  O   UNL     1      -0.308  -1.093   1.472  0.00  0.00    -0.466 OA
BRANCH  31  33
ATOM     32  C   UNL     1      -2.175   0.221   0.677  0.00  0.00    +0.048 C 
ATOM     33  C   UNL     1      -0.922  -0.569   0.293  0.00  0.00    +0.228 C 
ENDBRANCH  31  33
ENDBRANCH  29  31
ENDBRANCH   1  29
TORSDOF 6
