REMARK  Name = ZINC18353176
REMARK  12 active torsions:
REMARK  status: ('A' for Active; 'I' for Inactive)
REMARK    1  A    between atoms: C_1  and  C_2
REMARK    2  A    between atoms: C_5  and  C_8
REMARK    3  A    between atoms: C_11  and  C_14
REMARK    4  A    between atoms: C_19  and  C_21
REMARK    5  A    between atoms: C_21  and  O_22
REMARK    6  A    between atoms: O_22  and  C_23
REMARK    7  A    between atoms: C_23  and  C_25
REMARK    8  A    between atoms: C_25  and  C_27
REMARK    9  A    between atoms: C_25  and  N_30
REMARK   10  A    between atoms: C_27  and  C_28
REMARK   11  A    between atoms: C_27  and  C_29
REMARK   12  A    between atoms: C_31  and  C_33
REMARK                            x       y       z     vdW  Elec       q    Type
REMARK                         _______ _______ _______ _____ _____    ______ ____
ROOT
ATOM      1  C   UNL     1      -7.228   7.998   2.863  0.00  0.00    +0.069 C 
ATOM      2  N   UNL     1      -6.305   7.212   2.428  0.00  0.00    -0.181 NA
ATOM      3  N   UNL     1      -5.196   7.872   1.903  0.00  0.00    -0.179 N 
ATOM      4  C   UNL     1      -5.411   9.324   2.010  0.00  0.00    +0.173 C 
ATOM      5  C   UNL     1      -6.803   9.435   2.662  0.00  0.00    +0.090 C 
ATOM      6  C   UNL     1      -4.101   7.277   1.387  0.00  0.00    +0.273 C 
ATOM      7  O   UNL     1      -3.191   7.953   0.956  0.00  0.00    -0.270 OA
ENDROOT
BRANCH   1  12
ATOM      8  C   UNL     1     -12.195   6.302   5.215  0.00  0.00    +0.044 C 
ATOM      9  C   UNL     1     -10.893   6.746   4.599  0.00  0.00    -0.050 A 
ATOM     10  C   UNL     1      -9.978   5.803   4.166  0.00  0.00    +0.004 A 
ATOM     11  C   UNL     1      -8.785   6.202   3.601  0.00  0.00    +0.010 A 
ATOM     12  C   UNL     1      -8.502   7.563   3.466  0.00  0.00    -0.002 A 
ATOM     13  C   UNL     1      -9.427   8.510   3.910  0.00  0.00    +0.010 A 
ATOM     14  C   UNL     1     -10.619   8.096   4.468  0.00  0.00    +0.004 A 
ENDBRANCH   1  12
BRANCH   4  15
ATOM     15  C   UNL     1      -4.360   9.953   2.888  0.00  0.00    +0.128 A 
ATOM     16  C   UNL     1      -3.773  11.145   2.681  0.00  0.00    +0.046 A 
ATOM     17  C   UNL     1      -2.857  11.339   3.740  0.00  0.00    +0.041 A 
ATOM     18  C   UNL     1      -2.938  10.254   4.530  0.00  0.00    +0.195 A 
ATOM     19  O   UNL     1      -3.854   9.420   4.012  0.00  0.00    -0.466 OA
ENDBRANCH   4  15
BRANCH   6  20
ATOM     20  C   UNL     1      -4.010   5.774   1.345  0.00  0.00    +0.329 C 
BRANCH  20  21
ATOM     21  O   UNL     1      -2.745   5.383   0.749  0.00  0.00    -0.454 OA
BRANCH  21  22
ATOM     22  C   UNL     1      -2.505   4.067   0.636  0.00  0.00    +0.328 C 
ATOM     23  O   UNL     1      -3.325   3.268   1.024  0.00  0.00    -0.249 OA
BRANCH  22  24
ATOM     24  C   UNL     1      -1.214   3.585   0.027  0.00  0.00    +0.185 C 
BRANCH  24  25
ATOM     25  N   UNL     1      -1.194   2.120   0.019  0.00  0.00    -0.296 N 
ATOM     26  C   UNL     1      -0.018   1.462   0.010  0.00  0.00    +0.280 C 
ATOM     27  O   UNL     1       1.028   2.085   0.003  0.00  0.00    -0.267 OA
ATOM     28  H   UNL     1      -2.027   1.624   0.021  0.00  0.00    +0.150 HD
BRANCH  26  29
ATOM     29  C   UNL     1       0.002  -0.004   0.002  0.00  0.00    +0.189 A 
ATOM     30  C   UNL     1       1.118  -0.791  -0.018  0.00  0.00    +0.054 A 
ATOM     31  C   UNL     1       0.672  -2.122  -0.016  0.00  0.00    +0.042 A 
ATOM     32  C   UNL     1      -0.679  -2.090  -0.004  0.00  0.00    +0.196 A 
ATOM     33  O   UNL     1      -1.079  -0.812   0.007  0.00  0.00    -0.458 OA
ENDBRANCH  26  29
ENDBRANCH  24  25
BRANCH  24  34
ATOM     34  C   UNL     1      -1.102   4.105  -1.407  0.00  0.00    +0.014 C 
ATOM     35  C   UNL     1      -2.343   3.687  -2.199  0.00  0.00    +0.009 C 
ATOM     36  C   UNL     1      -0.997   5.631  -1.391  0.00  0.00    +0.009 C 
ENDBRANCH  24  34
ENDBRANCH  22  24
ENDBRANCH  21  22
ENDBRANCH  20  21
ENDBRANCH   6  20
TORSDOF 9
