REMARK  Name = ZINC35993398
REMARK  10 active torsions:
REMARK  status: ('A' for Active; 'I' for Inactive)
REMARK    1  A    between atoms: C_1  and  C_2
REMARK    2  A    between atoms: C_2  and  O_3
REMARK    3  A    between atoms: O_3  and  C_4
REMARK    4  A    between atoms: C_4  and  C_6
REMARK    5  A    between atoms: C_7  and  C_22
REMARK    6  A    between atoms: N_8  and  C_21
REMARK    7  A    between atoms: C_12  and  C_14
REMARK    8  A    between atoms: C_19  and  C_20
REMARK    9  A    between atoms: C_22  and  N_23
REMARK   10  A    between atoms: C_30  and  C_32
REMARK                            x       y       z     vdW  Elec       q    Type
REMARK                         _______ _______ _______ _____ _____    ______ ____
ROOT
ATOM      1  C   UNL     1       0.842  -2.239  -2.877  0.00  0.00    +0.076 C 
ATOM      2  C   UNL     1       1.111  -3.562  -2.877  0.00  0.00    +0.010 C 
ATOM      3  N   UNL     1       2.019  -4.096  -3.746  0.00  0.00    -0.264 N 
ATOM      4  C   UNL     1       2.701  -3.375  -4.644  0.00  0.00    +0.307 C 
ATOM      5  O   UNL     1       3.490  -3.940  -5.376  0.00  0.00    -0.252 OA
ATOM      6  N   UNL     1       2.541  -2.042  -4.764  0.00  0.00    -0.288 N 
ATOM      7  C   UNL     1       1.577  -1.369  -3.877  0.00  0.00    +0.144 C 
ATOM      8  C   UNL     1       2.262  -5.540  -3.691  0.00  0.00    +0.139 C 
ATOM      9  H   UNL     1       3.045  -1.538  -5.422  0.00  0.00    +0.151 HD
ENDROOT
BRANCH   7  10
ATOM     10  C   UNL     1       0.550  -0.678  -4.736  0.00  0.00    -0.020 A 
ATOM     11  C   UNL     1       0.120  -1.270  -5.909  0.00  0.00    +0.006 A 
ATOM     12  C   UNL     1      -0.822  -0.636  -6.697  0.00  0.00    +0.000 A 
ATOM     13  C   UNL     1      -1.335   0.589  -6.312  0.00  0.00    +0.000 A 
ATOM     14  C   UNL     1      -0.905   1.180  -5.139  0.00  0.00    +0.004 A 
ATOM     15  C   UNL     1       0.035   0.544  -4.348  0.00  0.00    -0.045 A 
ATOM     16  C   UNL     1       0.499   1.186  -3.067  0.00  0.00    +0.044 C 
ENDBRANCH   7  10
BRANCH   1  17
ATOM     17  C   UNL     1      -0.100  -1.684  -1.979  0.00  0.00    +0.339 C 
ATOM     18  O   UNL     1      -1.203  -1.362  -2.376  0.00  0.00    -0.245 OA
BRANCH  17  19
ATOM     19  O   UNL     1       0.227  -1.513  -0.680  0.00  0.00    -0.462 OA
BRANCH  19  21
ATOM     20  C   UNL     1      -0.223  -0.801   1.585  0.00  0.00    +0.048 C 
ATOM     21  C   UNL     1      -0.806  -1.052   0.193  0.00  0.00    +0.229 C 
ENDBRANCH  19  21
ENDBRANCH  17  19
ENDBRANCH   1  17
BRANCH   2  22
ATOM     22  C   UNL     1       0.398  -4.464  -1.903  0.00  0.00    -0.026 C 
BRANCH  22  23
ATOM     23  N   UNL     1      -0.900  -4.863  -2.465  0.00  0.00    +0.384 N 
ATOM     24  C   UNL     1      -1.664  -5.544  -1.423  0.00  0.00    -0.077 C 
ATOM     25  C   UNL     1      -3.141  -5.329  -1.666  0.00  0.00    +0.000 C 
ATOM     26  C   UNL     1      -3.701  -6.503  -2.489  0.00  0.00    +0.106 C 
ATOM     27  N   UNL     1      -2.748  -6.918  -3.538  0.00  0.00    -0.297 N 
ATOM     28  C   UNL     1      -2.002  -5.962  -4.330  0.00  0.00    +0.089 C 
ATOM     29  C   UNL     1      -0.664  -5.630  -3.628  0.00  0.00    -0.059 C 
ATOM     30  C   UNL     1      -2.566  -8.234  -3.768  0.00  0.00    +0.282 C 
ATOM     31  O   UNL     1      -3.255  -9.053  -3.188  0.00  0.00    -0.267 OA
ATOM     32  H   UNL     1      -1.401  -4.029  -2.731  0.00  0.00    -0.081 HD
BRANCH  30  33
ATOM     33  C   UNL     1      -1.539  -8.678  -4.715  0.00  0.00    +0.189 A 
ATOM     34  C   UNL     1      -1.333  -9.962  -5.132  0.00  0.00    +0.054 A 
ATOM     35  C   UNL     1      -0.255  -9.926  -6.031  0.00  0.00    +0.042 A 
ATOM     36  C   UNL     1       0.144  -8.639  -6.122  0.00  0.00    +0.196 A 
ATOM     37  O   UNL     1      -0.634  -7.889  -5.331  0.00  0.00    -0.458 OA
ENDBRANCH  30  33
ENDBRANCH  22  23
ENDBRANCH   2  22
TORSDOF 7
