REMARK  Name = ZINC06879014
REMARK  7 active torsions:
REMARK  status: ('A' for Active; 'I' for Inactive)
REMARK    1  A    between atoms: C_1  and  O_2
REMARK    2  A    between atoms: O_2  and  C_3
REMARK    3  A    between atoms: C_3  and  C_5
REMARK    4  A    between atoms: C_9  and  N_10
REMARK    5  A    between atoms: C_11  and  C_13
REMARK    6  A    between atoms: C_17  and  C_26
REMARK    7  A    between atoms: C_19  and  C_22
REMARK                            x       y       z     vdW  Elec       q    Type
REMARK                         _______ _______ _______ _____ _____    ______ ____
ROOT
ATOM      1  C   UNL     1       2.335   5.737   0.010  0.00  0.00    +0.150 A 
ATOM      2  C   UNL     1       1.722   6.995   0.022  0.00  0.00    +0.083 A 
ATOM      3  C   UNL     1       2.728   7.950   0.018  0.00  0.00    +0.158 A 
ATOM      4  N   UNL     1       2.696   9.289   0.026  0.00  0.00    -0.225 NA
ATOM      5  C   UNL     1       3.818   9.992   0.019  0.00  0.00    +0.110 A 
ATOM      6  C   UNL     1       5.069   9.328   0.004  0.00  0.00    +0.064 A 
ATOM      7  C   UNL     1       5.103   7.978  -0.004  0.00  0.00    +0.149 A 
ATOM      8  N   UNL     1       3.925   7.278   0.003  0.00  0.00    -0.209 N 
ATOM      9  N   UNL     1       3.648   5.906   0.003  0.00  0.00    -0.160 NA
ENDROOT
BRANCH   5  10
ATOM     10  C   UNL     1       3.765  11.464   0.027  0.00  0.00    +0.153 A 
ATOM     11  C   UNL     1       2.634  12.224   0.036  0.00  0.00    +0.051 A 
ATOM     12  C   UNL     1       3.049  13.568   0.045  0.00  0.00    +0.042 A 
ATOM     13  C   UNL     1       4.398  13.566   0.032  0.00  0.00    +0.196 A 
ATOM     14  O   UNL     1       4.827  12.294   0.021  0.00  0.00    -0.461 OA
ENDBRANCH   5  10
BRANCH   1  16
ATOM     15  N   UNL     1       2.341   3.288  -0.003  0.00  0.00    -0.274 N 
ATOM     16  C   UNL     1       1.634   4.436   0.010  0.00  0.00    +0.269 C 
ATOM     17  O   UNL     1       0.419   4.400   0.022  0.00  0.00    -0.268 OA
ATOM     18  H   UNL     1       3.311   3.317  -0.013  0.00  0.00    +0.156 HD
BRANCH  15  23
ATOM     19  C   UNL     1       2.232   0.793  -0.015  0.00  0.00    +0.091 A 
ATOM     20  C   UNL     1       1.312  -0.332  -0.012  0.00  0.00    -0.021 A 
ATOM     21  C   UNL     1       0.002  -0.004   0.002  0.00  0.00    -0.004 A 
ATOM     22  S   UNL     1      -0.022   1.766   0.012  0.00  0.00    -0.077 S 
ATOM     23  C   UNL     1       1.684   2.070  -0.003  0.00  0.00    +0.087 A 
ATOM     24  C   UNL     1      -1.164  -0.944   0.007  0.00  0.00    +0.043 C 
ATOM     25  C   UNL     1      -0.661  -2.341  -0.383  0.00  0.00    +0.005 C 
ATOM     26  C   UNL     1       0.589  -2.663   0.440  0.00  0.00    +0.005 C 
ATOM     27  C   UNL     1       1.756  -1.790  -0.023  0.00  0.00    +0.037 C 
BRANCH  19  28
ATOM     28  C   UNL     1       3.682   0.589  -0.030  0.00  0.00    +0.342 C 
ATOM     29  O   UNL     1       4.274   0.510  -1.089  0.00  0.00    -0.245 OA
BRANCH  28  31
ATOM     30  C   UNL     1       5.796   0.288   1.041  0.00  0.00    +0.280 C 
ATOM     31  O   UNL     1       4.361   0.489   1.132  0.00  0.00    -0.464 OA
ENDBRANCH  28  31
ENDBRANCH  19  28
ENDBRANCH  15  23
ENDBRANCH   1  16
BRANCH   7  32
ATOM     32  C   UNL     1       6.421   7.249  -0.020  0.00  0.00    +0.434 C 
ATOM     33  F   UNL     1       7.466   8.173   0.090  0.00  0.00    -0.164 F 
ATOM     34  F   UNL     1       6.473   6.356   1.055  0.00  0.00    -0.164 F 
ATOM     35  F   UNL     1       6.549   6.542  -1.220  0.00  0.00    -0.164 F 
ENDBRANCH   7  32
TORSDOF 6
