REMARK  Name = ZINC35172430
REMARK  9 active torsions:
REMARK  status: ('A' for Active; 'I' for Inactive)
REMARK    1  A    between atoms: C_1  and  C_2
REMARK    2  A    between atoms: C_9  and  C_11
REMARK    3  A    between atoms: C_11  and  C_12
REMARK    4  A    between atoms: C_12  and  C_13
REMARK    5  A    between atoms: C_13  and  S_14
REMARK    6  A    between atoms: S_14  and  C_15
REMARK    7  A    between atoms: C_18  and  C_28
REMARK    8  A    between atoms: N_19  and  C_20
REMARK    9  A    between atoms: C_28  and  C_29
REMARK                            x       y       z     vdW  Elec       q    Type
REMARK                         _______ _______ _______ _____ _____    ______ ____
ROOT
ATOM      1  C   UNL     1       0.043  -9.079  -4.046  0.00  0.00    +0.196 A 
ATOM      2  N   UNL     1       0.566  -9.781  -3.068  0.00  0.00    -0.122 NA
ATOM      3  N   UNL     1       0.494 -11.034  -3.342  0.00  0.00    -0.133 NA
ATOM      4  C   UNL     1      -0.074 -11.209  -4.502  0.00  0.00    +0.143 A 
ATOM      5  N   UNL     1      -0.388  -9.969  -4.991  0.00  0.00    -0.274 N 
ENDROOT
BRANCH   5   6
ATOM      6  C   UNL     1      -1.018  -9.673  -6.210  0.00  0.00    +0.052 A 
ATOM      7  C   UNL     1      -2.344 -10.032  -6.412  0.00  0.00    +0.028 A 
ATOM      8  C   UNL     1      -2.963  -9.740  -7.611  0.00  0.00    +0.023 A 
ATOM      9  C   UNL     1      -2.262  -9.090  -8.613  0.00  0.00    +0.059 A 
ATOM     10  C   UNL     1      -0.940  -8.731  -8.414  0.00  0.00    +0.061 A 
ATOM     11  C   UNL     1      -0.318  -9.016  -7.212  0.00  0.00    +0.047 A 
ATOM     12 CL   UNL     1      -0.063  -7.917  -9.672  0.00  0.00    -0.082 Cl
ATOM     13 CL   UNL     1      -3.042  -8.726 -10.120  0.00  0.00    -0.082 Cl
ENDBRANCH   5   6
BRANCH   1  14
ATOM     14  S   UNL     1      -0.085  -7.323  -4.124  0.00  0.00    -0.086 S 
BRANCH  14  15
ATOM     15  C   UNL     1       0.668  -6.759  -2.573  0.00  0.00    +0.078 C 
BRANCH  15  16
ATOM     16  C   UNL     1       0.622  -5.231  -2.510  0.00  0.00    +0.020 C 
BRANCH  16  17
ATOM     17  C   UNL     1       1.258  -4.755  -1.202  0.00  0.00    +0.097 C 
BRANCH  17  25
ATOM     18  C   UNL     1       1.172   0.780   1.533  0.00  0.00    -0.012 C 
ATOM     19  C   UNL     1       1.093  -0.738   1.367  0.00  0.00    -0.057 C 
ATOM     20  C   UNL     1       1.685  -1.136   0.011  0.00  0.00    +0.091 C 
ATOM     21  N   UNL     1       1.719  -2.604  -0.071  0.00  0.00    -0.305 N 
ATOM     22  C   UNL     1       2.320  -3.348   1.047  0.00  0.00    +0.089 C 
ATOM     23  C   UNL     1       1.698  -2.846   2.354  0.00  0.00    -0.063 C 
ATOM     24  N   UNL     1       1.854  -1.389   2.442  0.00  0.00    +0.383 N 
ATOM     25  C   UNL     1       1.212  -3.250  -1.140  0.00  0.00    +0.215 C 
ATOM     26  O   UNL     1       0.720  -2.620  -2.052  0.00  0.00    -0.276 OA
ATOM     27  H   UNL     1       2.830  -1.150   2.353  0.00  0.00    -0.085 HD
ATOM     28  H   UNL     1       1.512  -1.068   3.336  0.00  0.00    -0.085 HD
ENDBRANCH  17  25
ENDBRANCH  16  17
ENDBRANCH  15  16
ENDBRANCH  14  15
ENDBRANCH   1  14
BRANCH   4  29
ATOM     29  C   UNL     1      -0.342 -12.529  -5.176  0.00  0.00    +0.111 C 
BRANCH  29  30
ATOM     30  C   UNL     1       0.884 -12.963  -5.936  0.00  0.00    -0.040 A 
ATOM     31  C   UNL     1       1.002 -12.672  -7.282  0.00  0.00    +0.004 A 
ATOM     32  C   UNL     1       2.127 -13.070  -7.980  0.00  0.00    +0.000 A 
ATOM     33  C   UNL     1       3.135 -13.758  -7.331  0.00  0.00    +0.000 A 
ATOM     34  C   UNL     1       3.018 -14.049  -5.985  0.00  0.00    +0.000 A 
ATOM     35  C   UNL     1       1.895 -13.647  -5.286  0.00  0.00    +0.004 A 
ENDBRANCH  29  30
ENDBRANCH   4  29
TORSDOF 8
