REMARK  Name = ZINC15674660
REMARK  7 active torsions:
REMARK  status: ('A' for Active; 'I' for Inactive)
REMARK    1  A    between atoms: C_4  and  C_7
REMARK    2  A    between atoms: C_7  and  C_8
REMARK    3  A    between atoms: C_10  and  C_13
REMARK    4  A    between atoms: C_16  and  O_32
REMARK    5  A    between atoms: C_19  and  C_20
REMARK    6  A    between atoms: C_19  and  N_55
REMARK    7  A    between atoms: C_23  and  C_26
REMARK                            x       y       z     vdW  Elec       q    Type
REMARK                         _______ _______ _______ _____ _____    ______ ____
ROOT
ATOM      1  C   UNL     1       0.067   1.320  -2.414  0.00  0.00    +0.025 C 
ATOM      2  C   UNL     1      -0.970   1.364  -3.557  0.00  0.00    +0.023 C 
ATOM      3  C   UNL     1      -2.319   1.032  -2.887  0.00  0.00    +0.097 C 
ATOM      4  C   UNL     1      -1.984   0.816  -1.396  0.00  0.00    -0.046 C 
ATOM      5  N   UNL     1      -0.732   1.561  -1.216  0.00  0.00    +0.392 N 
ATOM      6  H   UNL     1      -0.931   2.564  -1.122  0.00  0.00    -0.080 HD
ENDROOT
BRANCH   1   9
ATOM      7  C   UNL     1       2.897   3.455  -2.984  0.00  0.00    +0.176 A 
ATOM      8  N   UNL     1       2.361   2.223  -2.931  0.00  0.00    -0.197 NA
ATOM      9  C   UNL     1       1.104   2.398  -2.604  0.00  0.00    +0.214 A 
ATOM     10  O   UNL     1       0.915   3.715  -2.476  0.00  0.00    -0.340 OA
ATOM     11  N   UNL     1       1.955   4.301  -2.692  0.00  0.00    -0.061 NA
BRANCH   7  12
ATOM     12  C   UNL     1       4.326   3.793  -3.321  0.00  0.00    +0.114 C 
BRANCH  12  16
ATOM     13  C   UNL     1       4.697   4.370  -7.538  0.00  0.00    +0.000 A 
ATOM     14  C   UNL     1       4.394   5.441  -6.718  0.00  0.00    +0.000 A 
ATOM     15  C   UNL     1       4.274   5.254  -5.353  0.00  0.00    +0.004 A 
ATOM     16  C   UNL     1       4.457   3.997  -4.809  0.00  0.00    -0.040 A 
ATOM     17  C   UNL     1       4.765   2.927  -5.628  0.00  0.00    +0.004 A 
ATOM     18  C   UNL     1       4.881   3.113  -6.993  0.00  0.00    +0.000 A 
ENDBRANCH  12  16
ENDBRANCH   7  12
ENDBRANCH   1   9
BRANCH   3  19
ATOM     19  O   UNL     1      -2.872  -0.160  -3.449  0.00  0.00    -0.394 OA
ATOM     20  H   UNL     1      -3.722  -0.417  -3.066  0.00  0.00    +0.210 HD
ENDBRANCH   3  19
BRANCH   5  21
ATOM     21  C   UNL     1      -0.013   1.086   0.008  0.00  0.00    -0.042 C 
BRANCH  21  22
ATOM     22  C   UNL     1      -0.718   1.572   1.248  0.00  0.00    -0.064 A 
ATOM     23  C   UNL     1      -0.358   2.780   1.817  0.00  0.00    +0.002 A 
ATOM     24  C   UNL     1      -1.004   3.233   2.949  0.00  0.00    +0.010 A 
ATOM     25  C   UNL     1      -2.014   2.465   3.526  0.00  0.00    +0.000 A 
ATOM     26  C   UNL     1      -2.369   1.246   2.951  0.00  0.00    +0.010 A 
ATOM     27  C   UNL     1      -1.720   0.805   1.816  0.00  0.00    +0.002 A 
BRANCH  25  28
ATOM     28  C   UNL     1      -2.709   2.943   4.746  0.00  0.00    +0.071 A 
ATOM     29  C   UNL     1      -2.347   4.163   5.313  0.00  0.00    +0.028 A 
ATOM     30  C   UNL     1      -3.004   4.597   6.452  0.00  0.00    +0.004 A 
ATOM     31  C   UNL     1      -4.003   3.795   6.986  0.00  0.00    +0.020 A 
ATOM     32  C   UNL     1      -4.310   2.595   6.371  0.00  0.00    +0.111 A 
ATOM     33  N   UNL     1      -3.673   2.209   5.285  0.00  0.00    -0.255 NA
ENDBRANCH  25  28
ENDBRANCH  21  22
ENDBRANCH   5  21
TORSDOF 7
