REMARK  Name = ZINC06074569
REMARK  13 active torsions:
REMARK  status: ('A' for Active; 'I' for Inactive)
REMARK    1  A    between atoms: C_1  and  C_2
REMARK    2  A    between atoms: C_2  and  C_3
REMARK    3  A    between atoms: C_2  and  C_4
REMARK    4  A    between atoms: C_2  and  N_5
REMARK    5  A    between atoms: C_6  and  C_8
REMARK    6  A    between atoms: C_8  and  C_10
REMARK    7  A    between atoms: C_8  and  N_17
REMARK    8  A    between atoms: C_13  and  O_16
REMARK    9  A    between atoms: N_17  and  C_18
REMARK   10  A    between atoms: C_18  and  C_19
REMARK   11  A    between atoms: C_24  and  C_26
REMARK   12  A    between atoms: C_26  and  N_27
REMARK   13  A    between atoms: C_29  and  C_32
REMARK                            x       y       z     vdW  Elec       q    Type
REMARK                         _______ _______ _______ _____ _____    ______ ____
ROOT
ATOM      1  N   UNL     1       1.416  -2.844   2.143  0.00  0.00    -0.277 N 
ATOM      2  C   UNL     1       0.642  -3.457   3.061  0.00  0.00    +0.240 C 
ATOM      3  O   UNL     1      -0.523  -3.688   2.815  0.00  0.00    -0.273 OA
ENDROOT
BRANCH   1   4
ATOM      4  C   UNL     1       0.849  -2.456   0.849  0.00  0.00    +0.193 C 
BRANCH   4   5
ATOM      5  C   UNL     1       0.725  -3.673  -0.030  0.00  0.00    -0.018 A 
ATOM      6  C   UNL     1       1.710  -4.644  -0.009  0.00  0.00    +0.009 A 
ATOM      7  C   UNL     1       1.596  -5.763  -0.810  0.00  0.00    +0.046 A 
ATOM      8  C   UNL     1       0.498  -5.908  -1.646  0.00  0.00    +0.117 A 
ATOM      9  C   UNL     1      -0.486  -4.930  -1.669  0.00  0.00    +0.046 A 
ATOM     10  C   UNL     1      -0.370  -3.816  -0.862  0.00  0.00    +0.009 A 
BRANCH   8  11
ATOM     11  O   UNL     1       0.387  -7.005  -2.439  0.00  0.00    -0.507 OA
ATOM     12  H   UNL     1       0.789  -6.901  -3.313  0.00  0.00    +0.292 HD
ENDBRANCH   8  11
ENDBRANCH   4   5
BRANCH   4  14
ATOM     13  N   UNL     1       1.562  -1.119  -1.105  0.00  0.00    -0.309 N 
ATOM     14  C   UNL     1       1.753  -1.448   0.187  0.00  0.00    +0.238 C 
ATOM     15  O   UNL     1       2.652  -0.933   0.818  0.00  0.00    -0.273 OA
ATOM     16  H   UNL     1       0.844  -1.530  -1.610  0.00  0.00    +0.149 HD
BRANCH  13  18
ATOM     17  C   UNL     1       3.885  -0.642  -1.705  0.00  0.00    +0.031 C 
ATOM     18  C   UNL     1       2.441  -0.139  -1.749  0.00  0.00    +0.026 C 
ATOM     19  C   UNL     1       2.012   0.053  -3.205  0.00  0.00    +0.031 C 
ATOM     20  C   UNL     1       2.344   1.197  -1.009  0.00  0.00    +0.031 C 
ENDBRANCH  13  18
ENDBRANCH   4  14
ENDBRANCH   1   4
BRANCH   1  21
ATOM     21  C   UNL     1       2.823  -2.566   2.440  0.00  0.00    +0.183 C 
BRANCH  21  22
ATOM     22  C   UNL     1       2.923  -1.314   3.272  0.00  0.00    +0.122 A 
ATOM     23  C   UNL     1       3.027  -1.267   4.613  0.00  0.00    +0.046 A 
ATOM     24  C   UNL     1       3.094   0.100   4.970  0.00  0.00    +0.041 A 
ATOM     25  C   UNL     1       3.026   0.805   3.827  0.00  0.00    +0.195 A 
ATOM     26  O   UNL     1       2.929  -0.056   2.802  0.00  0.00    -0.466 OA
ENDBRANCH  21  22
ENDBRANCH   1  21
BRANCH   2  27
ATOM     27  C   UNL     1       1.224  -3.857   4.392  0.00  0.00    +0.264 C 
BRANCH  27  28
ATOM     28  N   UNL     1       0.189  -4.500   5.205  0.00  0.00    -0.154 N 
ATOM     29  N   UNL     1      -0.603  -3.893   6.020  0.00  0.00    -0.130 NA
ATOM     30  C   UNL     1      -1.392  -4.798   6.564  0.00  0.00    +0.205 A 
ATOM     31  N   UNL     1      -1.035  -5.981   6.045  0.00  0.00    -0.108 NA
ATOM     32  N   UNL     1      -0.068  -5.762   5.221  0.00  0.00    -0.045 NA
BRANCH  30  33
ATOM     33  C   UNL     1      -2.465  -4.555   7.562  0.00  0.00    +0.023 A 
ATOM     34  C   UNL     1      -2.717  -3.261   8.014  0.00  0.00    +0.014 A 
ATOM     35  C   UNL     1      -3.718  -3.039   8.938  0.00  0.00    +0.039 A 
ATOM     36  C   UNL     1      -4.464  -4.101   9.423  0.00  0.00    +0.123 A 
ATOM     37  C   UNL     1      -4.213  -5.389   8.979  0.00  0.00    +0.039 A 
ATOM     38  C   UNL     1      -3.217  -5.619   8.052  0.00  0.00    +0.014 A 
ATOM     39  F   UNL     1      -5.440  -3.879  10.331  0.00  0.00    -0.205 F 
ENDBRANCH  30  33
ENDBRANCH  27  28
ENDBRANCH   2  27
TORSDOF 10
