REMARK  Name = ZINC10508498
REMARK  8 active torsions:
REMARK  status: ('A' for Active; 'I' for Inactive)
REMARK    1  A    between atoms: C_4  and  C_7
REMARK    2  A    between atoms: C_7  and  C_8
REMARK    3  A    between atoms: C_8  and  O_9
REMARK    4  A    between atoms: O_9  and  C_10
REMARK    5  A    between atoms: C_15  and  C_16
REMARK    6  A    between atoms: C_23  and  C_24
REMARK    7  A    between atoms: C_23  and  C_30
REMARK    8  A    between atoms: C_23  and  N_68
REMARK                            x       y       z     vdW  Elec       q    Type
REMARK                         _______ _______ _______ _____ _____    ______ ____
ROOT
ATOM      1  C   UNL     1      -2.348  -2.570   4.166  0.00  0.00    +0.250 C 
ATOM      2  O   UNL     1      -2.334  -3.783   4.077  0.00  0.00    -0.270 OA
ATOM      3  N   UNL     1      -2.489  -1.815   3.058  0.00  0.00    -0.301 N 
ATOM      4  C   UNL     1      -2.542  -2.433   1.725  0.00  0.00    +0.089 C 
ATOM      5  C   UNL     1      -1.525  -1.727   0.821  0.00  0.00    -0.058 C 
ATOM      6  C   UNL     1      -1.576   0.273   2.192  0.00  0.00    -0.058 C 
ATOM      7  C   UNL     1      -2.594  -0.351   3.152  0.00  0.00    +0.089 C 
ATOM      8  N   UNL     1      -1.804  -0.275   0.837  0.00  0.00    +0.389 N 
ATOM      9  H   UNL     1      -2.785  -0.121   0.576  0.00  0.00    -0.080 HD
ENDROOT
BRANCH   1  15
ATOM     10  C   UNL     1      -1.133  -2.256   6.321  0.00  0.00    +0.133 A 
ATOM     11  C   UNL     1      -1.013  -1.643   7.560  0.00  0.00    +0.046 A 
ATOM     12  C   UNL     1      -1.948  -0.713   7.966  0.00  0.00    +0.004 A 
ATOM     13  C   UNL     1      -3.013  -0.384   7.142  0.00  0.00    +0.001 A 
ATOM     14  C   UNL     1      -3.146  -0.979   5.907  0.00  0.00    +0.017 A 
ATOM     15  C   UNL     1      -2.209  -1.926   5.486  0.00  0.00    +0.078 A 
BRANCH  10  16
ATOM     16  O   UNL     1      -0.215  -3.170   5.921  0.00  0.00    -0.491 OA
BRANCH  16  17
ATOM     17  C   UNL     1       0.854  -3.455   6.826  0.00  0.00    +0.233 C 
BRANCH  17  18
ATOM     18  C   UNL     1       1.782  -4.502   6.206  0.00  0.00    +0.076 C 
BRANCH  18  22
ATOM     19  C   UNL     1       4.976  -5.354   8.911  0.00  0.00    +0.000 A 
ATOM     20  C   UNL     1       3.806  -6.089   8.969  0.00  0.00    +0.000 A 
ATOM     21  C   UNL     1       2.773  -5.813   8.093  0.00  0.00    +0.004 A 
ATOM     22  C   UNL     1       2.909  -4.802   7.160  0.00  0.00    -0.044 A 
ATOM     23  C   UNL     1       4.080  -4.071   7.098  0.00  0.00    +0.004 A 
ATOM     24  C   UNL     1       5.112  -4.344   7.978  0.00  0.00    +0.000 A 
ENDBRANCH  18  22
ENDBRANCH  17  18
ENDBRANCH  16  17
ENDBRANCH  10  16
ENDBRANCH   1  15
BRANCH   8  25
ATOM     25  C   UNL     1      -0.935   0.416  -0.139  0.00  0.00    -0.007 C 
BRANCH  25  26
ATOM     26  C   UNL     1      -1.218   1.895  -0.085  0.00  0.00    -0.057 A 
ATOM     27  C   UNL     1      -2.516   2.345   0.067  0.00  0.00    +0.002 A 
ATOM     28  C   UNL     1      -2.775   3.702   0.121  0.00  0.00    +0.000 A 
ATOM     29  C   UNL     1      -1.737   4.609   0.014  0.00  0.00    +0.000 A 
ATOM     30  C   UNL     1      -0.440   4.159  -0.143  0.00  0.00    +0.000 A 
ATOM     31  C   UNL     1      -0.180   2.802  -0.192  0.00  0.00    +0.002 A 
ENDBRANCH  25  26
BRANCH  25  32
ATOM     32  C   UNL     1      -1.242  -0.104  -1.519  0.00  0.00    -0.057 A 
ATOM     33  C   UNL     1      -2.548  -0.382  -1.878  0.00  0.00    +0.002 A 
ATOM     34  C   UNL     1      -2.831  -0.854  -3.146  0.00  0.00    +0.000 A 
ATOM     35  C   UNL     1      -1.807  -1.059  -4.052  0.00  0.00    +0.000 A 
ATOM     36  C   UNL     1      -0.500  -0.787  -3.691  0.00  0.00    +0.000 A 
ATOM     37  C   UNL     1      -0.218  -0.309  -2.425  0.00  0.00    +0.002 A 
ENDBRANCH  25  32
ENDBRANCH   8  25
TORSDOF 8
