REMARK  Name = ZINC63138511
REMARK  9 active torsions:
REMARK  status: ('A' for Active; 'I' for Inactive)
REMARK    1  A    between atoms: C_1  and  O_2
REMARK    2  A    between atoms: O_2  and  C_3
REMARK    3  A    between atoms: C_6  and  C_9
REMARK    4  A    between atoms: C_9  and  N_10
REMARK    5  A    between atoms: C_30  and  C_32
REMARK    6  A    between atoms: C_35  and  O_40
REMARK    7  A    between atoms: C_36  and  O_38
REMARK    8  A    between atoms: O_38  and  C_39
REMARK    9  A    between atoms: O_40  and  C_41
REMARK                            x       y       z     vdW  Elec       q    Type
REMARK                         _______ _______ _______ _____ _____    ______ ____
ROOT
ATOM      1  N   UNL     1      -5.456  -2.873  -1.329  0.00  0.00    -0.287 N 
ATOM      2  C   UNL     1      -6.253  -1.842  -1.973  0.00  0.00    +0.204 C 
ATOM      3  C   UNL     1      -6.629  -2.209  -3.370  0.00  0.00    +0.234 C 
ATOM      4  O   UNL     1      -7.299  -1.417  -3.999  0.00  0.00    -0.274 OA
ATOM      5  N   UNL     1      -6.279  -3.349  -3.978  0.00  0.00    -0.279 N 
ATOM      6  C   UNL     1      -5.461  -4.368  -3.330  0.00  0.00    +0.167 C 
ATOM      7  C   UNL     1      -5.091  -4.004  -1.930  0.00  0.00    +0.237 C 
ATOM      8  O   UNL     1      -4.419  -4.791  -1.298  0.00  0.00    -0.274 OA
ATOM      9  C   UNL     1      -4.183  -4.615  -4.152  0.00  0.00    +0.065 C 
ATOM     10  C   UNL     1      -4.614  -4.738  -5.592  0.00  0.00    -0.034 C 
ATOM     11  C   UNL     1      -4.365  -5.664  -6.510  0.00  0.00    -0.001 A 
ATOM     12  C   UNL     1      -3.489  -6.846  -6.496  0.00  0.00    +0.010 A 
ATOM     13  C   UNL     1      -3.489  -7.606  -7.624  0.00  0.00    +0.001 A 
ATOM     14  C   UNL     1      -4.263  -7.310  -8.750  0.00  0.00    +0.002 A 
ATOM     15  C   UNL     1      -5.089  -6.238  -8.854  0.00  0.00    +0.026 A 
ATOM     16  C   UNL     1      -5.168  -5.360  -7.734  0.00  0.00    +0.043 A 
ATOM     17  N   UNL     1      -5.848  -4.264  -7.571  0.00  0.00    -0.375 N 
ATOM     18  C   UNL     1      -5.518  -3.707  -6.258  0.00  0.00    +0.131 C 
ATOM     19  C   UNL     1      -6.752  -3.566  -5.364  0.00  0.00    +0.134 C 
ATOM     20  H   UNL     1      -6.469  -3.881  -8.210  0.00  0.00    +0.160 HD
ENDROOT
BRANCH  19  21
ATOM     21  C   UNL     1      -7.577  -2.387  -5.813  0.00  0.00    -0.021 A 
ATOM     22  C   UNL     1      -8.952  -2.415  -5.677  0.00  0.00    +0.009 A 
ATOM     23  C   UNL     1      -9.713  -1.337  -6.087  0.00  0.00    +0.050 A 
ATOM     24  C   UNL     1      -9.097  -0.224  -6.637  0.00  0.00    +0.162 A 
ATOM     25  C   UNL     1      -7.713  -0.195  -6.774  0.00  0.00    +0.162 A 
ATOM     26  C   UNL     1      -6.956  -1.278  -6.356  0.00  0.00    +0.055 A 
BRANCH  25  27
ATOM     27  O   UNL     1      -7.104   0.895  -7.312  0.00  0.00    -0.491 OA
ATOM     28  C   UNL     1      -5.679   0.855  -7.422  0.00  0.00    +0.277 C 
ENDBRANCH  25  27
BRANCH  24  29
ATOM     29  O   UNL     1      -9.844   0.838  -7.042  0.00  0.00    -0.491 OA
ATOM     30  C   UNL     1     -11.259   0.739  -6.871  0.00  0.00    +0.277 C 
ENDBRANCH  24  29
ENDBRANCH  19  21
BRANCH   1  31
ATOM     31  C   UNL     1      -5.025  -2.653   0.053  0.00  0.00    +0.143 C 
BRANCH  31  35
ATOM     32  C   UNL     1      -1.250  -0.650   0.068  0.00  0.00    +0.120 A 
ATOM     33  C   UNL     1      -2.427   0.085   0.072  0.00  0.00    +0.046 A 
ATOM     34  C   UNL     1      -3.646  -0.565   0.067  0.00  0.00    +0.009 A 
ATOM     35  C   UNL     1      -3.694  -1.947   0.058  0.00  0.00    -0.030 A 
ATOM     36  C   UNL     1      -2.523  -2.682   0.054  0.00  0.00    +0.009 A 
ATOM     37  C   UNL     1      -1.301  -2.037   0.053  0.00  0.00    +0.046 A 
BRANCH  32  39
ATOM     38  C   UNL     1      -0.073   1.415   0.088  0.00  0.00    +0.277 C 
ATOM     39  O   UNL     1      -0.050  -0.013   0.072  0.00  0.00    -0.495 OA
ENDBRANCH  32  39
ENDBRANCH  31  35
ENDBRANCH   1  31
TORSDOF 6
