REMARK  Name = ZINC38592354
REMARK  10 active torsions:
REMARK  status: ('A' for Active; 'I' for Inactive)
REMARK    1  A    between atoms: C_1  and  C_2
REMARK    2  A    between atoms: C_2  and  O_3
REMARK    3  A    between atoms: O_3  and  C_4
REMARK    4  A    between atoms: C_4  and  C_6
REMARK    5  A    between atoms: C_8  and  N_17
REMARK    6  A    between atoms: C_18  and  C_20
REMARK    7  A    between atoms: C_20  and  N_21
REMARK    8  A    between atoms: N_24  and  C_27
REMARK    9  A    between atoms: C_31  and  C_34
REMARK   10  A    between atoms: C_32  and  C_33
REMARK                            x       y       z     vdW  Elec       q    Type
REMARK                         _______ _______ _______ _____ _____    ______ ____
ROOT
ATOM      1  N   UNL     1      -3.294  -0.991   2.303  0.00  0.00    -0.285 N 
ATOM      2  C   UNL     1      -3.773  -1.237   3.538  0.00  0.00    +0.231 C 
ATOM      3  O   UNL     1      -3.640  -2.336   4.032  0.00  0.00    -0.274 OA
ATOM      4  H   UNL     1      -3.340  -0.095   1.935  0.00  0.00    +0.155 HD
ENDROOT
BRANCH   1   6
ATOM      5  C   UNL     1      -2.729  -3.474   1.916  0.00  0.00    +0.234 C 
ATOM      6  C   UNL     1      -2.746  -2.002   1.571  0.00  0.00    +0.053 C 
ATOM      7  C   UNL     1      -2.090  -1.893   0.357  0.00  0.00    +0.020 A 
ATOM      8  C   UNL     1      -1.790  -0.783  -0.470  0.00  0.00    +0.050 A 
ATOM      9  C   UNL     1      -1.119  -0.975  -1.634  0.00  0.00    +0.124 A 
ATOM     10  C   UNL     1      -0.712  -2.250  -2.044  0.00  0.00    +0.040 A 
ATOM     11  C   UNL     1      -0.966  -3.355  -1.303  0.00  0.00    +0.029 A 
ATOM     12  C   UNL     1      -1.663  -3.236  -0.073  0.00  0.00    +0.045 A 
ATOM     13  N   UNL     1      -2.026  -4.141   0.816  0.00  0.00    -0.367 N 
ATOM     14  F   UNL     1      -0.838   0.090  -2.416  0.00  0.00    -0.205 F 
ATOM     15  H   UNL     1      -1.855  -5.094   0.753  0.00  0.00    +0.161 HD
BRANCH   5  16
ATOM     16  C   UNL     1      -4.138  -3.998   2.025  0.00  0.00    +0.336 C 
ATOM     17  O   UNL     1      -4.783  -4.208   1.025  0.00  0.00    -0.248 OA
BRANCH  16  18
ATOM     18  O   UNL     1      -4.677  -4.231   3.232  0.00  0.00    -0.463 OA
BRANCH  18  20
ATOM     19  C   UNL     1      -6.438  -4.979   4.708  0.00  0.00    +0.048 C 
ATOM     20  C   UNL     1      -5.959  -4.862   3.260  0.00  0.00    +0.229 C 
ENDBRANCH  18  20
ENDBRANCH  16  18
ENDBRANCH   5  16
ENDBRANCH   1   6
BRANCH   2  21
ATOM     21  C   UNL     1      -4.475  -0.146   4.306  0.00  0.00    +0.180 C 
BRANCH  21  22
ATOM     22  N   UNL     1      -4.748  -0.607   5.673  0.00  0.00    -0.291 NA
ATOM     23  C   UNL     1      -5.878  -1.546   5.696  0.00  0.00    +0.104 C 
ATOM     24  C   UNL     1      -6.016  -2.140   7.102  0.00  0.00    +0.120 C 
ATOM     25  N   UNL     1      -6.105  -1.036   8.069  0.00  0.00    -0.327 N 
ATOM     26  C   UNL     1      -5.081   0.019   8.017  0.00  0.00    +0.120 C 
ATOM     27  C   UNL     1      -4.981   0.529   6.575  0.00  0.00    +0.104 C 
BRANCH  25  28
ATOM     28  C   UNL     1      -7.134  -0.990   9.012  0.00  0.00    +0.033 A 
ATOM     29  C   UNL     1      -6.965  -1.584  10.257  0.00  0.00    +0.023 A 
ATOM     30  C   UNL     1      -7.984  -1.537  11.187  0.00  0.00    +0.002 A 
ATOM     31  C   UNL     1      -9.173  -0.899  10.881  0.00  0.00    +0.004 A 
ATOM     32  C   UNL     1      -9.345  -0.307   9.643  0.00  0.00    -0.046 A 
ATOM     33  C   UNL     1      -8.327  -0.346   8.710  0.00  0.00    -0.027 A 
ATOM     34  C   UNL     1      -8.512   0.305   7.364  0.00  0.00    +0.046 C 
ATOM     35  C   UNL     1     -10.642   0.385   9.314  0.00  0.00    +0.044 C 
ENDBRANCH  25  28
ENDBRANCH  21  22
ENDBRANCH   2  21
TORSDOF 7
