REMARK  Name = ZINC39913619
REMARK  10 active torsions:
REMARK  status: ('A' for Active; 'I' for Inactive)
REMARK    1  A    between atoms: C_1  and  C_2
REMARK    2  A    between atoms: C_2  and  O_3
REMARK    3  A    between atoms: O_3  and  C_4
REMARK    4  A    between atoms: C_6  and  C_14
REMARK    5  A    between atoms: C_9  and  O_10
REMARK    6  A    between atoms: O_10  and  C_11
REMARK    7  A    between atoms: C_11  and  C_12
REMARK    8  A    between atoms: C_22  and  C_37
REMARK    9  A    between atoms: N_29  and  C_30
REMARK   10  A    between atoms: C_30  and  C_31
REMARK                            x       y       z     vdW  Elec       q    Type
REMARK                         _______ _______ _______ _____ _____    ______ ____
ROOT
ATOM      1  C   UNL     1      -0.217  -4.963  -0.535  0.00  0.00    +0.145 C 
ATOM      2  C   UNL     1       0.860  -5.496  -1.422  0.00  0.00    +0.072 A 
ATOM      3  C   UNL     1       1.796  -4.814  -2.323  0.00  0.00    +0.199 A 
ATOM      4  O   UNL     1       1.937  -3.604  -2.347  0.00  0.00    -0.287 OA
ATOM      5  C   UNL     1       2.555  -5.739  -3.201  0.00  0.00    +0.066 A 
ATOM      6  C   UNL     1       3.334  -5.240  -4.246  0.00  0.00    +0.035 A 
ATOM      7  C   UNL     1       4.028  -6.114  -5.054  0.00  0.00    +0.045 A 
ATOM      8  C   UNL     1       3.950  -7.482  -4.829  0.00  0.00    -0.029 A 
ATOM      9  C   UNL     1       3.186  -7.985  -3.801  0.00  0.00    +0.051 A 
ATOM     10  C   UNL     1       2.476  -7.122  -2.966  0.00  0.00    +0.140 A 
ATOM     11  O   UNL     1       1.741  -7.642  -1.957  0.00  0.00    -0.450 OA
ATOM     12  C   UNL     1       0.874  -6.855  -1.289  0.00  0.00    +0.199 A 
ATOM     13  C   UNL     1      -0.180  -7.237  -0.333  0.00  0.00    +0.283 C 
ATOM     14  O   UNL     1      -0.433  -8.377   0.005  0.00  0.00    -0.267 OA
ATOM     15  N   UNL     1      -0.823  -6.137   0.114  0.00  0.00    -0.279 N 
ATOM     16  C   UNL     1       4.711  -8.428  -5.721  0.00  0.00    +0.045 C 
ATOM     17 CL   UNL     1       5.000  -5.503  -6.357  0.00  0.00    -0.083 Cl
ENDROOT
BRANCH   1  20
ATOM     18  C   UNL     1       0.802  -1.825   1.306  0.00  0.00    +0.162 A 
ATOM     19  C   UNL     1       0.261  -2.673   0.353  0.00  0.00    +0.055 A 
ATOM     20  C   UNL     1       0.372  -4.043   0.502  0.00  0.00    -0.019 A 
ATOM     21  C   UNL     1       1.024  -4.570   1.602  0.00  0.00    +0.009 A 
ATOM     22  C   UNL     1       1.566  -3.730   2.557  0.00  0.00    +0.050 A 
ATOM     23  C   UNL     1       1.462  -2.356   2.410  0.00  0.00    +0.162 A 
BRANCH  18  24
ATOM     24  O   UNL     1       0.693  -0.477   1.160  0.00  0.00    -0.489 OA
BRANCH  24  26
ATOM     25  C   UNL     1      -0.019   1.526   0.010  0.00  0.00    +0.048 C 
ATOM     26  C   UNL     1       0.002  -0.004   0.002  0.00  0.00    +0.226 C 
ENDBRANCH  24  26
ENDBRANCH  18  24
BRANCH  23  27
ATOM     27  O   UNL     1       2.000  -1.528   3.345  0.00  0.00    -0.484 OA
BRANCH  27  28
ATOM     28  C   UNL     1       2.664  -2.143   4.451  0.00  0.00    +0.256 C 
BRANCH  28  29
ATOM     29  C   UNL     1       3.191  -1.077   5.376  0.00  0.00    +0.006 C 
ATOM     30  C   UNL     1       3.026  -1.192   6.671  0.00  0.00    +0.007 C 
ENDBRANCH  28  29
ENDBRANCH  27  28
ENDBRANCH  23  27
ENDBRANCH   1  20
BRANCH  15  31
ATOM     31  C   UNL     1      -1.928  -6.115   1.075  0.00  0.00    +0.144 C 
BRANCH  31  32
ATOM     32  C   UNL     1      -3.238  -6.217   0.336  0.00  0.00    -0.030 A 
ATOM     33  C   UNL     1      -3.883  -5.070  -0.089  0.00  0.00    +0.005 A 
ATOM     34  C   UNL     1      -5.084  -5.163  -0.766  0.00  0.00    +0.000 A 
ATOM     35  C   UNL     1      -5.641  -6.403  -1.018  0.00  0.00    +0.000 A 
ATOM     36  C   UNL     1      -4.996  -7.550  -0.594  0.00  0.00    +0.000 A 
ATOM     37  C   UNL     1      -3.792  -7.457   0.079  0.00  0.00    +0.005 A 
ENDBRANCH  31  32
ENDBRANCH  15  31
TORSDOF 8
