REMARK  Name = ZINC00549815
REMARK  8 active torsions:
REMARK  status: ('A' for Active; 'I' for Inactive)
REMARK    1  A    between atoms: C_1  and  C_2
REMARK    2  A    between atoms: C_2  and  C_3
REMARK    3  A    between atoms: C_2  and  C_4
REMARK    4  A    between atoms: C_7  and  C_18
REMARK    5  A    between atoms: C_13  and  N_17
REMARK    6  A    between atoms: C_14  and  C_15
REMARK    7  A    between atoms: C_18  and  S_19
REMARK    8  A    between atoms: S_19  and  C_20
REMARK                            x       y       z     vdW  Elec       q    Type
REMARK                         _______ _______ _______ _____ _____    ______ ____
ROOT
ATOM      1  C   UNL     1      -1.425  -0.549   0.066  0.00  0.00    +0.074 C 
ATOM      2  C   UNL     1      -1.391  -2.052   0.171  0.00  0.00    +0.046 A 
ATOM      3  C   UNL     1      -1.023  -2.850   1.246  0.00  0.00    +0.080 A 
ATOM      4  N   UNL     1      -1.149  -4.105   0.883  0.00  0.00    -0.175 NA
ATOM      5  N   UNL     1      -1.605  -4.139  -0.444  0.00  0.00    -0.246 N 
ATOM      6  H   UNL     1      -1.785  -4.937  -0.965  0.00  0.00    +0.192 HD
ATOM      7  C   UNL     1      -1.749  -2.872  -0.863  0.00  0.00    +0.222 A 
ATOM      8  O   UNL     1      -2.164  -2.398  -2.063  0.00  0.00    -0.423 OA
ATOM      9  C   UNL     1      -2.484  -1.090  -2.142  0.00  0.00    +0.200 C 
ATOM     10  C   UNL     1      -2.174  -0.180  -1.190  0.00  0.00    +0.094 C 
ENDROOT
BRANCH   1  12
ATOM     11  C   UNL     1       0.669  -0.489  -1.296  0.00  0.00    +0.008 C 
ATOM     12  C   UNL     1       0.003  -0.005  -0.006  0.00  0.00    -0.004 C 
ATOM     13  C   UNL     1      -0.032   1.525   0.006  0.00  0.00    +0.008 C 
ENDBRANCH   1  12
BRANCH   9  14
ATOM     14  N   UNL     1      -3.164  -0.656  -3.253  0.00  0.00    -0.328 N 
ATOM     15  H   UNL     1      -3.400  -1.285  -3.953  0.00  0.00    +0.145 HD
ATOM     16  H   UNL     1      -3.408   0.279  -3.338  0.00  0.00    +0.145 HD
ENDBRANCH   9  14
BRANCH  10  17
ATOM     17  C   UNL     1      -2.571   1.182  -1.382  0.00  0.00    +0.100 C 
ATOM     18  N   UNL     1      -2.885   2.263  -1.534  0.00  0.00    -0.191 NA
ENDBRANCH  10  17
BRANCH   3  19
ATOM     19  C   UNL     1      -0.559  -2.360   2.593  0.00  0.00    +0.132 C 
BRANCH  19  20
ATOM     20  S   UNL     1      -1.968  -2.304   3.734  0.00  0.00    -0.119 S 
BRANCH  20  21
ATOM     21  C   UNL     1      -1.272  -1.721   5.244  0.00  0.00    +0.008 A 
ATOM     22  C   UNL     1       0.084  -1.424   5.316  0.00  0.00    +0.015 A 
ATOM     23  C   UNL     1       0.626  -0.967   6.501  0.00  0.00    +0.001 A 
ATOM     24  C   UNL     1      -0.178  -0.804   7.615  0.00  0.00    +0.000 A 
ATOM     25  C   UNL     1      -1.527  -1.099   7.546  0.00  0.00    +0.001 A 
ATOM     26  C   UNL     1      -2.078  -1.551   6.363  0.00  0.00    +0.015 A 
ENDBRANCH  20  21
ENDBRANCH  19  20
ENDBRANCH   3  19
TORSDOF 6
