REMARK  Name = ZINC09081071
REMARK  13 active torsions:
REMARK  status: ('A' for Active; 'I' for Inactive)
REMARK    1  A    between atoms: C_1  and  N_2
REMARK    2  A    between atoms: N_2  and  C_3
REMARK    3  A    between atoms: N_2  and  C_4
REMARK    4  A    between atoms: C_7  and  C_10
REMARK    5  A    between atoms: C_10  and  C_12
REMARK    6  A    between atoms: C_10  and  S_25
REMARK    7  A    between atoms: C_12  and  N_13
REMARK    8  A    between atoms: N_13  and  S_14
REMARK    9  A    between atoms: S_14  and  C_17
REMARK   10  A    between atoms: C_17  and  C_18
REMARK   11  A    between atoms: S_25  and  C_28
REMARK   12  A    between atoms: C_31  and  O_34
REMARK   13  A    between atoms: O_34  and  C_35
REMARK                            x       y       z     vdW  Elec       q    Type
REMARK                         _______ _______ _______ _____ _____    ______ ____
ROOT
ATOM      1  C   UNL     1       1.866   1.107   4.370  0.00  0.00    +0.181 C 
ENDROOT
BRANCH   1   5
ATOM      2  C   UNL     1       5.889   2.413   4.977  0.00  0.00    +0.029 A 
ATOM      3  C   UNL     1       4.876   2.872   5.809  0.00  0.00    +0.023 A 
ATOM      4  C   UNL     1       3.576   2.448   5.610  0.00  0.00    +0.007 A 
ATOM      5  C   UNL     1       3.284   1.567   4.584  0.00  0.00    -0.022 A 
ATOM      6  C   UNL     1       4.292   1.104   3.758  0.00  0.00    +0.007 A 
ATOM      7  C   UNL     1       5.593   1.529   3.948  0.00  0.00    +0.023 A 
BRANCH   2   9
ATOM      8  C   UNL     1       7.516   3.772   6.262  0.00  0.00    +0.129 C 
ATOM      9  N   UNL     1       7.205   2.840   5.176  0.00  0.00    -0.336 N 
ATOM     10  C   UNL     1       8.273   2.355   4.298  0.00  0.00    +0.129 C 
ENDBRANCH   2   9
ENDBRANCH   1   5
BRANCH   1  11
ATOM     11  S   UNL     1       1.784  -0.698   4.536  0.00  0.00    +0.005 S 
ATOM     12  O   UNL     1       0.431  -1.131   4.515  0.00  0.00    -0.169 OA
ATOM     13  O   UNL     1       2.754  -1.311   3.698  0.00  0.00    -0.169 OA
BRANCH  11  14
ATOM     14  C   UNL     1       2.336  -1.026   6.177  0.00  0.00    +0.089 A 
ATOM     15  C   UNL     1       3.678  -1.248   6.423  0.00  0.00    +0.030 A 
ATOM     16  C   UNL     1       4.114  -1.501   7.709  0.00  0.00    +0.047 A 
ATOM     17  C   UNL     1       3.201  -1.543   8.754  0.00  0.00    +0.120 A 
ATOM     18  C   UNL     1       1.854  -1.325   8.504  0.00  0.00    +0.047 A 
ATOM     19  C   UNL     1       1.424  -1.068   7.216  0.00  0.00    +0.030 A 
BRANCH  17  20
ATOM     20  O   UNL     1       3.627  -1.796  10.019  0.00  0.00    -0.495 OA
ATOM     21  C   UNL     1       5.028  -2.010  10.202  0.00  0.00    +0.277 C 
ENDBRANCH  17  20
ENDBRANCH  11  14
ENDBRANCH   1  11
BRANCH   1  22
ATOM     22  C   UNL     1       1.404   1.511   2.968  0.00  0.00    +0.136 C 
BRANCH  22  23
ATOM     23  N   UNL     1       0.025   1.063   2.760  0.00  0.00    -0.192 NA
ATOM     24  H   UNL     1      -0.369   0.411   3.360  0.00  0.00    +0.148 HD
BRANCH  23  25
ATOM     25  S   UNL     1      -0.862   1.671   1.500  0.00  0.00    +0.034 S 
ATOM     26  O   UNL     1      -0.735   3.082   1.615  0.00  0.00    -0.158 OA
ATOM     27  O   UNL     1      -2.133   1.046   1.617  0.00  0.00    -0.158 OA
BRANCH  25  28
ATOM     28  C   UNL     1      -0.013   1.086   0.008  0.00  0.00    +0.220 C 
BRANCH  28  29
ATOM     29  C   UNL     1      -0.742   1.585  -1.213  0.00  0.00    -0.024 A 
ATOM     30  C   UNL     1      -0.398   2.801  -1.774  0.00  0.00    +0.005 A 
ATOM     31  C   UNL     1      -1.066   3.260  -2.894  0.00  0.00    +0.002 A 
ATOM     32  C   UNL     1      -2.078   2.502  -3.453  0.00  0.00    +0.020 A 
ATOM     33  C   UNL     1      -2.422   1.286  -2.892  0.00  0.00    +0.041 A 
ATOM     34  C   UNL     1      -1.750   0.825  -1.775  0.00  0.00    +0.025 A 
ATOM     35 CL   UNL     1      -3.694   0.335  -3.594  0.00  0.00    -0.084 Cl
ENDBRANCH  28  29
ENDBRANCH  25  28
ENDBRANCH  23  25
ENDBRANCH  22  23
ENDBRANCH   1  22
TORSDOF 10
