REMARK  Name = ZINC52566241
REMARK  5 active torsions:
REMARK  status: ('A' for Active; 'I' for Inactive)
REMARK    1  A    between atoms: C_4  and  C_7
REMARK    2  A    between atoms: C_16  and  O_35
REMARK    3  A    between atoms: C_17  and  C_18
REMARK    4  A    between atoms: C_22  and  C_33
REMARK    5  A    between atoms: C_24  and  C_26
REMARK                            x       y       z     vdW  Elec       q    Type
REMARK                         _______ _______ _______ _____ _____    ______ ____
ROOT
ATOM      1  C   UNL     1       3.696  -0.685  -0.038  0.00  0.00    -0.000 A 
ATOM      2  C   UNL     1       4.571  -0.605   1.029  0.00  0.00    +0.101 A 
ATOM      3  C   UNL     1       5.790  -1.302   0.977  0.00  0.00    +0.338 A 
ATOM      4  O   UNL     1       6.557  -1.227   1.921  0.00  0.00    -0.245 OA
ATOM      5  O   UNL     1       6.132  -2.049  -0.085  0.00  0.00    -0.421 OA
ATOM      6  C   UNL     1       5.328  -2.172  -1.159  0.00  0.00    +0.152 A 
ATOM      7  C   UNL     1       4.090  -1.514  -1.190  0.00  0.00    +0.026 A 
ATOM      8  C   UNL     1       3.250  -1.644  -2.301  0.00  0.00    +0.016 A 
ATOM      9  C   UNL     1       3.633  -2.423  -3.369  0.00  0.00    +0.047 A 
ATOM     10  C   UNL     1       4.854  -3.087  -3.355  0.00  0.00    +0.129 A 
ATOM     11  C   UNL     1       5.715  -2.961  -2.254  0.00  0.00    +0.082 A 
ENDROOT
BRANCH  11  12
ATOM     12  C   UNL     1       7.008  -3.665  -2.240  0.00  0.00    +0.071 C 
ATOM     13  N   UNL     1       7.043  -4.893  -1.751  0.00  0.00    -0.179 NA
ATOM     14  C   UNL     1       8.160  -5.612  -1.694  0.00  0.00    +0.258 C 
ATOM     15  O   UNL     1       8.151  -6.738  -1.237  0.00  0.00    -0.272 OA
ATOM     16  C   UNL     1       9.444  -4.998  -2.212  0.00  0.00    +0.209 C 
ATOM     17  C   UNL     1       9.355  -3.588  -2.763  0.00  0.00    -0.013 C 
ATOM     18  C   UNL     1       8.136  -2.992  -2.754  0.00  0.00    +0.032 C 
BRANCH  17  19
ATOM     19  C   UNL     1      10.540  -2.897  -3.291  0.00  0.00    -0.020 A 
ATOM     20  C   UNL     1      11.181  -3.377  -4.439  0.00  0.00    +0.009 A 
ATOM     21  C   UNL     1      12.292  -2.724  -4.927  0.00  0.00    +0.020 A 
ATOM     22  C   UNL     1      12.774  -1.595  -4.285  0.00  0.00    +0.041 A 
ATOM     23  C   UNL     1      12.145  -1.113  -3.148  0.00  0.00    +0.020 A 
ATOM     24  C   UNL     1      11.030  -1.753  -2.651  0.00  0.00    +0.009 A 
ATOM     25 CL   UNL     1      14.175  -0.779  -4.907  0.00  0.00    -0.084 Cl
ENDBRANCH  17  19
BRANCH  16  26
ATOM     26  C   UNL     1      10.421  -4.994  -1.111  0.00  0.00    +0.080 C 
ATOM     27  N   UNL     1      11.176  -4.990  -0.262  0.00  0.00    -0.195 NA
ENDBRANCH  16  26
ENDBRANCH  11  12
BRANCH   1  31
ATOM     28  C   UNL     1      -0.017   1.379   0.010  0.00  0.00    +0.000 A 
ATOM     29  C   UNL     1       1.169   2.094   0.002  0.00  0.00    +0.001 A 
ATOM     30  C   UNL     1       2.377   1.429  -0.013  0.00  0.00    +0.008 A 
ATOM     31  C   UNL     1       2.403   0.034  -0.021  0.00  0.00    -0.017 A 
ATOM     32  C   UNL     1       1.204  -0.680  -0.013  0.00  0.00    +0.008 A 
ATOM     33  C   UNL     1       0.002  -0.004   0.002  0.00  0.00    +0.001 A 
ENDBRANCH   1  31
BRANCH  10  34
ATOM     34  O   UNL     1       5.219  -3.852  -4.412  0.00  0.00    -0.506 OA
ATOM     35  H   UNL     1       5.710  -3.373  -5.093  0.00  0.00    +0.292 HD
ENDBRANCH  10  34
TORSDOF 5
