REMARK  Name = ZINC50308852
REMARK  6 active torsions:
REMARK  status: ('A' for Active; 'I' for Inactive)
REMARK    1  A    between atoms: C_1  and  C_2
REMARK    2  A    between atoms: C_4  and  C_9
REMARK    3  A    between atoms: C_7  and  N_8
REMARK    4  A    between atoms: C_12  and  C_14
REMARK    5  A    between atoms: C_14  and  C_15
REMARK    6  A    between atoms: C_14  and  C_16
REMARK                            x       y       z     vdW  Elec       q    Type
REMARK                         _______ _______ _______ _____ _____    ______ ____
ROOT
ATOM      1  C   UNL     1      -0.018   1.503   0.010  0.00  0.00    +0.045 C 
ATOM      2  C   UNL     1       0.002  -0.004   0.002  0.00  0.00    -0.029 A 
ATOM      3  C   UNL     1       0.006  -0.686  -1.195  0.00  0.00    +0.018 A 
ATOM      4  C   UNL     1       0.025  -2.082  -1.202  0.00  0.00    +0.039 A 
ATOM      5  C   UNL     1       0.041  -2.783   0.006  0.00  0.00    +0.015 A 
ATOM      6  C   UNL     1       0.037  -2.096   1.199  0.00  0.00    +0.024 A 
ATOM      7  C   UNL     1       0.023  -0.705   1.203  0.00  0.00    +0.028 A 
ENDROOT
BRANCH   4   8
ATOM      8  C   UNL     1       0.029  -2.816  -2.484  0.00  0.00    +0.248 A 
ATOM      9  N   UNL     1       0.021  -2.286  -3.685  0.00  0.00    -0.107 NA
ATOM     10  N   UNL     1       0.027  -3.225  -4.564  0.00  0.00    -0.112 NA
ATOM     11  C   UNL     1       0.039  -4.383  -3.965  0.00  0.00    +0.220 A 
ATOM     12  O   UNL     1       0.046  -4.155  -2.639  0.00  0.00    -0.420 OA
BRANCH  11  13
ATOM     13  C   UNL     1       0.050  -5.732  -4.636  0.00  0.00    +0.071 C 
ATOM     14  C   UNL     1      -1.200  -5.879  -5.506  0.00  0.00    +0.017 C 
ATOM     15  C   UNL     1       1.299  -5.856  -5.511  0.00  0.00    +0.017 C 
ENDBRANCH  11  13
ENDBRANCH   4   8
BRANCH   7  16
ATOM     16  N   UNL     1       0.025  -0.012   2.413  0.00  0.00    -0.358 N 
ATOM     17  H   UNL     1       0.011   0.958   2.417  0.00  0.00    +0.142 HD
ATOM     18  H   UNL     1       0.039  -0.500   3.251  0.00  0.00    +0.142 HD
ENDBRANCH   7  16
TORSDOF 3
