REMARK  Name = ZINC39927244
REMARK  5 active torsions:
REMARK  status: ('A' for Active; 'I' for Inactive)
REMARK    1  A    between atoms: C_1  and  C_2
REMARK    2  A    between atoms: C_6  and  S_10
REMARK    3  A    between atoms: S_10  and  C_11
REMARK    4  A    between atoms: C_11  and  C_12
REMARK    5  A    between atoms: C_16  and  C_18
REMARK                            x       y       z     vdW  Elec       q    Type
REMARK                         _______ _______ _______ _____ _____    ______ ____
ROOT
ATOM      1  C   UNL     1      -0.018   1.503   0.010  0.00  0.00    +0.041 C 
ATOM      2  C   UNL     1       0.002  -0.004   0.002  0.00  0.00    -0.034 C 
ATOM      3  C   UNL     1       0.006  -0.689  -1.148  0.00  0.00    +0.071 C 
ATOM      4  C   UNL     1       0.026  -2.167  -1.067  0.00  0.00    +0.113 C 
ATOM      5  N   UNL     1       0.031  -2.894  -2.155  0.00  0.00    -0.217 NA
ATOM      6  C   UNL     1       0.017  -2.333  -3.364  0.00  0.00    +0.182 C 
ATOM      7  N   UNL     1      -0.001  -1.024  -3.554  0.00  0.00    -0.151 NA
ATOM      8  C   UNL     1      -0.008  -0.151  -2.547  0.00  0.00    +0.272 C 
ATOM      9  O   UNL     1      -0.026   1.050  -2.758  0.00  0.00    -0.268 OA
ATOM     10  S   UNL     1       0.040  -2.523   0.672  0.00  0.00    -0.086 S 
ATOM     11  C   UNL     1       0.025  -0.792   1.292  0.00  0.00    +0.192 C 
ENDROOT
BRANCH  11  12
ATOM     12  C   UNL     1       1.270  -0.490   2.086  0.00  0.00    +0.373 C 
ATOM     13  O   UNL     1       1.193  -0.285   3.286  0.00  0.00    -0.245 OA
ATOM     14  O   UNL     1       2.354  -0.452   1.529  0.00  0.00    -0.245 OA
ENDBRANCH  11  12
BRANCH   6  15
ATOM     15  S   UNL     1       0.025  -3.385  -4.777  0.00  0.00    -0.077 S 
BRANCH  15  16
ATOM     16  C   UNL     1       0.003  -2.235  -6.181  0.00  0.00    +0.202 C 
BRANCH  16  17
ATOM     17  C   UNL     1       0.007  -3.015  -7.470  0.00  0.00    +0.366 C 
ATOM     18  O   UNL     1       0.024  -4.234  -7.444  0.00  0.00    -0.245 OA
ATOM     19  O   UNL     1      -0.006  -2.428  -8.538  0.00  0.00    -0.245 OA
ENDBRANCH  16  17
ENDBRANCH  15  16
ENDBRANCH   6  15
TORSDOF 4
