REMARK  Name = ZINC12569837
REMARK  10 active torsions:
REMARK  status: ('A' for Active; 'I' for Inactive)
REMARK    1  A    between atoms: C_3  and  N_32
REMARK    2  A    between atoms: C_5  and  S_7
REMARK    3  A    between atoms: S_7  and  N_10
REMARK    4  A    between atoms: N_10  and  C_11
REMARK    5  A    between atoms: C_14  and  C_17
REMARK    6  A    between atoms: N_19  and  C_20
REMARK    7  A    between atoms: C_20  and  C_21
REMARK    8  A    between atoms: C_21  and  C_22
REMARK    9  A    between atoms: C_25  and  S_28
REMARK   10  A    between atoms: S_28  and  N_31
REMARK                            x       y       z     vdW  Elec       q    Type
REMARK                         _______ _______ _______ _____ _____    ______ ____
ROOT
ATOM      1  C   UNL     1      -1.002   5.740  -2.386  0.00  0.00    +0.048 A 
ATOM      2  C   UNL     1      -1.645   4.508  -2.312  0.00  0.00    +0.025 A 
ATOM      3  C   UNL     1      -2.657   4.205  -3.194  0.00  0.00    +0.015 A 
ATOM      4  C   UNL     1      -3.032   5.132  -4.170  0.00  0.00    +0.037 A 
ATOM      5  C   UNL     1      -2.381   6.367  -4.245  0.00  0.00    +0.015 A 
ATOM      6  C   UNL     1      -1.372   6.666  -3.358  0.00  0.00    +0.025 A 
ENDROOT
BRANCH   4   7
ATOM      7  C   UNL     1      -4.114   4.809  -5.120  0.00  0.00    +0.244 C 
ATOM      8  O   UNL     1      -4.439   5.616  -5.969  0.00  0.00    -0.270 OA
ATOM      9  N   UNL     1      -4.741   3.618  -5.047  0.00  0.00    -0.311 N 
ATOM     10  H   UNL     1      -4.481   2.974  -4.370  0.00  0.00    +0.149 HD
BRANCH   9  11
ATOM     11  C   UNL     1      -5.815   3.297  -5.990  0.00  0.00    +0.109 C 
BRANCH  11  12
ATOM     12  C   UNL     1      -6.354   1.896  -5.692  0.00  0.00    +0.054 C 
BRANCH  12  13
ATOM     13  C   UNL     1      -7.459   1.566  -6.662  0.00  0.00    -0.046 A 
ATOM     14  C   UNL     1      -8.769   1.878  -6.350  0.00  0.00    +0.005 A 
ATOM     15  C   UNL     1      -9.782   1.579  -7.242  0.00  0.00    +0.029 A 
ATOM     16  C   UNL     1      -9.486   0.959  -8.441  0.00  0.00    +0.105 A 
ATOM     17  C   UNL     1      -8.176   0.642  -8.751  0.00  0.00    +0.029 A 
ATOM     18  C   UNL     1      -7.163   0.945  -7.861  0.00  0.00    +0.005 A 
BRANCH  16  19
ATOM     19  S   UNL     1     -10.777   0.574  -9.576  0.00  0.00    +0.056 S 
ATOM     20  O   UNL     1     -11.847   1.465  -9.292  0.00  0.00    -0.153 OA
ATOM     21  O   UNL     1     -10.177   0.490 -10.862  0.00  0.00    -0.153 OA
BRANCH  19  22
ATOM     22  N   UNL     1     -11.317  -0.947  -9.206  0.00  0.00    -0.204 NA
ATOM     23  H   UNL     1     -10.915  -1.439  -8.473  0.00  0.00    +0.144 HD
ATOM     24  H   UNL     1     -12.035  -1.346  -9.722  0.00  0.00    +0.144 HD
ENDBRANCH  19  22
ENDBRANCH  16  19
ENDBRANCH  12  13
ENDBRANCH  11  12
ENDBRANCH   9  11
ENDBRANCH   4   7
BRANCH   1  25
ATOM     25  N   UNL     1       0.017   6.046  -1.490  0.00  0.00    -0.216 N 
ATOM     26  H   UNL     1       0.889   5.630  -1.587  0.00  0.00    +0.174 HD
BRANCH  25  27
ATOM     27  S   UNL     1      -0.257   7.118  -0.258  0.00  0.00    +0.072 S 
ATOM     28  O   UNL     1      -0.833   8.276  -0.848  0.00  0.00    -0.150 OA
ATOM     29  O   UNL     1       0.938   7.169   0.510  0.00  0.00    -0.150 OA
BRANCH  27  34
ATOM     30  C   UNL     1      -2.107   4.966   2.586  0.00  0.00    +0.004 A 
ATOM     31  C   UNL     1      -3.435   5.308   2.409  0.00  0.00    +0.033 A 
ATOM     32  C   UNL     1      -3.792   6.199   1.415  0.00  0.00    +0.128 A 
ATOM     33  C   UNL     1      -2.821   6.756   0.604  0.00  0.00    +0.061 A 
ATOM     34  C   UNL     1      -1.494   6.414   0.780  0.00  0.00    +0.111 A 
ATOM     35  C   UNL     1      -1.137   5.519   1.771  0.00  0.00    +0.029 A 
BRANCH  32  36
ATOM     36  N   UNL     1      -5.215   6.561   1.222  0.00  0.00    +0.056 N 
ATOM     37  O   UNL     1      -6.070   6.073   1.939  0.00  0.00    -0.126 OA
ATOM     38  O   UNL     1      -5.530   7.346   0.345  0.00  0.00    -0.126 OA
ENDBRANCH  32  36
ENDBRANCH  27  34
ENDBRANCH  25  27
ENDBRANCH   1  25
TORSDOF 10
