REMARK  Name = ZINC66115380
REMARK  12 active torsions:
REMARK  status: ('A' for Active; 'I' for Inactive)
REMARK    1  A    between atoms: C_1  and  C_2
REMARK    2  A    between atoms: C_2  and  C_3
REMARK    3  A    between atoms: C_3  and  C_4
REMARK    4  A    between atoms: C_4  and  C_5
REMARK    5  A    between atoms: C_5  and  C_6
REMARK    6  A    between atoms: C_6  and  O_7
REMARK    7  A    between atoms: O_7  and  C_8
REMARK    8  A    between atoms: C_11  and  C_14
REMARK    9  A    between atoms: C_14  and  N_15
REMARK   10  A    between atoms: C_21  and  C_23
REMARK   11  A    between atoms: C_23  and  C_24
REMARK   12  A    between atoms: N_26  and  N_27
REMARK                            x       y       z     vdW  Elec       q    Type
REMARK                         _______ _______ _______ _____ _____    ______ ____
ROOT
ATOM      1  N   UNL     1       1.707 -10.550  -4.933  0.00  0.00    +0.391 N 
ATOM      2  C   UNL     1       0.552 -10.372  -4.039  0.00  0.00    -0.058 C 
ATOM      3  C   UNL     1      -0.724 -10.343  -4.882  0.00  0.00    +0.085 C 
ATOM      4  N   UNL     1      -0.755 -11.497  -5.778  0.00  0.00    -0.318 N 
ATOM      5  C   UNL     1       0.337 -12.215  -6.066  0.00  0.00    +0.200 C 
ATOM      6  O   UNL     1       0.235 -13.145  -6.838  0.00  0.00    -0.278 OA
ATOM      7  C   UNL     1       1.684 -11.915  -5.473  0.00  0.00    +0.028 C 
ATOM      8  H   UNL     1      -1.600 -11.753  -6.179  0.00  0.00    +0.149 HD
ATOM      9  H   UNL     1       1.655  -9.886  -5.691  0.00  0.00    -0.080 HD
ENDROOT
BRANCH   1  10
ATOM     10  C   UNL     1       2.950 -10.339  -4.179  0.00  0.00    -0.042 C 
BRANCH  10  14
ATOM     11  C   UNL     1       3.205  -6.250  -2.965  0.00  0.00    +0.121 A 
ATOM     12  C   UNL     1       2.589  -7.182  -2.142  0.00  0.00    +0.046 A 
ATOM     13  C   UNL     1       2.508  -8.503  -2.537  0.00  0.00    +0.005 A 
ATOM     14  C   UNL     1       3.039  -8.897  -3.751  0.00  0.00    -0.064 A 
ATOM     15  C   UNL     1       3.654  -7.970  -4.573  0.00  0.00    +0.005 A 
ATOM     16  C   UNL     1       3.732  -6.647  -4.185  0.00  0.00    +0.046 A 
BRANCH  11  17
ATOM     17  O   UNL     1       3.286  -4.949  -2.579  0.00  0.00    -0.492 OA
BRANCH  17  18
ATOM     18  C   UNL     1       2.721  -4.613  -1.310  0.00  0.00    +0.229 C 
BRANCH  18  19
ATOM     19  C   UNL     1       2.906  -3.116  -1.050  0.00  0.00    +0.041 C 
BRANCH  19  20
ATOM     20  C   UNL     1       2.302  -2.756   0.308  0.00  0.00    +0.003 C 
BRANCH  20  21
ATOM     21  C   UNL     1       2.487  -1.260   0.568  0.00  0.00    -0.000 C 
BRANCH  21  23
ATOM     22  C   UNL     1       2.068   0.597   2.187  0.00  0.00    +0.004 C 
ATOM     23  C   UNL     1       1.883  -0.900   1.927  0.00  0.00    -0.003 C 
ENDBRANCH  21  23
ENDBRANCH  20  21
ENDBRANCH  19  20
ENDBRANCH  18  19
ENDBRANCH  17  18
ENDBRANCH  11  17
ENDBRANCH  10  14
ENDBRANCH   1  10
BRANCH   7  24
ATOM     24  C   UNL     1       2.757 -12.050  -6.556  0.00  0.00    +0.091 C 
BRANCH  24  25
ATOM     25  C   UNL     1       2.413 -11.153  -7.717  0.00  0.00    +0.225 C 
ATOM     26  O   UNL     1       1.424 -10.454  -7.671  0.00  0.00    -0.275 OA
ATOM     27  N   UNL     1       3.205 -11.130  -8.807  0.00  0.00    -0.254 N 
ATOM     28  H   UNL     1       3.997 -11.689  -8.844  0.00  0.00    +0.169 HD
BRANCH  27  29
ATOM     29  N   UNL     1       2.894 -10.317  -9.860  0.00  0.00    -0.254 NA
ATOM     30  H   UNL     1       3.575 -10.406 -10.599  0.00  0.00    +0.140 HD
ATOM     31  H   UNL     1       1.964 -10.507 -10.201  0.00  0.00    +0.140 HD
ENDBRANCH  27  29
ENDBRANCH  24  25
ENDBRANCH   7  24
TORSDOF 11
