REMARK  Name = ZINC32984883
REMARK  6 active torsions:
REMARK  status: ('A' for Active; 'I' for Inactive)
REMARK    1  A    between atoms: C_1  and  N_2
REMARK    2  A    between atoms: C_4  and  C_20
REMARK    3  A    between atoms: C_10  and  N_14
REMARK    4  A    between atoms: C_22  and  C_25
REMARK    5  A    between atoms: C_28  and  S_31
REMARK    6  A    between atoms: S_31  and  C_32
REMARK                            x       y       z     vdW  Elec       q    Type
REMARK                         _______ _______ _______ _____ _____    ______ ____
ROOT
ATOM      1  C   UNL     1       3.606   3.461  -0.013  0.00  0.00    +0.149 C 
ATOM      2  N   UNL     1       2.339   4.196   0.003  0.00  0.00    -0.349 N 
ATOM      3  C   UNL     1       2.374   5.538   0.009  0.00  0.00    +0.103 A 
ATOM      4  C   UNL     1       1.228   6.302   0.024  0.00  0.00    +0.103 A 
ATOM      5  C   UNL     1      -0.079   5.626   0.033  0.00  0.00    +0.202 A 
ATOM      6  O   UNL     1      -1.121   6.259   0.046  0.00  0.00    -0.286 OA
ATOM      7  C   UNL     1      -0.077   4.154   0.025  0.00  0.00    +0.049 A 
ATOM      8  C   UNL     1       1.160   3.482   0.010  0.00  0.00    +0.054 A 
ATOM      9  C   UNL     1       1.177   2.092   0.002  0.00  0.00    +0.052 A 
ATOM     10  C   UNL     1      -0.017   1.389   0.010  0.00  0.00    +0.067 A 
ATOM     11  C   UNL     1      -1.240   2.065   0.019  0.00  0.00    +0.145 A 
ATOM     12  C   UNL     1      -1.272   3.431   0.033  0.00  0.00    +0.054 A 
ATOM     13  F   UNL     1      -2.395   1.365   0.021  0.00  0.00    -0.204 F 
ENDROOT
BRANCH  10  14
ATOM     14  N   UNL     1       0.002  -0.004   0.002  0.00  0.00    -0.328 N 
ATOM     15  C   UNL     1       0.617  -0.529   1.228  0.00  0.00    +0.105 C 
ATOM     16  C   UNL     1       0.490  -2.054   1.252  0.00  0.00    +0.019 C 
ATOM     17  C   UNL     1       1.185  -2.638   0.019  0.00  0.00    +0.003 C 
ATOM     18  C   UNL     1       0.558  -2.039  -1.243  0.00  0.00    +0.019 C 
ATOM     19  C   UNL     1       0.683  -0.515  -1.195  0.00  0.00    +0.105 C 
ENDBRANCH  10  14
BRANCH   4  20
ATOM     20  C   UNL     1       1.309   7.773   0.032  0.00  0.00    +0.264 A 
ATOM     21  N   UNL     1       0.293   8.618   0.041  0.00  0.00    -0.187 NA
ATOM     22  C   UNL     1       0.847   9.848   0.047  0.00  0.00    +0.202 A 
ATOM     23  N   UNL     1       2.147   9.692   0.034  0.00  0.00    -0.056 NA
ATOM     24  O   UNL     1       2.430   8.512   0.025  0.00  0.00    -0.332 OA
BRANCH  22  25
ATOM     25  C   UNL     1       0.118  11.140   0.061  0.00  0.00    +0.023 A 
ATOM     26  C   UNL     1      -1.276  11.155   0.068  0.00  0.00    +0.013 A 
ATOM     27  C   UNL     1      -1.951  12.355   0.086  0.00  0.00    +0.015 A 
ATOM     28  C   UNL     1      -1.243  13.553   0.086  0.00  0.00    +0.008 A 
ATOM     29  C   UNL     1       0.148  13.540   0.073  0.00  0.00    +0.015 A 
ATOM     30  C   UNL     1       0.827  12.341   0.060  0.00  0.00    +0.013 A 
BRANCH  28  31
ATOM     31  S   UNL     1      -2.109  15.088   0.100  0.00  0.00    -0.129 S 
ATOM     32  C   UNL     1      -3.857  14.605   0.114  0.00  0.00    +0.090 C 
ENDBRANCH  28  31
ENDBRANCH  22  25
ENDBRANCH   4  20
TORSDOF 4
