REMARK  Name = ZINC33708344
REMARK  6 active torsions:
REMARK  status: ('A' for Active; 'I' for Inactive)
REMARK    1  A    between atoms: C_1  and  C_2
REMARK    2  A    between atoms: C_3  and  C_28
REMARK    3  A    between atoms: C_4  and  N_9
REMARK    4  A    between atoms: C_6  and  C_8
REMARK    5  A    between atoms: N_17  and  C_18
REMARK    6  A    between atoms: C_28  and  C_29
REMARK                            x       y       z     vdW  Elec       q    Type
REMARK                         _______ _______ _______ _____ _____    ______ ____
ROOT
ATOM      1  N   UNL     1      -8.306  -1.066   2.164  0.00  0.00    -0.312 N 
ATOM      2  C   UNL     1      -7.603  -0.514   3.330  0.00  0.00    +0.125 C 
ATOM      3  C   UNL     1      -6.976   0.832   2.954  0.00  0.00    +0.128 C 
ATOM      4  N   UNL     1      -6.142   0.641   1.757  0.00  0.00    -0.283 N 
ATOM      5  C   UNL     1      -6.740  -0.025   0.591  0.00  0.00    +0.128 C 
ATOM      6  C   UNL     1      -7.375  -1.344   1.063  0.00  0.00    +0.125 C 
ATOM      7  C   UNL     1      -4.865   1.071   1.728  0.00  0.00    +0.303 C 
ATOM      8  O   UNL     1      -4.218   0.986   0.703  0.00  0.00    -0.253 OA
ATOM      9  N   UNL     1      -4.305   1.595   2.837  0.00  0.00    -0.294 N 
ATOM     10  H   UNL     1      -4.913   1.749   3.740  0.00  0.00    +0.151 HD
ENDROOT
BRANCH   9  11
ATOM     11  C   UNL     1      -2.886   1.960   2.838  0.00  0.00    +0.037 C 
ATOM     12  C   UNL     1      -2.507   2.528   4.208  0.00  0.00    +0.029 C 
ATOM     13  C   UNL     1      -1.025   2.909   4.209  0.00  0.00    -0.008 C 
ATOM     14  C   UNL     1      -0.769   3.964   3.131  0.00  0.00    +0.007 C 
ATOM     15  C   UNL     1      -1.148   3.397   1.762  0.00  0.00    -0.008 C 
ATOM     16  C   UNL     1      -2.630   3.016   1.760  0.00  0.00    +0.029 C 
ATOM     17  C   UNL     1      -0.302   2.156   1.472  0.00  0.00    +0.007 C 
ATOM     18  C   UNL     1      -0.558   1.101   2.550  0.00  0.00    -0.008 C 
ATOM     19  C   UNL     1      -0.179   1.668   3.919  0.00  0.00    +0.007 C 
ATOM     20  C   UNL     1      -2.040   0.719   2.548  0.00  0.00    +0.029 C 
ENDBRANCH   9  11
BRANCH   1  24
ATOM     21  C   UNL     1     -12.588  -3.352   2.982  0.00  0.00    +0.064 C 
ATOM     22  C   UNL     1     -11.083  -3.331   2.909  0.00  0.00    +0.021 A 
ATOM     23  C   UNL     1     -10.416  -2.173   2.562  0.00  0.00    +0.016 A 
ATOM     24  C   UNL     1      -9.021  -2.202   2.508  0.00  0.00    +0.128 A 
ATOM     25  N   UNL     1      -8.390  -3.339   2.786  0.00  0.00    -0.219 NA
ATOM     26  C   UNL     1      -9.066  -4.420   3.118  0.00  0.00    +0.106 A 
ATOM     27  N   UNL     1     -10.383  -4.425   3.178  0.00  0.00    -0.347 N 
ATOM     28  C   UNL     1      -8.315  -5.688   3.431  0.00  0.00    +0.086 C 
ATOM     29  H   UNL     1     -10.901  -5.355   3.455  0.00  0.00    +0.167 HD
BRANCH  23  30
ATOM     30  C   UNL     1     -11.174  -0.909   2.251  0.00  0.00    +0.075 C 
BRANCH  30  31
ATOM     31  C   UNL     1     -11.595  -0.919   0.803  0.00  0.00    -0.043 A 
ATOM     32  C   UNL     1     -10.753  -0.403  -0.165  0.00  0.00    +0.004 A 
ATOM     33  C   UNL     1     -11.137  -0.417  -1.492  0.00  0.00    +0.000 A 
ATOM     34  C   UNL     1     -12.366  -0.938  -1.852  0.00  0.00    +0.000 A 
ATOM     35  C   UNL     1     -13.210  -1.448  -0.883  0.00  0.00    +0.000 A 
ATOM     36  C   UNL     1     -12.824  -1.439   0.444  0.00  0.00    +0.004 A 
ENDBRANCH  30  31
ENDBRANCH  23  30
ENDBRANCH   1  24
TORSDOF 4
