REMARK  Name = ZINC08961814
REMARK  3 active torsions:
REMARK  status: ('A' for Active; 'I' for Inactive)
REMARK    1  A    between atoms: C_10  and  S_11
REMARK    2  A    between atoms: S_11  and  N_14
REMARK    3  A    between atoms: N_14  and  C_15
REMARK                            x       y       z     vdW  Elec       q    Type
REMARK                         _______ _______ _______ _____ _____    ______ ____
ROOT
ATOM      1  N   UNL     1      -3.010   4.631   1.542  0.00  0.00    -0.216 N 
ATOM      2  H   UNL     1      -3.596   4.226   2.200  0.00  0.00    +0.174 HD
ENDROOT
BRANCH   1   3
ATOM      3  C   UNL     1      -2.212   5.725   1.893  0.00  0.00    +0.049 A 
ATOM      4  C   UNL     1      -0.869   5.749   1.531  0.00  0.00    +0.028 A 
ATOM      5  C   UNL     1      -0.073   6.827   1.866  0.00  0.00    +0.048 A 
ATOM      6  C   UNL     1      -0.608   7.889   2.576  0.00  0.00    +0.133 A 
ATOM      7  C   UNL     1      -1.960   7.867   2.952  0.00  0.00    +0.080 A 
ATOM      8  C   UNL     1      -2.760   6.780   2.606  0.00  0.00    +0.041 A 
ATOM      9  C   UNL     1      -2.508   9.003   3.717  0.00  0.00    +0.248 C 
ATOM     10  O   UNL     1      -3.176   8.813   4.715  0.00  0.00    -0.270 OA
ATOM     11  N   UNL     1      -2.254  10.262   3.287  0.00  0.00    -0.308 N 
ATOM     12  C   UNL     1      -1.539  10.465   2.026  0.00  0.00    +0.145 C 
ATOM     13  C   UNL     1      -0.056  10.164   2.191  0.00  0.00    +0.247 C 
ATOM     14  O   UNL     1       0.157   8.958   2.914  0.00  0.00    -0.490 OA
ATOM     15  H   UNL     1      -2.543  11.025   3.812  0.00  0.00    +0.149 HD
ENDBRANCH   1   3
BRANCH   1  16
ATOM     16  S   UNL     1      -2.954   4.026   0.001  0.00  0.00    +0.073 S 
ATOM     17  O   UNL     1      -3.039   5.140  -0.876  0.00  0.00    -0.150 OA
ATOM     18  O   UNL     1      -3.878   2.947  -0.045  0.00  0.00    -0.150 OA
BRANCH  16  28
ATOM     19  C   UNL     1      -0.086   0.071   2.067  0.00  0.00    +0.001 A 
ATOM     20  C   UNL     1      -1.357   0.610   2.260  0.00  0.00    +0.001 A 
ATOM     21  C   UNL     1      -1.788   1.670   1.524  0.00  0.00    +0.010 A 
ATOM     22  C   UNL     1      -0.942   2.232   0.553  0.00  0.00    +0.009 A 
ATOM     23  C   UNL     1       0.350   1.685   0.356  0.00  0.00    -0.016 A 
ATOM     24  C   UNL     1       0.760   0.589   1.136  0.00  0.00    +0.008 A 
ATOM     25  C   UNL     1       1.196   2.247  -0.614  0.00  0.00    +0.008 A 
ATOM     26  C   UNL     1       0.765   3.308  -1.350  0.00  0.00    +0.003 A 
ATOM     27  C   UNL     1      -0.503   3.850  -1.153  0.00  0.00    +0.029 A 
ATOM     28  C   UNL     1      -1.352   3.327  -0.226  0.00  0.00    +0.116 A 
ENDBRANCH  16  28
ENDBRANCH   1  16
TORSDOF 3
