REMARK  Name = ZINC04792227
REMARK  2 active torsions:
REMARK  status: ('A' for Active; 'I' for Inactive)
REMARK    1  A    between atoms: C_3  and  C_10
REMARK    2  A    between atoms: C_6  and  C_8
REMARK                            x       y       z     vdW  Elec       q    Type
REMARK                         _______ _______ _______ _____ _____    ______ ____
ROOT
ATOM      1  C   UNL     1       0.629   3.648  -1.301  0.00  0.00    +0.046 C 
ATOM      2  C   UNL     1       1.579   4.833  -1.627  0.00  0.00    +0.046 C 
ATOM      3  C   UNL     1       2.930   4.280  -1.108  0.00  0.00    +0.232 C 
ATOM      4  O   UNL     1       2.599   3.527   0.070  0.00  0.00    -0.351 OA
ATOM      5  C   UNL     1       1.235   3.094   0.007  0.00  0.00    +0.232 C 
ENDROOT
BRANCH   5   6
ATOM      6  C   UNL     1       1.177   1.588  -0.001  0.00  0.00    +0.384 C 
ATOM      7  O   UNL     1       2.199   0.944  -0.014  0.00  0.00    -0.243 OA
ATOM      8  O   UNL     1      -0.011   0.963   0.007  0.00  0.00    -0.243 OA
ENDBRANCH   5   6
BRANCH   3   9
ATOM      9  C   UNL     1       3.861   5.413  -0.761  0.00  0.00    +0.384 C 
ATOM     10  O   UNL     1       4.206   5.582   0.385  0.00  0.00    -0.243 OA
ATOM     11  O   UNL     1       4.306   6.234  -1.724  0.00  0.00    -0.243 OA
ENDBRANCH   3   9
TORSDOF 2
