REMARK  Name = ZINC63491024
REMARK  9 active torsions:
REMARK  status: ('A' for Active; 'I' for Inactive)
REMARK    1  A    between atoms: C_1  and  C_2
REMARK    2  A    between atoms: C_9  and  C_34
REMARK    3  A    between atoms: C_10  and  C_17
REMARK    4  A    between atoms: C_15  and  C_16
REMARK    5  A    between atoms: C_17  and  C_18
REMARK    6  A    between atoms: C_18  and  C_19
REMARK    7  A    between atoms: N_21  and  C_22
REMARK    8  A    between atoms: C_22  and  C_23
REMARK    9  A    between atoms: C_23  and  C_24
REMARK                            x       y       z     vdW  Elec       q    Type
REMARK                         _______ _______ _______ _____ _____    ______ ____
ROOT
ATOM      1  C   UNL     1       0.102  -2.562   7.144  0.00  0.00    +0.052 C 
ENDROOT
BRANCH   1  11
ATOM      2  C   UNL     1      -0.018   1.503   0.010  0.00  0.00    +0.047 C 
ATOM      3  C   UNL     1       0.002  -0.004   0.002  0.00  0.00    -0.005 A 
ATOM      4  C   UNL     1       0.009  -0.802  -1.073  0.00  0.00    +0.199 A 
ATOM      5  O   UNL     1       0.028  -2.093  -0.695  0.00  0.00    -0.462 OA
ATOM      6  C   UNL     1       0.035  -2.202   0.649  0.00  0.00    +0.141 A 
ATOM      7  C   UNL     1       0.025  -0.893   1.172  0.00  0.00    +0.024 A 
ATOM      8  C   UNL     1       0.035  -0.683   2.544  0.00  0.00    +0.023 A 
ATOM      9  C   UNL     1       0.058  -1.782   3.403  0.00  0.00    +0.022 A 
ATOM     10  C   UNL     1       0.068  -1.597   4.857  0.00  0.00    -0.030 A 
ATOM     11  C   UNL     1       0.090  -2.703   5.644  0.00  0.00    +0.041 A 
ATOM     12  C   UNL     1       0.102  -3.985   5.054  0.00  0.00    +0.341 A 
ATOM     13  O   UNL     1       0.121  -4.968   5.772  0.00  0.00    -0.245 OA
ATOM     14  O   UNL     1       0.092  -4.149   3.722  0.00  0.00    -0.422 OA
ATOM     15  C   UNL     1       0.071  -3.092   2.879  0.00  0.00    +0.146 A 
ATOM     16  C   UNL     1       0.053  -3.290   1.510  0.00  0.00    +0.035 A 
ATOM     17  C   UNL     1       0.070  -4.690   0.952  0.00  0.00    +0.051 C 
ATOM     18  C   UNL     1       0.056  -0.217   5.462  0.00  0.00    +0.045 C 
ENDBRANCH   1  11
BRANCH   1  19
ATOM     19  C   UNL     1      -1.329  -2.659   7.677  0.00  0.00    +0.100 C 
BRANCH  19  20
ATOM     20  C   UNL     1      -1.318  -2.518   9.177  0.00  0.00    +0.213 C 
ATOM     21  O   UNL     1      -0.268  -2.357   9.763  0.00  0.00    -0.276 OA
ATOM     22  N   UNL     1      -2.474  -2.572   9.868  0.00  0.00    -0.315 N 
ATOM     23  H   UNL     1      -3.313  -2.701   9.400  0.00  0.00    +0.149 HD
BRANCH  22  24
ATOM     24  C   UNL     1      -2.462  -2.435  11.327  0.00  0.00    +0.108 C 
BRANCH  24  25
ATOM     25  C   UNL     1      -3.893  -2.532  11.860  0.00  0.00    +0.052 C 
BRANCH  25  26
ATOM     26  C   UNL     1      -3.881  -2.391  13.360  0.00  0.00    -0.040 C 
ATOM     27  C   UNL     1      -4.083  -1.259  14.072  0.00  0.00    +0.000 A 
ATOM     28  C   UNL     1      -4.362   0.127  13.678  0.00  0.00    +0.030 A 
ATOM     29  C   UNL     1      -4.518   1.065  14.641  0.00  0.00    +0.042 A 
ATOM     30  C   UNL     1      -4.420   0.745  16.004  0.00  0.00    +0.022 A 
ATOM     31  C   UNL     1      -4.166  -0.506  16.442  0.00  0.00    +0.027 A 
ATOM     32  C   UNL     1      -3.985  -1.570  15.516  0.00  0.00    +0.043 A 
ATOM     33  N   UNL     1      -3.732  -2.844  15.690  0.00  0.00    -0.380 N 
ATOM     34  C   UNL     1      -3.648  -3.488  14.374  0.00  0.00    +0.144 C 
ATOM     35 CL   UNL     1      -4.848   2.705  14.179  0.00  0.00    -0.084 Cl
ATOM     36  H   UNL     1      -3.624  -3.288  16.545  0.00  0.00    +0.160 HD
ENDBRANCH  25  26
ENDBRANCH  24  25
ENDBRANCH  22  24
ENDBRANCH  19  20
ENDBRANCH   1  19
TORSDOF 6
