REMARK  Name = ZINC13092875
REMARK  10 active torsions:
REMARK  status: ('A' for Active; 'I' for Inactive)
REMARK    1  A    between atoms: C_1  and  C_2
REMARK    2  A    between atoms: C_5  and  S_9
REMARK    3  A    between atoms: C_6  and  C_8
REMARK    4  A    between atoms: S_9  and  N_12
REMARK    5  A    between atoms: C_18  and  C_20
REMARK    6  A    between atoms: C_20  and  S_21
REMARK    7  A    between atoms: S_21  and  C_22
REMARK    8  A    between atoms: C_26  and  C_29
REMARK    9  A    between atoms: C_29  and  C_30
REMARK   10  A    between atoms: C_30  and  C_31
REMARK                            x       y       z     vdW  Elec       q    Type
REMARK                         _______ _______ _______ _____ _____    ______ ____
ROOT
ATOM      1  N   UNL     1       1.565  -5.007   0.461  0.00  0.00    -0.174 NA
ATOM      2  C   UNL     1       2.696  -5.083  -0.474  0.00  0.00    +0.128 C 
ATOM      3  C   UNL     1       3.843  -4.225   0.074  0.00  0.00    +0.125 C 
ATOM      4  N   UNL     1       4.064  -4.580   1.483  0.00  0.00    -0.298 N 
ATOM      5  C   UNL     1       2.933  -4.503   2.418  0.00  0.00    +0.125 C 
ATOM      6  C   UNL     1       1.787  -5.356   1.871  0.00  0.00    +0.128 C 
ATOM      7  C   UNL     1       5.282  -4.968   1.910  0.00  0.00    +0.226 C 
ATOM      8  O   UNL     1       6.208  -5.027   1.129  0.00  0.00    -0.275 OA
ENDROOT
BRANCH   1   9
ATOM      9  S   UNL     1       0.069  -4.530  -0.063  0.00  0.00    +0.061 S 
ATOM     10  O   UNL     1      -0.864  -4.968   0.915  0.00  0.00    -0.153 OA
ATOM     11  O   UNL     1      -0.024  -4.912  -1.429  0.00  0.00    -0.153 OA
BRANCH   9  16
ATOM     12  C   UNL     1      -0.023   1.502   0.047  0.00  0.00    +0.044 C 
ATOM     13  C   UNL     1      -0.000  -0.004   0.020  0.00  0.00    -0.050 A 
ATOM     14  C   UNL     1      -0.009  -0.674  -1.190  0.00  0.00    +0.005 A 
ATOM     15  C   UNL     1       0.013  -2.055  -1.215  0.00  0.00    +0.029 A 
ATOM     16  C   UNL     1       0.043  -2.768  -0.031  0.00  0.00    +0.108 A 
ATOM     17  C   UNL     1       0.052  -2.099   1.178  0.00  0.00    -0.024 A 
ATOM     18  C   UNL     1       0.035  -0.717   1.204  0.00  0.00    +0.008 A 
ATOM     19  C   UNL     1       0.084  -2.876   2.469  0.00  0.00    +0.046 C 
ENDBRANCH   9  16
ENDBRANCH   1   9
BRANCH   7  20
ATOM     20  C   UNL     1       5.493  -5.329   3.358  0.00  0.00    +0.173 C 
BRANCH  20  21
ATOM     21  S   UNL     1       7.224  -5.806   3.616  0.00  0.00    -0.075 S 
BRANCH  21  22
ATOM     22  C   UNL     1       7.308  -6.193   5.333  0.00  0.00    +0.213 A 
ATOM     23  N   UNL     1       8.460  -6.588   5.861  0.00  0.00    -0.180 NA
ATOM     24  C   UNL     1       8.518  -6.878   7.156  0.00  0.00    +0.296 A 
ATOM     25  O   UNL     1       9.680  -7.282   7.723  0.00  0.00    -0.264 OA
ATOM     26  C   UNL     1       7.357  -6.758   7.922  0.00  0.00    +0.130 A 
ATOM     27  N   UNL     1       6.240  -6.361   7.341  0.00  0.00    -0.146 NA
ATOM     28  N   UNL     1       6.219  -6.082   6.085  0.00  0.00    -0.122 NA
BRANCH  26  29
ATOM     29  C   UNL     1       7.378  -7.078   9.394  0.00  0.00    +0.074 C 
BRANCH  29  30
ATOM     30  C   UNL     1       7.721  -5.814  10.186  0.00  0.00    +0.131 C 
BRANCH  30  31
ATOM     31  C   UNL     1       7.743  -6.134  11.658  0.00  0.00    +0.356 C 
ATOM     32  O   UNL     1       7.506  -7.268  12.039  0.00  0.00    -0.246 OA
ATOM     33  O   UNL     1       7.997  -5.260  12.469  0.00  0.00    -0.246 OA
ENDBRANCH  30  31
ENDBRANCH  29  30
ENDBRANCH  26  29
ENDBRANCH  21  22
ENDBRANCH  20  21
ENDBRANCH   7  20
TORSDOF 8
