REMARK  Name = ZINC58853420
REMARK  11 active torsions:
REMARK  status: ('A' for Active; 'I' for Inactive)
REMARK    1  A    between atoms: C_1  and  C_2
REMARK    2  A    between atoms: C_5  and  N_8
REMARK    3  A    between atoms: N_8  and  C_9
REMARK    4  A    between atoms: N_8  and  S_30
REMARK    5  A    between atoms: C_9  and  C_10
REMARK    6  A    between atoms: N_12  and  N_13
REMARK    7  A    between atoms: C_14  and  C_15
REMARK    8  A    between atoms: C_17  and  C_29
REMARK    9  A    between atoms: N_18  and  C_21
REMARK   10  A    between atoms: C_19  and  C_20
REMARK   11  A    between atoms: S_30  and  C_33
REMARK                            x       y       z     vdW  Elec       q    Type
REMARK                         _______ _______ _______ _____ _____    ______ ____
ROOT
ATOM      1  C   UNL     1       2.121  -4.878  -1.083  0.00  0.00    +0.251 C 
ATOM      2  O   UNL     1       2.672  -4.334  -0.150  0.00  0.00    -0.272 OA
ATOM      3  N   UNL     1       2.854  -5.480  -2.041  0.00  0.00    -0.206 N 
ATOM      4  H   UNL     1       2.413  -5.915  -2.788  0.00  0.00    +0.177 HD
ENDROOT
BRANCH   3   5
ATOM      5  N   UNL     1       4.252  -5.478  -1.958  0.00  0.00    -0.188 NA
ATOM      6  C   UNL     1       4.958  -6.058  -2.881  0.00  0.00    +0.140 C 
BRANCH   6   7
ATOM      7  C   UNL     1       6.429  -6.056  -2.793  0.00  0.00    +0.016 A 
ATOM      8  C   UNL     1       7.367  -6.655  -3.747  0.00  0.00    +0.032 A 
ATOM      9  C   UNL     1       8.604  -6.414  -3.273  0.00  0.00    +0.022 A 
ATOM     10  N   UNL     1       8.500  -5.714  -2.105  0.00  0.00    -0.317 N 
ATOM     11  C   UNL     1       7.191  -5.490  -1.811  0.00  0.00    +0.030 A 
ATOM     12  C   UNL     1       6.670  -4.747  -0.608  0.00  0.00    +0.064 C 
ATOM     13  C   UNL     1       9.892  -6.845  -3.926  0.00  0.00    +0.064 C 
BRANCH  10  14
ATOM     14  C   UNL     1       9.584  -5.286  -1.326  0.00  0.00    +0.049 A 
ATOM     15  C   UNL     1       9.772  -5.804  -0.052  0.00  0.00    +0.046 A 
ATOM     16  C   UNL     1      10.841  -5.381   0.715  0.00  0.00    +0.044 A 
ATOM     17  C   UNL     1      11.725  -4.441   0.213  0.00  0.00    +0.040 A 
ATOM     18  C   UNL     1      11.539  -3.923  -1.056  0.00  0.00    +0.044 A 
ATOM     19  C   UNL     1      10.474  -4.347  -1.829  0.00  0.00    +0.046 A 
ATOM     20 CL   UNL     1      12.649  -2.743  -1.682  0.00  0.00    -0.083 Cl
ATOM     21 CL   UNL     1      11.077  -6.029   2.308  0.00  0.00    -0.083 Cl
ENDBRANCH  10  14
ENDBRANCH   6   7
ENDBRANCH   3   5
BRANCH   1  22
ATOM     22  C   UNL     1       0.617  -4.880  -1.172  0.00  0.00    +0.228 C 
BRANCH  22  23
ATOM     23  N   UNL     1       0.058  -4.167  -0.021  0.00  0.00    -0.199 N 
BRANCH  23  28
ATOM     24  C   UNL     1      -0.486   1.475  -0.170  0.00  0.00    +0.044 C 
ATOM     25  C   UNL     1      -0.341  -0.024  -0.131  0.00  0.00    -0.050 A 
ATOM     26  C   UNL     1      -1.041  -0.809  -1.029  0.00  0.00    +0.005 A 
ATOM     27  C   UNL     1      -0.911  -2.183  -0.995  0.00  0.00    +0.025 A 
ATOM     28  C   UNL     1      -0.076  -2.777  -0.058  0.00  0.00    +0.051 A 
ATOM     29  C   UNL     1       0.626  -1.986   0.843  0.00  0.00    +0.025 A 
ATOM     30  C   UNL     1       0.496  -0.612   0.800  0.00  0.00    +0.005 A 
ENDBRANCH  23  28
BRANCH  23  31
ATOM     31  S   UNL     1      -0.415  -5.009   1.325  0.00  0.00    +0.043 S 
ATOM     32  O   UNL     1       0.426  -6.154   1.350  0.00  0.00    -0.155 OA
ATOM     33  O   UNL     1      -0.376  -4.058   2.380  0.00  0.00    -0.155 OA
ATOM     34  C   UNL     1      -2.128  -5.500   0.989  0.00  0.00    +0.218 C 
ENDBRANCH  23  31
ENDBRANCH  22  23
ENDBRANCH   1  22
TORSDOF 7
