REMARK  Name = ZINC34698030
REMARK  5 active torsions:
REMARK  status: ('A' for Active; 'I' for Inactive)
REMARK    1  A    between atoms: N_9  and  C_11
REMARK    2  A    between atoms: C_11  and  C_12
REMARK    3  A    between atoms: C_17  and  C_19
REMARK    4  A    between atoms: C_23  and  C_25
REMARK    5  A    between atoms: C_29  and  C_31
REMARK                            x       y       z     vdW  Elec       q    Type
REMARK                         _______ _______ _______ _____ _____    ______ ____
ROOT
ATOM      1  C   UNL     1       5.710  -2.332   1.019  0.00  0.00    -0.001 C 
ATOM      2  C   UNL     1       5.478  -2.556   2.529  0.00  0.00    +0.110 C 
ATOM      3  N   UNL     1       6.267  -3.768   2.853  0.00  0.00    -0.297 N 
ATOM      4  C   UNL     1       7.513  -3.614   2.066  0.00  0.00    +0.116 C 
ATOM      5  C   UNL     1       7.052  -3.028   0.712  0.00  0.00    +0.039 C 
ATOM      6  C   UNL     1       5.928  -4.780   3.675  0.00  0.00    +0.248 C 
ATOM      7  O   UNL     1       4.897  -4.722   4.318  0.00  0.00    -0.270 OA
ENDROOT
BRANCH   6   8
ATOM      8  C   UNL     1       6.809  -5.960   3.797  0.00  0.00    +0.055 A 
ATOM      9  C   UNL     1       8.195  -5.799   3.848  0.00  0.00    +0.014 A 
ATOM     10  C   UNL     1       9.011  -6.905   3.961  0.00  0.00    +0.001 A 
ATOM     11  C   UNL     1       8.460  -8.173   4.024  0.00  0.00    +0.001 A 
ATOM     12  C   UNL     1       7.088  -8.341   3.974  0.00  0.00    +0.021 A 
ATOM     13  C   UNL     1       6.258  -7.242   3.867  0.00  0.00    +0.053 A 
ATOM     14 CL   UNL     1       4.536  -7.454   3.811  0.00  0.00    -0.083 Cl
ENDBRANCH   6   8
BRANCH   5  15
ATOM     15  C   UNL     1       8.057  -2.027   0.203  0.00  0.00    -0.042 A 
ATOM     16  C   UNL     1       8.429  -0.957   0.996  0.00  0.00    +0.004 A 
ATOM     17  C   UNL     1       9.351  -0.039   0.529  0.00  0.00    +0.001 A 
ATOM     18  C   UNL     1       9.900  -0.190  -0.731  0.00  0.00    +0.012 A 
ATOM     19  C   UNL     1       9.528  -1.260  -1.523  0.00  0.00    +0.055 A 
ATOM     20  C   UNL     1       8.610  -2.181  -1.054  0.00  0.00    +0.016 A 
BRANCH  19  21
ATOM     21  C   UNL     1      10.127  -1.425  -2.896  0.00  0.00    +0.417 C 
ATOM     22  F   UNL     1      11.024  -0.380  -3.142  0.00  0.00    -0.166 F 
ATOM     23  F   UNL     1      10.804  -2.647  -2.966  0.00  0.00    -0.166 F 
ATOM     24  F   UNL     1       9.109  -1.400  -3.855  0.00  0.00    -0.166 F 
ENDBRANCH  19  21
ENDBRANCH   5  15
BRANCH   1  25
ATOM     25  C   UNL     1       4.581  -2.971   0.208  0.00  0.00    -0.073 C 
BRANCH  25  34
ATOM     26  C   UNL     1      -0.256   1.243   0.189  0.00  0.00    +0.000 A 
ATOM     27  C   UNL     1       0.936   1.927   0.033  0.00  0.00    +0.000 A 
ATOM     28  C   UNL     1       2.123   1.228  -0.050  0.00  0.00    +0.002 A 
ATOM     29  C   UNL     1       2.128  -0.157   0.024  0.00  0.00    -0.061 A 
ATOM     30  C   UNL     1       0.940  -0.837   0.182  0.00  0.00    -0.048 A 
ATOM     31  C   UNL     1      -0.253  -0.135   0.263  0.00  0.00    +0.004 A 
ATOM     32  C   UNL     1       0.901  -2.341   0.274  0.00  0.00    +0.017 C 
ATOM     33  C   UNL     1       2.221  -2.925  -0.233  0.00  0.00    -0.074 C 
ATOM     34  N   UNL     1       3.329  -2.241   0.450  0.00  0.00    +0.383 N 
ATOM     35  C   UNL     1       3.447  -0.878  -0.076  0.00  0.00    -0.043 C 
ATOM     36  H   UNL     1       3.144  -2.206   1.442  0.00  0.00    -0.081 HD
ENDBRANCH  25  34
ENDBRANCH   1  25
TORSDOF 5
