REMARK  Name = ZINC58988889
REMARK  9 active torsions:
REMARK  status: ('A' for Active; 'I' for Inactive)
REMARK    1  A    between atoms: C_7  and  C_11
REMARK    2  A    between atoms: N_12  and  N_13
REMARK    3  A    between atoms: C_14  and  C_16
REMARK    4  A    between atoms: C_16  and  C_17
REMARK    5  A    between atoms: C_17  and  C_18
REMARK    6  A    between atoms: C_18  and  S_19
REMARK    7  A    between atoms: S_19  and  C_20
REMARK    8  A    between atoms: C_23  and  C_26
REMARK    9  A    between atoms: N_24  and  N_25
REMARK                            x       y       z     vdW  Elec       q    Type
REMARK                         _______ _______ _______ _____ _____    ______ ____
ROOT
ATOM      1  C   UNL     1      -5.165  -4.684   0.175  0.00  0.00    +0.020 C 
ENDROOT
BRANCH   1   2
ATOM      2  C   UNL     1      -3.722  -5.171   0.026  0.00  0.00    +0.098 C 
BRANCH   2   4
ATOM      3  N   UNL     1      -1.453  -4.185   0.010  0.00  0.00    -0.207 N 
ATOM      4  C   UNL     1      -2.783  -3.995   0.116  0.00  0.00    +0.232 C 
ATOM      5  O   UNL     1      -3.225  -2.878   0.283  0.00  0.00    -0.274 OA
ATOM      6  H   UNL     1      -1.100  -5.079  -0.123  0.00  0.00    +0.177 HD
BRANCH   3   8
ATOM      7  C   UNL     1       0.701  -3.275  -0.008  0.00  0.00    +0.140 C 
ATOM      8  N   UNL     1      -0.581  -3.092   0.094  0.00  0.00    -0.188 NA
BRANCH   7  15
ATOM      9  C   UNL     1       0.021   1.317   0.608  0.00  0.00    +0.001 A 
ATOM     10  C   UNL     1       1.212   2.030   0.624  0.00  0.00    +0.002 A 
ATOM     11  C   UNL     1       2.419   1.385   0.470  0.00  0.00    +0.026 A 
ATOM     12  C   UNL     1       2.451   0.005   0.296  0.00  0.00    +0.047 A 
ATOM     13  C   UNL     1       1.245  -0.716   0.279  0.00  0.00    +0.008 A 
ATOM     14  C   UNL     1       0.031  -0.049   0.436  0.00  0.00    +0.010 A 
ATOM     15  C   UNL     1       1.618  -2.127   0.080  0.00  0.00    +0.020 A 
ATOM     16  C   UNL     1       2.975  -2.162  -0.008  0.00  0.00    +0.093 A 
ATOM     17  N   UNL     1       3.476  -0.900   0.119  0.00  0.00    -0.360 N 
ATOM     18  H   UNL     1       4.418  -0.672   0.090  0.00  0.00    +0.165 HD
ENDBRANCH   7  15
ENDBRANCH   3   8
ENDBRANCH   2   4
ENDBRANCH   1   2
BRANCH   1  19
ATOM     19  C   UNL     1      -6.117  -5.878   0.084  0.00  0.00    +0.078 C 
BRANCH  19  20
ATOM     20  S   UNL     1      -7.828  -5.301   0.261  0.00  0.00    -0.084 S 
BRANCH  20  21
ATOM     21  C   UNL     1      -8.789  -6.772   0.136  0.00  0.00    +0.209 A 
ATOM     22  N   UNL     1      -8.330  -7.991  -0.039  0.00  0.00    -0.121 NA
ATOM     23  N   UNL     1      -9.304  -8.828  -0.086  0.00  0.00    -0.127 NA
ATOM     24  C   UNL     1     -10.445  -8.195   0.056  0.00  0.00    +0.183 A 
ATOM     25  N   UNL     1     -10.150  -6.860   0.208  0.00  0.00    -0.224 N 
BRANCH  24  26
ATOM     26  C   UNL     1     -11.793  -8.803   0.058  0.00  0.00    +0.035 A 
ATOM     27  C   UNL     1     -12.813  -8.247  -0.716  0.00  0.00    +0.013 A 
ATOM     28  C   UNL     1     -14.069  -8.820  -0.711  0.00  0.00    +0.001 A 
ATOM     29  C   UNL     1     -14.318  -9.942   0.060  0.00  0.00    +0.001 A 
ATOM     30  C   UNL     1     -13.312 -10.497   0.830  0.00  0.00    +0.016 A 
ATOM     31  C   UNL     1     -12.049  -9.938   0.829  0.00  0.00    +0.029 A 
ATOM     32 BR   UNL     1     -10.673 -10.703   1.876  0.00  0.00    -0.050 Br
ENDBRANCH  24  26
BRANCH  25  33
ATOM     33  N   UNL     1     -11.034  -5.835   0.391  0.00  0.00    -0.295 N 
ATOM     34  H   UNL     1     -11.390  -5.502  -0.493  0.00  0.00    +0.163 HD
ATOM     35  H   UNL     1     -11.787  -6.111   1.003  0.00  0.00    +0.163 HD
ENDBRANCH  25  33
ENDBRANCH  20  21
ENDBRANCH  19  20
ENDBRANCH   1  19
TORSDOF 9
