REMARK  Name = ZINC02425624
REMARK  16 active torsions:
REMARK  status: ('A' for Active; 'I' for Inactive)
REMARK    1  A    between atoms: C_1  and  C_2
REMARK    2  A    between atoms: C_3  and  O_24
REMARK    3  A    between atoms: C_9  and  O_23
REMARK    4  A    between atoms: C_10  and  C_13
REMARK    5  A    between atoms: C_13  and  N_14
REMARK    6  A    between atoms: N_14  and  C_15
REMARK    7  A    between atoms: N_14  and  C_19
REMARK    8  A    between atoms: C_15  and  C_16
REMARK    9  A    between atoms: C_16  and  C_17
REMARK   10  A    between atoms: C_16  and  C_18
REMARK   11  A    between atoms: C_19  and  C_20
REMARK   12  A    between atoms: C_20  and  C_21
REMARK   13  A    between atoms: C_20  and  C_22
REMARK   14  A    between atoms: O_24  and  C_25
REMARK   15  A    between atoms: C_28  and  O_31
REMARK   16  A    between atoms: O_31  and  C_32
REMARK                            x       y       z     vdW  Elec       q    Type
REMARK                         _______ _______ _______ _____ _____    ______ ____
ROOT
ATOM      1  C   UNL     1      -0.109   1.608   1.224  0.00  0.00    +0.090 C 
ATOM      2  C   UNL     1       0.001   0.110   1.103  0.00  0.00    +0.148 A 
ATOM      3  C   UNL     1      -1.044  -0.647   1.490  0.00  0.00    +0.213 A 
ATOM      4  C   UNL     1      -0.961  -2.065   1.384  0.00  0.00    +0.235 A 
ATOM      5  O   UNL     1      -1.887  -2.783   1.723  0.00  0.00    -0.283 OA
ATOM      6  C   UNL     1       0.289  -2.629   0.846  0.00  0.00    +0.068 A 
ATOM      7  C   UNL     1       0.464  -4.006   0.704  0.00  0.00    +0.019 A 
ATOM      8  C   UNL     1       1.638  -4.491   0.201  0.00  0.00    +0.046 A 
ATOM      9  C   UNL     1       2.659  -3.619  -0.170  0.00  0.00    +0.122 A 
ATOM     10  C   UNL     1       2.501  -2.250  -0.035  0.00  0.00    +0.020 A 
ATOM     11  C   UNL     1       1.315  -1.741   0.474  0.00  0.00    +0.144 A 
ATOM     12  O   UNL     1       1.132  -0.412   0.610  0.00  0.00    -0.456 OA
ENDROOT
BRANCH   9  13
ATOM     13  O   UNL     1       3.820  -4.116  -0.668  0.00  0.00    -0.506 OA
ATOM     14  H   UNL     1       3.824  -4.219  -1.629  0.00  0.00    +0.292 HD
ENDBRANCH   9  13
BRANCH  10  15
ATOM     15  C   UNL     1       3.613  -1.317  -0.440  0.00  0.00    -0.036 C 
BRANCH  15  16
ATOM     16  N   UNL     1       3.655  -1.210  -1.904  0.00  0.00    +0.383 N 
ATOM     17  H   UNL     1       3.702  -2.134  -2.307  0.00  0.00    -0.081 HD
BRANCH  16  18
ATOM     18  C   UNL     1       2.444  -0.529  -2.380  0.00  0.00    -0.075 C 
BRANCH  18  19
ATOM     19  C   UNL     1       1.317  -1.550  -2.547  0.00  0.00    -0.034 C 
ATOM     20  C   UNL     1       0.029  -0.828  -2.949  0.00  0.00    +0.005 C 
ATOM     21  C   UNL     1       1.697  -2.556  -3.635  0.00  0.00    +0.005 C 
ENDBRANCH  18  19
ENDBRANCH  16  18
BRANCH  16  22
ATOM     22  C   UNL     1       4.840  -0.441  -2.305  0.00  0.00    -0.075 C 
BRANCH  22  23
ATOM     23  C   UNL     1       6.104  -1.218  -1.934  0.00  0.00    -0.034 C 
ATOM     24  C   UNL     1       6.143  -2.532  -2.717  0.00  0.00    +0.005 C 
ATOM     25  C   UNL     1       7.337  -0.382  -2.278  0.00  0.00    +0.005 C 
ENDBRANCH  22  23
ENDBRANCH  16  22
ENDBRANCH  15  16
ENDBRANCH  10  15
BRANCH   3  26
ATOM     26  O   UNL     1      -2.171  -0.062   1.979  0.00  0.00    -0.449 OA
BRANCH  26  27
ATOM     27  C   UNL     1      -2.487  -0.276   3.284  0.00  0.00    +0.129 A 
ATOM     28  C   UNL     1      -1.608  -0.966   4.106  0.00  0.00    +0.050 A 
ATOM     29  C   UNL     1      -1.929  -1.183   5.432  0.00  0.00    +0.049 A 
ATOM     30  C   UNL     1      -3.130  -0.712   5.941  0.00  0.00    +0.120 A 
ATOM     31  C   UNL     1      -4.009  -0.023   5.119  0.00  0.00    +0.049 A 
ATOM     32  C   UNL     1      -3.686   0.200   3.795  0.00  0.00    +0.050 A 
BRANCH  30  33
ATOM     33  O   UNL     1      -3.447  -0.927   7.246  0.00  0.00    -0.495 OA
ATOM     34  C   UNL     1      -4.700  -0.415   7.702  0.00  0.00    +0.277 C 
ENDBRANCH  30  33
ENDBRANCH  26  27
ENDBRANCH   3  26
TORSDOF 10
