REMARK  Name = ZINC19865694
REMARK  4 active torsions:
REMARK  status: ('A' for Active; 'I' for Inactive)
REMARK    1  A    between atoms: C_1  and  C_2
REMARK    2  A    between atoms: N_12  and  C_13
REMARK    3  A    between atoms: C_16  and  C_19
REMARK    4  A    between atoms: N_20  and  O_21
REMARK                            x       y       z     vdW  Elec       q    Type
REMARK                         _______ _______ _______ _____ _____    ______ ____
ROOT
ATOM      1  C   UNL     1      -3.547   3.266  -0.650  0.00  0.00    +0.034 A 
ATOM      2  C   UNL     1      -4.668   3.151   0.167  0.00  0.00    +0.024 A 
ATOM      3  C   UNL     1      -5.798   2.515  -0.298  0.00  0.00    +0.013 A 
ATOM      4  C   UNL     1      -5.814   1.975  -1.585  0.00  0.00    +0.018 A 
ATOM      5  C   UNL     1      -4.686   2.087  -2.400  0.00  0.00    +0.013 A 
ATOM      6  C   UNL     1      -3.561   2.729  -1.933  0.00  0.00    +0.024 A 
ENDROOT
BRANCH   1  17
ATOM      7  C   UNL     1      -3.341   5.927  -1.230  0.00  0.00    +0.028 C 
ATOM      8  C   UNL     1      -2.293   5.378  -0.260  0.00  0.00    +0.076 C 
ATOM      9  C   UNL     1      -0.886   5.711  -0.773  0.00  0.00    +0.027 C 
ATOM     10  C   UNL     1       0.141   5.215   0.245  0.00  0.00    +0.039 C 
ATOM     11  C   UNL     1      -0.115   3.772   0.592  0.00  0.00    -0.026 A 
ATOM     12  C   UNL     1       0.913   3.023   1.140  0.00  0.00    +0.005 A 
ATOM     13  C   UNL     1       0.709   1.698   1.473  0.00  0.00    +0.000 A 
ATOM     14  C   UNL     1      -0.526   1.111   1.263  0.00  0.00    +0.002 A 
ATOM     15  C   UNL     1      -1.554   1.849   0.712  0.00  0.00    +0.024 A 
ATOM     16  C   UNL     1      -1.352   3.184   0.378  0.00  0.00    +0.037 A 
ATOM     17  N   UNL     1      -2.407   3.915  -0.179  0.00  0.00    -0.297 N 
ENDBRANCH   1  17
BRANCH   4  18
ATOM     18  C   UNL     1      -7.023   1.285  -2.084  0.00  0.00    +0.162 C 
ATOM     19  N   UNL     1      -7.037   0.781  -3.284  0.00  0.00    -0.072 NA
ATOM     20  N   UNL     1      -8.141   1.175  -1.274  0.00  0.00    -0.340 N 
ATOM     21  H   UNL     1      -9.040   0.662  -1.645  0.00  0.00    +0.144 HD
ATOM     22  H   UNL     1      -8.130   1.600  -0.260  0.00  0.00    +0.144 HD
BRANCH  19  23
ATOM     23  O   UNL     1      -8.194   0.121  -3.762  0.00  0.00    -0.408 OA
ATOM     24  H   UNL     1      -8.206  -0.304  -4.776  0.00  0.00    +0.328 HD
ENDBRANCH  19  23
ENDBRANCH   4  18
TORSDOF 3
