REMARK  Name = ZINC13559250
REMARK  5 active torsions:
REMARK  status: ('A' for Active; 'I' for Inactive)
REMARK    1  A    between atoms: C_1  and  N_2
REMARK    2  A    between atoms: N_4  and  S_5
REMARK    3  A    between atoms: S_5  and  C_8
REMARK    4  A    between atoms: C_17  and  C_28
REMARK    5  A    between atoms: C_19  and  C_21
REMARK                            x       y       z     vdW  Elec       q    Type
REMARK                         _______ _______ _______ _____ _____    ______ ____
ROOT
ATOM      1  C   UNL     1       1.162  -2.782  -2.248  0.00  0.00    +0.128 C 
ATOM      2  N   UNL     1       0.601  -2.083  -1.089  0.00  0.00    -0.318 N 
ATOM      3  C   UNL     1       0.605  -0.709  -1.046  0.00  0.00    +0.222 C 
ATOM      4  N   UNL     1       0.206  -0.089   0.030  0.00  0.00    -0.096 NA
ATOM      5  N   UNL     1       1.030   0.013  -2.138  0.00  0.00    -0.193 N 
ATOM      6  C   UNL     1       1.605  -0.555  -3.368  0.00  0.00    +0.149 C 
ATOM      7  C   UNL     1       1.896   0.685  -4.237  0.00  0.00    +0.089 C 
ATOM      8  C   UNL     1       1.442   1.845  -3.380  0.00  0.00    +0.076 C 
ATOM      9  N   UNL     1       0.980   1.400  -2.263  0.00  0.00    -0.181 NA
ATOM     10  H   UNL     1       0.227  -2.591  -0.352  0.00  0.00    +0.148 HD
ENDROOT
BRANCH   8  11
ATOM     11  C   UNL     1       1.510   3.267  -3.766  0.00  0.00    -0.002 A 
ATOM     12  C   UNL     1       2.022   3.630  -5.014  0.00  0.00    +0.011 A 
ATOM     13  C   UNL     1       2.083   4.961  -5.370  0.00  0.00    +0.020 A 
ATOM     14  C   UNL     1       1.639   5.936  -4.492  0.00  0.00    +0.041 A 
ATOM     15  C   UNL     1       1.132   5.583  -3.253  0.00  0.00    +0.020 A 
ATOM     16  C   UNL     1       1.059   4.255  -2.888  0.00  0.00    +0.011 A 
ATOM     17 CL   UNL     1       1.720   7.610  -4.947  0.00  0.00    -0.084 Cl
ENDBRANCH   8  11
BRANCH   7  18
ATOM     18  C   UNL     1       1.105   0.630  -5.519  0.00  0.00    -0.037 A 
ATOM     19  C   UNL     1      -0.276   0.593  -5.478  0.00  0.00    +0.004 A 
ATOM     20  C   UNL     1      -1.001   0.542  -6.654  0.00  0.00    +0.000 A 
ATOM     21  C   UNL     1      -0.344   0.529  -7.870  0.00  0.00    +0.000 A 
ATOM     22  C   UNL     1       1.037   0.566  -7.911  0.00  0.00    +0.000 A 
ATOM     23  C   UNL     1       1.762   0.621  -6.736  0.00  0.00    +0.004 A 
ENDBRANCH   7  18
BRANCH   4  24
ATOM     24  S   UNL     1       0.173   1.566   0.067  0.00  0.00    +0.102 S 
ATOM     25  O   UNL     1       1.521   2.002  -0.047  0.00  0.00    -0.146 OA
ATOM     26  O   UNL     1      -0.839   1.973  -0.843  0.00  0.00    -0.146 OA
BRANCH  24  27
ATOM     27  C   UNL     1      -0.374   2.040   1.674  0.00  0.00    +0.113 A 
ATOM     28  C   UNL     1      -1.724   2.207   1.923  0.00  0.00    +0.030 A 
ATOM     29  C   UNL     1      -2.154   2.578   3.182  0.00  0.00    +0.022 A 
ATOM     30  C   UNL     1      -1.233   2.783   4.195  0.00  0.00    +0.041 A 
ATOM     31  C   UNL     1       0.117   2.617   3.945  0.00  0.00    +0.022 A 
ATOM     32  C   UNL     1       0.546   2.240   2.686  0.00  0.00    +0.030 A 
ATOM     33 CL   UNL     1      -1.773   3.251   5.777  0.00  0.00    -0.084 Cl
ENDBRANCH  24  27
ENDBRANCH   4  24
TORSDOF 4
