REMARK  Name = ZINC16255430
REMARK  11 active torsions:
REMARK  status: ('A' for Active; 'I' for Inactive)
REMARK    1  A    between atoms: C_1  and  C_2
REMARK    2  A    between atoms: C_2  and  N_3
REMARK    3  A    between atoms: N_3  and  C_4
REMARK    4  A    between atoms: N_3  and  C_30
REMARK    5  A    between atoms: C_7  and  N_10
REMARK    6  A    between atoms: C_11  and  C_13
REMARK    7  A    between atoms: C_13  and  N_14
REMARK    8  A    between atoms: C_17  and  C_21
REMARK    9  A    between atoms: C_17  and  C_22
REMARK   10  A    between atoms: C_30  and  C_31
REMARK   11  A    between atoms: C_30  and  C_32
REMARK                            x       y       z     vdW  Elec       q    Type
REMARK                         _______ _______ _______ _____ _____    ______ ____
ROOT
ATOM      1  C   UNL     1       3.358   6.803  -2.833  0.00  0.00    +0.214 C 
ENDROOT
BRANCH   1   2
ATOM      2  N   UNL     1       3.171   5.769  -1.811  0.00  0.00    -0.215 N 
ATOM      3  C   UNL     1       2.291   5.859  -0.795  0.00  0.00    +0.251 C 
ATOM      4  O   UNL     1       1.533   6.776  -0.562  0.00  0.00    -0.272 OA
ATOM      5  C   UNL     1       2.446   4.576  -0.004  0.00  0.00    +0.135 C 
ATOM      6  N   UNL     1       3.494   3.842  -0.735  0.00  0.00    -0.281 N 
ATOM      7  C   UNL     1       3.853   4.619  -1.773  0.00  0.00    +0.310 C 
ATOM      8  O   UNL     1       4.703   4.310  -2.585  0.00  0.00    -0.252 OA
ATOM      9  C   UNL     1       2.896   4.872   1.428  0.00  0.00    +0.047 C 
ATOM     10  H   UNL     1       3.853   2.970  -0.512  0.00  0.00    +0.152 HD
BRANCH   5  11
ATOM     11  C   UNL     1       1.156   3.796  -0.001  0.00  0.00    -0.014 A 
ATOM     12  C   UNL     1      -0.055   4.463   0.011  0.00  0.00    +0.008 A 
ATOM     13  C   UNL     1      -1.238   3.749   0.013  0.00  0.00    +0.022 A 
ATOM     14  C   UNL     1      -1.211   2.366  -0.003  0.00  0.00    +0.059 A 
ATOM     15  C   UNL     1       0.001   1.698  -0.010  0.00  0.00    +0.060 A 
ATOM     16  C   UNL     1       1.185   2.414  -0.011  0.00  0.00    +0.027 A 
ATOM     17 CL   UNL     1       0.036  -0.038  -0.023  0.00  0.00    -0.082 Cl
ATOM     18 CL   UNL     1      -2.697   1.469  -0.008  0.00  0.00    -0.082 Cl
ENDBRANCH   5  11
ENDBRANCH   1   2
BRANCH   1  20
ATOM     19  N   UNL     1       2.423   7.369  -5.052  0.00  0.00    -0.284 N 
ATOM     20  C   UNL     1       2.427   6.540  -3.989  0.00  0.00    +0.235 C 
ATOM     21  O   UNL     1       1.682   5.584  -3.962  0.00  0.00    -0.274 OA
ATOM     22  H   UNL     1       2.970   8.170  -5.045  0.00  0.00    +0.155 HD
BRANCH  19  26
ATOM     23  C   UNL     1       0.059   6.486  -8.373  0.00  0.00    +0.030 A 
ATOM     24  C   UNL     1      -0.390   6.170  -7.097  0.00  0.00    +0.025 A 
ATOM     25  C   UNL     1       0.393   6.462  -5.998  0.00  0.00    +0.025 A 
ATOM     26  C   UNL     1       1.629   7.072  -6.168  0.00  0.00    +0.034 A 
ATOM     27  C   UNL     1       2.075   7.393  -7.443  0.00  0.00    +0.025 A 
ATOM     28  C   UNL     1       1.296   7.096  -8.543  0.00  0.00    +0.025 A 
BRANCH  23  29
ATOM     29  N   UNL     1      -0.733   6.190  -9.487  0.00  0.00    -0.328 N 
BRANCH  29  30
ATOM     30  C   UNL     1      -0.214   6.421 -10.838  0.00  0.00    +0.067 C 
ATOM     31  C   UNL     1      -0.071   5.082 -11.565  0.00  0.00    +0.027 C 
ATOM     32  C   UNL     1      -1.183   7.319 -11.609  0.00  0.00    +0.027 C 
ENDBRANCH  29  30
BRANCH  29  34
ATOM     33  C   UNL     1      -3.086   6.800  -9.216  0.00  0.00    +0.024 C 
ATOM     34  C   UNL     1      -2.082   5.649  -9.303  0.00  0.00    +0.102 C 
ENDBRANCH  29  34
ENDBRANCH  23  29
ENDBRANCH  19  26
ENDBRANCH   1  20
TORSDOF 7
