REMARK  Name = ZINC43555956
REMARK  4 active torsions:
REMARK  status: ('A' for Active; 'I' for Inactive)
REMARK    1  A    between atoms: C_1  and  C_2
REMARK    2  A    between atoms: C_2  and  C_3
REMARK    3  A    between atoms: C_3  and  C_4
REMARK    4  A    between atoms: N_12  and  C_13
REMARK                            x       y       z     vdW  Elec       q    Type
REMARK                         _______ _______ _______ _____ _____    ______ ____
ROOT
ATOM      1  C   UNL     1      -1.413  -2.041   0.005  0.00  0.00    +0.104 A 
ATOM      2  N   UNL     1      -1.398  -2.891   1.011  0.00  0.00    -0.145 NA
ATOM      3  N   UNL     1      -1.382  -4.131   0.768  0.00  0.00    -0.126 NA
ATOM      4  C   UNL     1      -1.381  -4.599  -0.465  0.00  0.00    +0.189 A 
ATOM      5  S   UNL     1      -1.410  -3.179  -1.373  0.00  0.00    -0.035 S 
ATOM      6  N   UNL     1      -1.365  -5.920  -0.901  0.00  0.00    -0.247 N 
ATOM      7  C   UNL     1      -1.349  -6.926  -0.004  0.00  0.00    +0.306 C 
ATOM      8  O   UNL     1      -1.347  -6.679   1.186  0.00  0.00    -0.252 OA
ATOM      9  N   UNL     1      -1.333  -8.205  -0.427  0.00  0.00    -0.294 N 
ATOM     10  H   UNL     1      -1.366  -6.117  -1.851  0.00  0.00    +0.158 HD
ATOM     11  H   UNL     1      -1.334  -8.402  -1.377  0.00  0.00    +0.151 HD
ENDROOT
BRANCH   9  12
ATOM     12  C   UNL     1      -1.315  -9.299   0.547  0.00  0.00    +0.037 C 
ATOM     13  C   UNL     1      -0.064  -9.183   1.420  0.00  0.00    +0.029 C 
ATOM     14  C   UNL     1      -0.045 -10.325   2.438  0.00  0.00    -0.008 C 
ATOM     15  C   UNL     1      -0.029 -11.666   1.700  0.00  0.00    +0.007 C 
ATOM     16  C   UNL     1      -1.281 -11.781   0.828  0.00  0.00    -0.008 C 
ATOM     17  C   UNL     1      -1.300 -10.639  -0.190  0.00  0.00    +0.029 C 
ATOM     18  C   UNL     1      -2.528 -11.699   1.710  0.00  0.00    +0.007 C 
ATOM     19  C   UNL     1      -2.543 -10.358   2.448  0.00  0.00    -0.008 C 
ATOM     20  C   UNL     1      -1.292 -10.243   3.321  0.00  0.00    +0.007 C 
ATOM     21  C   UNL     1      -2.562  -9.216   1.430  0.00  0.00    +0.029 C 
ENDBRANCH   9  12
BRANCH   1  22
ATOM     22  C   UNL     1      -1.433  -0.534   0.013  0.00  0.00    +0.064 C 
BRANCH  22  24
ATOM     23  C   UNL     1      -0.019   1.526   0.010  0.00  0.00    +0.004 C 
ATOM     24  C   UNL     1       0.002  -0.004   0.002  0.00  0.00    +0.003 C 
ENDBRANCH  22  24
ENDBRANCH   1  22
TORSDOF 3
