REMARK  Name = ZINC09233205
REMARK  13 active torsions:
REMARK  status: ('A' for Active; 'I' for Inactive)
REMARK    1  A    between atoms: C_1  and  C_2
REMARK    2  A    between atoms: C_2  and  O_3
REMARK    3  A    between atoms: O_3  and  C_4
REMARK    4  A    between atoms: C_4  and  C_6
REMARK    5  A    between atoms: C_7  and  C_33
REMARK    6  A    between atoms: N_8  and  C_32
REMARK    7  A    between atoms: C_11  and  N_17
REMARK    8  A    between atoms: C_12  and  O_15
REMARK    9  A    between atoms: O_15  and  C_16
REMARK   10  A    between atoms: C_18  and  C_20
REMARK   11  A    between atoms: C_20  and  N_67
REMARK   12  A    between atoms: C_28  and  C_30
REMARK   13  A    between atoms: C_28  and  C_31
REMARK                            x       y       z     vdW  Elec       q    Type
REMARK                         _______ _______ _______ _____ _____    ______ ____
ROOT
ATOM      1  C   UNL     1       0.361  -1.439  -0.097  0.00  0.00    +0.089 A 
ATOM      2  C   UNL     1       0.229  -0.082  -0.149  0.00  0.00    +0.030 A 
ATOM      3  N   UNL     1      -0.492   0.349   0.914  0.00  0.00    -0.346 N 
ATOM      4  C   UNL     1      -0.871  -0.719   1.704  0.00  0.00    +0.052 A 
ATOM      5  C   UNL     1      -0.358  -1.883   1.112  0.00  0.00    +0.039 A 
ATOM      6  C   UNL     1      -0.588  -3.129   1.701  0.00  0.00    +0.086 A 
ATOM      7  C   UNL     1      -1.327  -3.205   2.874  0.00  0.00    +0.142 A 
ATOM      8  C   UNL     1      -1.832  -2.049   3.456  0.00  0.00    +0.049 A 
ATOM      9  C   UNL     1      -1.609  -0.817   2.879  0.00  0.00    +0.030 A 
ATOM     10  C   UNL     1      -0.827   1.749   1.184  0.00  0.00    +0.149 C 
ATOM     11  C   UNL     1       0.802   0.804  -1.225  0.00  0.00    +0.064 C 
ENDROOT
BRANCH   6  12
ATOM     12  N   UNL     1      -0.077  -4.293   1.112  0.00  0.00    -0.284 N 
ATOM     13  C   UNL     1       0.398  -5.288   1.887  0.00  0.00    +0.201 C 
ATOM     14  O   UNL     1       0.416  -5.161   3.093  0.00  0.00    -0.278 OA
ATOM     15  H   UNL     1      -0.065  -4.382   0.146  0.00  0.00    +0.155 HD
BRANCH  13  16
ATOM     16  C   UNL     1       0.906  -6.558   1.255  0.00  0.00    +0.019 C 
BRANCH  16  26
ATOM     17  C   UNL     1       2.706  -6.834   2.896  0.00  0.00    -0.074 C 
ATOM     18  C   UNL     1       3.688  -8.014   3.089  0.00  0.00    -0.029 C 
ATOM     19  C   UNL     1       2.784  -9.270   2.975  0.00  0.00    -0.014 C 
ATOM     20  C   UNL     1       1.812  -8.779   1.863  0.00  0.00    -0.067 C 
ATOM     21  C   UNL     1       2.572  -8.824   0.549  0.00  0.00    -0.009 C 
ATOM     22  C   UNL     1       3.987  -8.288   0.560  0.00  0.00    -0.036 C 
ATOM     23  C   UNL     1       4.646  -8.039   1.901  0.00  0.00    +0.008 C 
ATOM     24  C   UNL     1       4.038  -6.988  -0.267  0.00  0.00    +0.011 C 
ATOM     25  C   UNL     1       4.870  -9.312  -0.199  0.00  0.00    +0.011 C 
ATOM     26  N   UNL     1       1.485  -7.418   2.342  0.00  0.00    +0.387 N 
ATOM     27  H   UNL     1       0.786  -7.493   3.091  0.00  0.00    -0.081 HD
ENDBRANCH  16  26
ENDBRANCH  13  16
ENDBRANCH   6  12
BRANCH   1  28
ATOM     28  C   UNL     1       1.072  -2.290  -1.058  0.00  0.00    +0.342 C 
ATOM     29  O   UNL     1       0.483  -2.745  -2.019  0.00  0.00    -0.245 OA
BRANCH  28  30
ATOM     30  O   UNL     1       2.379  -2.567  -0.875  0.00  0.00    -0.461 OA
BRANCH  30  32
ATOM     31  C   UNL     1       4.488  -3.616  -1.492  0.00  0.00    +0.048 C 
ATOM     32  C   UNL     1       3.018  -3.415  -1.865  0.00  0.00    +0.229 C 
ENDBRANCH  30  32
ENDBRANCH  28  30
ENDBRANCH   1  28
BRANCH   7  33
ATOM     33  O   UNL     1      -1.556  -4.414   3.454  0.00  0.00    -0.493 OA
ATOM     34  C   UNL     1      -2.421  -4.433   4.592  0.00  0.00    +0.277 C 
ENDBRANCH   7  33
TORSDOF 7
