REMARK  Name = ZINC21539766
REMARK  5 active torsions:
REMARK  status: ('A' for Active; 'I' for Inactive)
REMARK    1  A    between atoms: C_1  and  C_2
REMARK    2  A    between atoms: C_2  and  O_3
REMARK    3  A    between atoms: O_3  and  C_4
REMARK    4  A    between atoms: C_8  and  C_10
REMARK    5  A    between atoms: N_30  and  C_31
REMARK                            x       y       z     vdW  Elec       q    Type
REMARK                         _______ _______ _______ _____ _____    ______ ____
ROOT
ATOM      1  C   UNL     1       3.513   7.401  -0.314  0.00  0.00    +0.155 C 
ATOM      2  C   UNL     1       4.813   7.623   0.406  0.00  0.00    +0.049 A 
ATOM      3  C   UNL     1       5.059   8.305   1.534  0.00  0.00    +0.025 A 
ATOM      4  C   UNL     1       6.456   8.290   1.742  0.00  0.00    +0.020 A 
ATOM      5  C   UNL     1       7.010   7.584   0.730  0.00  0.00    +0.092 A 
ATOM      6  N   UNL     1       6.013   7.150  -0.074  0.00  0.00    -0.312 N 
ATOM      7  C   UNL     1       6.025   6.342  -1.204  0.00  0.00    +0.090 A 
ATOM      8  C   UNL     1       5.159   5.316  -1.418  0.00  0.00    +0.005 A 
ATOM      9  C   UNL     1       5.279   4.626  -2.642  0.00  0.00    -0.030 A 
ATOM     10  C   UNL     1       6.263   5.017  -3.493  0.00  0.00    -0.005 A 
ATOM     11  S   UNL     1       7.044   6.368  -2.647  0.00  0.00    -0.075 S 
ATOM     12  C   UNL     1       6.598   4.439  -4.830  0.00  0.00    +0.043 C 
ATOM     13  C   UNL     1       5.885   3.084  -4.960  0.00  0.00    +0.005 C 
ATOM     14  C   UNL     1       4.426   3.254  -4.529  0.00  0.00    +0.005 C 
ATOM     15  C   UNL     1       4.349   3.475  -3.017  0.00  0.00    +0.036 C 
ATOM     16  C   UNL     1       4.127   4.960  -0.370  0.00  0.00    +0.148 C 
ATOM     17  N   UNL     1       3.078   5.986  -0.232  0.00  0.00    -0.268 N 
ATOM     18  C   UNL     1       1.785   5.654  -0.047  0.00  0.00    +0.308 C 
ATOM     19  O   UNL     1       0.944   6.524   0.063  0.00  0.00    -0.252 OA
ATOM     20  N   UNL     1       1.425   4.357   0.017  0.00  0.00    -0.267 N 
ATOM     21  H   UNL     1       2.195   3.571   0.003  0.00  0.00    +0.156 HD
ENDROOT
BRANCH  20  22
ATOM     22  C   UNL     1       0.070   4.009   0.100  0.00  0.00    +0.070 A 
ATOM     23  C   UNL     1      -0.906   4.914  -0.292  0.00  0.00    +0.029 A 
ATOM     24  C   UNL     1      -2.241   4.570  -0.209  0.00  0.00    +0.040 A 
ATOM     25  C   UNL     1      -2.608   3.320   0.261  0.00  0.00    +0.126 A 
ATOM     26  C   UNL     1      -1.637   2.416   0.659  0.00  0.00    +0.078 A 
ATOM     27  C   UNL     1      -0.299   2.756   0.577  0.00  0.00    +0.147 A 
ATOM     28  F   UNL     1       0.648   1.872   0.960  0.00  0.00    -0.203 F 
ATOM     29  F   UNL     1      -3.914   2.984   0.336  0.00  0.00    -0.205 F 
ENDBRANCH  20  22
BRANCH   1  34
ATOM     30  C   UNL     1       4.645   9.190  -3.444  0.00  0.00    +0.121 A 
ATOM     31  C   UNL     1       3.973   8.476  -4.426  0.00  0.00    +0.045 A 
ATOM     32  C   UNL     1       3.158   7.419  -4.074  0.00  0.00    +0.004 A 
ATOM     33  C   UNL     1       3.010   7.072  -2.743  0.00  0.00    +0.006 A 
ATOM     34  C   UNL     1       3.677   7.781  -1.763  0.00  0.00    -0.018 A 
ATOM     35  C   UNL     1       4.491   8.843  -2.110  0.00  0.00    +0.051 A 
BRANCH  30  36
ATOM     36  O   UNL     1       5.448  10.231  -3.788  0.00  0.00    -0.492 OA
BRANCH  36  38
ATOM     37  C   UNL     1       6.494  11.727  -5.371  0.00  0.00    +0.048 C 
ATOM     38  C   UNL     1       5.554  10.535  -5.180  0.00  0.00    +0.225 C 
ENDBRANCH  36  38
ENDBRANCH  30  36
ENDBRANCH   1  34
TORSDOF 4
