REMARK  Name = ZINC63138789
REMARK  7 active torsions:
REMARK  status: ('A' for Active; 'I' for Inactive)
REMARK    1  A    between atoms: C_1  and  C_2
REMARK    2  A    between atoms: C_2  and  C_33
REMARK    3  A    between atoms: C_4  and  N_10
REMARK    4  A    between atoms: C_6  and  C_8
REMARK    5  A    between atoms: C_6  and  C_9
REMARK    6  A    between atoms: C_30  and  C_31
REMARK    7  A    between atoms: C_30  and  C_32
REMARK                            x       y       z     vdW  Elec       q    Type
REMARK                         _______ _______ _______ _____ _____    ______ ____
ROOT
ATOM      1  N   UNL     1       2.614  -0.817  -2.622  0.00  0.00    -0.288 N 
ATOM      2  C   UNL     1       2.406  -2.217  -2.942  0.00  0.00    +0.204 C 
ATOM      3  C   UNL     1       2.871  -2.544  -4.331  0.00  0.00    +0.234 C 
ATOM      4  O   UNL     1       2.301  -3.495  -4.824  0.00  0.00    -0.274 OA
ATOM      5  N   UNL     1       3.745  -1.816  -5.022  0.00  0.00    -0.281 N 
ATOM      6  C   UNL     1       3.937  -0.392  -4.695  0.00  0.00    +0.167 C 
ATOM      7  C   UNL     1       3.250   0.021  -3.437  0.00  0.00    +0.237 C 
ATOM      8  O   UNL     1       3.272   1.196  -3.137  0.00  0.00    -0.274 OA
ATOM      9  C   UNL     1       3.427   0.460  -5.874  0.00  0.00    +0.065 C 
ATOM     10  C   UNL     1       4.033  -0.142  -7.119  0.00  0.00    -0.034 C 
ATOM     11  C   UNL     1       4.693   0.396  -8.135  0.00  0.00    -0.001 A 
ATOM     12  C   UNL     1       5.027   1.793  -8.459  0.00  0.00    +0.010 A 
ATOM     13  C   UNL     1       5.742   1.989  -9.598  0.00  0.00    +0.001 A 
ATOM     14  C   UNL     1       6.154   0.950 -10.438  0.00  0.00    +0.002 A 
ATOM     15  C   UNL     1       5.887  -0.363 -10.221  0.00  0.00    +0.026 A 
ATOM     16  C   UNL     1       5.135  -0.695  -9.057  0.00  0.00    +0.043 A 
ATOM     17  N   UNL     1       4.728  -1.853  -8.620  0.00  0.00    -0.375 N 
ATOM     18  C   UNL     1       3.944  -1.638  -7.410  0.00  0.00    +0.129 C 
ATOM     19  C   UNL     1       4.511  -2.341  -6.170  0.00  0.00    +0.057 C 
ATOM     20  C   UNL     1       5.997  -1.975  -6.022  0.00  0.00    +0.034 C 
ATOM     21  C   UNL     1       4.416  -3.853  -6.340  0.00  0.00    +0.034 C 
ATOM     22  H   UNL     1       4.917  -2.707  -9.041  0.00  0.00    +0.160 HD
ENDROOT
BRANCH   1  26
ATOM     23  C   UNL     1      -0.019   1.528   0.010  0.00  0.00    -0.010 C 
ATOM     24  C   UNL     1       0.002  -0.004   0.002  0.00  0.00    -0.072 C 
ATOM     25  C   UNL     1       0.573  -0.505  -1.321  0.00  0.00    +0.009 C 
ATOM     26  C   UNL     1       2.088  -0.301  -1.357  0.00  0.00    +0.074 C 
ATOM     27  C   UNL     1       2.703  -1.086  -0.198  0.00  0.00    +0.009 C 
ATOM     28  C   UNL     1       2.147  -0.590   1.133  0.00  0.00    -0.072 C 
ATOM     29  N   UNL     1       0.697  -0.529   1.164  0.00  0.00    +0.386 N 
ATOM     30  C   UNL     1       2.769   0.766   1.481  0.00  0.00    -0.010 C 
ATOM     31  C   UNL     1       2.600  -1.589   2.223  0.00  0.00    -0.010 C 
ATOM     32  C   UNL     1      -1.468  -0.478   0.079  0.00  0.00    -0.010 C 
ATOM     33  H   UNL     1       0.416   0.021   1.982  0.00  0.00    -0.084 HD
ATOM     34  H   UNL     1       0.341  -1.472   1.351  0.00  0.00    -0.084 HD
ENDBRANCH   1  26
TORSDOF 1
