REMARK  Name = ZINC63137985
REMARK  9 active torsions:
REMARK  status: ('A' for Active; 'I' for Inactive)
REMARK    1  A    between atoms: C_1  and  O_2
REMARK    2  A    between atoms: O_2  and  C_3
REMARK    3  A    between atoms: C_7  and  C_9
REMARK    4  A    between atoms: C_9  and  N_10
REMARK    5  A    between atoms: C_30  and  C_32
REMARK    6  A    between atoms: C_35  and  O_40
REMARK    7  A    between atoms: C_36  and  O_38
REMARK    8  A    between atoms: O_38  and  C_39
REMARK    9  A    between atoms: O_40  and  C_41
REMARK                            x       y       z     vdW  Elec       q    Type
REMARK                         _______ _______ _______ _____ _____    ______ ____
ROOT
ATOM      1  N   UNL     1       0.219  -4.643   2.929  0.00  0.00    -0.287 N 
ATOM      2  C   UNL     1       0.232  -4.838   4.390  0.00  0.00    +0.204 C 
ATOM      3  C   UNL     1      -1.049  -4.270   4.963  0.00  0.00    +0.234 C 
ATOM      4  O   UNL     1      -1.049  -3.592   5.968  0.00  0.00    -0.274 OA
ATOM      5  N   UNL     1      -2.212  -4.557   4.289  0.00  0.00    -0.279 N 
ATOM      6  C   UNL     1      -2.069  -5.442   3.152  0.00  0.00    +0.167 C 
ATOM      7  C   UNL     1      -0.940  -4.959   2.278  0.00  0.00    +0.237 C 
ATOM      8  O   UNL     1      -1.052  -4.862   1.074  0.00  0.00    -0.274 OA
ATOM      9  C   UNL     1      -3.301  -5.788   2.357  0.00  0.00    +0.065 C 
ATOM     10  C   UNL     1      -4.453  -4.928   2.798  0.00  0.00    -0.034 C 
ATOM     11  C   UNL     1      -5.415  -4.314   2.122  0.00  0.00    -0.001 A 
ATOM     12  C   UNL     1      -5.738  -4.284   0.686  0.00  0.00    +0.010 A 
ATOM     13  C   UNL     1      -6.811  -3.530   0.328  0.00  0.00    +0.001 A 
ATOM     14  C   UNL     1      -7.585  -2.810   1.244  0.00  0.00    +0.002 A 
ATOM     15  C   UNL     1      -7.363  -2.784   2.582  0.00  0.00    +0.026 A 
ATOM     16  C   UNL     1      -6.264  -3.543   3.080  0.00  0.00    +0.043 A 
ATOM     17  N   UNL     1      -5.837  -3.703   4.296  0.00  0.00    -0.375 N 
ATOM     18  C   UNL     1      -4.683  -4.612   4.274  0.00  0.00    +0.131 C 
ATOM     19  C   UNL     1      -3.426  -3.908   4.761  0.00  0.00    +0.134 C 
ATOM     20  H   UNL     1      -6.216  -3.290   5.088  0.00  0.00    +0.160 HD
ENDROOT
BRANCH  19  21
ATOM     21  C   UNL     1      -3.406  -3.865   6.268  0.00  0.00    -0.021 A 
ATOM     22  C   UNL     1      -2.933  -4.950   6.982  0.00  0.00    +0.009 A 
ATOM     23  C   UNL     1      -2.913  -4.915   8.364  0.00  0.00    +0.050 A 
ATOM     24  C   UNL     1      -3.366  -3.791   9.036  0.00  0.00    +0.162 A 
ATOM     25  C   UNL     1      -3.842  -2.699   8.316  0.00  0.00    +0.162 A 
ATOM     26  C   UNL     1      -3.855  -2.738   6.931  0.00  0.00    +0.055 A 
BRANCH  25  27
ATOM     27  O   UNL     1      -4.288  -1.594   8.971  0.00  0.00    -0.491 OA
ATOM     28  C   UNL     1      -4.762  -0.511   8.168  0.00  0.00    +0.277 C 
ENDBRANCH  25  27
BRANCH  24  29
ATOM     29  O   UNL     1      -3.347  -3.756  10.395  0.00  0.00    -0.491 OA
ATOM     30  C   UNL     1      -2.846  -4.913  11.067  0.00  0.00    +0.277 C 
ENDBRANCH  24  29
ENDBRANCH  19  21
BRANCH   1  31
ATOM     31  C   UNL     1       1.389  -4.130   2.211  0.00  0.00    +0.143 C 
BRANCH  31  36
ATOM     32  C   UNL     1       0.626  -0.618   1.042  0.00  0.00    +0.120 A 
ATOM     33  C   UNL     1       1.202   0.139   2.051  0.00  0.00    +0.045 A 
ATOM     34  C   UNL     1       1.835  -0.488   3.107  0.00  0.00    +0.004 A 
ATOM     35  C   UNL     1       1.895  -1.869   3.158  0.00  0.00    +0.005 A 
ATOM     36  C   UNL     1       1.321  -2.625   2.153  0.00  0.00    -0.027 A 
ATOM     37  C   UNL     1       0.682  -2.003   1.097  0.00  0.00    +0.050 A 
BRANCH  32  39
ATOM     38  C   UNL     1      -0.017   1.425   0.010  0.00  0.00    +0.277 C 
ATOM     39  O   UNL     1       0.002  -0.004   0.002  0.00  0.00    -0.495 OA
ENDBRANCH  32  39
ENDBRANCH  31  36
ENDBRANCH   1  31
TORSDOF 6
