REMARK  Name = ZINC36303413
REMARK  18 active torsions:
REMARK  status: ('A' for Active; 'I' for Inactive)
REMARK    1  A    between atoms: C_1  and  C_2
REMARK    2  A    between atoms: C_2  and  C_3
REMARK    3  A    between atoms: C_4  and  C_22
REMARK    4  A    between atoms: C_5  and  O_15
REMARK    5  A    between atoms: N_6  and  C_8
REMARK    6  A    between atoms: O_15  and  C_16
REMARK    7  A    between atoms: C_22  and  N_23
REMARK    8  A    between atoms: N_23  and  C_24
REMARK    9  A    between atoms: N_23  and  C_30
REMARK   10  A    between atoms: C_24  and  C_25
REMARK   11  A    between atoms: C_30  and  C_31
REMARK   12  A    between atoms: C_31  and  C_33
REMARK   13  A    between atoms: C_31  and  O_39
REMARK   14  A    between atoms: C_33  and  O_34
REMARK   15  A    between atoms: O_34  and  C_35
REMARK   16  A    between atoms: C_35  and  C_36
REMARK   17  A    between atoms: C_35  and  C_37
REMARK   18  A    between atoms: C_35  and  C_38
REMARK                            x       y       z     vdW  Elec       q    Type
REMARK                         _______ _______ _______ _____ _____    ______ ____
ROOT
ATOM      1  C   UNL     1       1.636  -0.906  -2.009  0.00  0.00    +0.068 A 
ATOM      2  C   UNL     1       0.351  -0.925  -2.561  0.00  0.00    +0.021 A 
ATOM      3  C   UNL     1       0.472  -1.185  -3.890  0.00  0.00    +0.225 A 
ATOM      4  N   UNL     1       1.797  -1.325  -4.160  0.00  0.00    -0.200 N 
ATOM      5  N   UNL     1       2.500  -1.139  -2.963  0.00  0.00    -0.168 NA
ENDROOT
BRANCH   4   6
ATOM      6  C   UNL     1       2.360  -1.601  -5.415  0.00  0.00    +0.069 A 
ATOM      7  C   UNL     1       1.797  -2.573  -6.231  0.00  0.00    +0.031 A 
ATOM      8  C   UNL     1       2.353  -2.843  -7.466  0.00  0.00    +0.040 A 
ATOM      9  C   UNL     1       3.471  -2.146  -7.890  0.00  0.00    +0.124 A 
ATOM     10  C   UNL     1       4.035  -1.177  -7.077  0.00  0.00    +0.040 A 
ATOM     11  C   UNL     1       3.478  -0.899  -5.845  0.00  0.00    +0.031 A 
ATOM     12  F   UNL     1       4.014  -2.412  -9.099  0.00  0.00    -0.205 F 
ENDBRANCH   4   6
BRANCH   1  14
ATOM     13  C   UNL     1       2.118   0.851  -0.327  0.00  0.00    +0.010 C 
ATOM     14  C   UNL     1       1.969  -0.653  -0.561  0.00  0.00    +0.054 C 
ENDBRANCH   1  14
BRANCH   3  15
ATOM     15  O   UNL     1      -0.545  -1.287  -4.783  0.00  0.00    -0.438 OA
BRANCH  15  16
ATOM     16  C   UNL     1      -1.185  -2.481  -4.888  0.00  0.00    +0.130 A 
ATOM     17  C   UNL     1      -0.871  -3.517  -4.019  0.00  0.00    +0.046 A 
ATOM     18  C   UNL     1      -1.523  -4.729  -4.127  0.00  0.00    +0.004 A 
ATOM     19  C   UNL     1      -2.488  -4.912  -5.100  0.00  0.00    +0.000 A 
ATOM     20  C   UNL     1      -2.803  -3.882  -5.967  0.00  0.00    +0.004 A 
ATOM     21  C   UNL     1      -2.159  -2.665  -5.859  0.00  0.00    +0.046 A 
ENDBRANCH  15  16
ENDBRANCH   3  15
BRANCH   2  22
ATOM     22  C   UNL     1      -0.938  -0.697  -1.815  0.00  0.00    -0.035 C 
BRANCH  22  23
ATOM     23  N   UNL     1      -1.227   0.743  -1.766  0.00  0.00    +0.389 N 
ATOM     24  H   UNL     1      -0.431   1.233  -1.388  0.00  0.00    -0.081 HD
BRANCH  23  25
ATOM     25  C   UNL     1      -2.398   0.978  -0.909  0.00  0.00    -0.003 C 
BRANCH  25  26
ATOM     26  C   UNL     1      -3.604   0.306  -1.513  0.00  0.00    +0.089 A 
ATOM     27  C   UNL     1      -4.053  -0.926  -1.210  0.00  0.00    +0.042 A 
ATOM     28  C   UNL     1      -5.199  -1.152  -2.005  0.00  0.00    +0.041 A 
ATOM     29  C   UNL     1      -5.384  -0.044  -2.746  0.00  0.00    +0.195 A 
ATOM     30  O   UNL     1      -4.418   0.837  -2.440  0.00  0.00    -0.470 OA
ENDBRANCH  25  26
ENDBRANCH  23  25
BRANCH  23  31
ATOM     31  C   UNL     1      -1.506   1.233  -3.122  0.00  0.00    -0.044 C 
BRANCH  31  32
ATOM     32  C   UNL     1      -1.611   2.759  -3.101  0.00  0.00    +0.124 C 
BRANCH  32  33
ATOM     33  O   UNL     1      -2.786   3.146  -2.387  0.00  0.00    -0.391 OA
ATOM     34  H   UNL     1      -3.608   2.809  -2.770  0.00  0.00    +0.210 HD
ENDBRANCH  32  33
BRANCH  32  35
ATOM     35  C   UNL     1      -1.689   3.284  -4.536  0.00  0.00    +0.189 C 
BRANCH  35  36
ATOM     36  O   UNL     1      -1.670   4.713  -4.522  0.00  0.00    -0.372 OA
BRANCH  36  37
ATOM     37  C   UNL     1      -1.739   5.308  -5.819  0.00  0.00    +0.061 C 
ATOM     38  C   UNL     1      -3.037   4.881  -6.507  0.00  0.00    +0.041 C 
ATOM     39  C   UNL     1      -1.711   6.832  -5.684  0.00  0.00    +0.041 C 
ATOM     40  C   UNL     1      -0.543   4.848  -6.656  0.00  0.00    +0.041 C 
ENDBRANCH  36  37
ENDBRANCH  35  36
ENDBRANCH  32  35
ENDBRANCH  31  32
ENDBRANCH  23  31
ENDBRANCH  22  23
ENDBRANCH   2  22
TORSDOF 14
