REMARK  Name = ZINC15955477
REMARK  15 active torsions:
REMARK  status: ('A' for Active; 'I' for Inactive)
REMARK    1  A    between atoms: C_1  and  C_2
REMARK    2  A    between atoms: C_5  and  O_33
REMARK    3  A    between atoms: C_7  and  C_24
REMARK    4  A    between atoms: C_7  and  C_25
REMARK    5  A    between atoms: C_14  and  C_16
REMARK    6  A    between atoms: C_17  and  C_18
REMARK    7  A    between atoms: C_25  and  O_26
REMARK    8  A    between atoms: O_26  and  C_27
REMARK    9  A    between atoms: C_27  and  C_29
REMARK   10  A    between atoms: C_29  and  C_30
REMARK   11  A    between atoms: C_30  and  C_31
REMARK   12  A    between atoms: O_33  and  C_34
REMARK   13  A    between atoms: C_34  and  C_36
REMARK   14  A    between atoms: C_36  and  C_37
REMARK   15  A    between atoms: C_37  and  C_38
REMARK                            x       y       z     vdW  Elec       q    Type
REMARK                         _______ _______ _______ _____ _____    ______ ____
ROOT
ATOM      1  C   UNL     1       1.716   3.792   0.702  0.00  0.00    +0.012 C 
ATOM      2  C   UNL     1       0.679   3.983   1.823  0.00  0.00    -0.018 C 
ATOM      3  C   UNL     1       0.885   2.888   2.871  0.00  0.00    +0.011 C 
ATOM      4  C   UNL     1       0.568   1.519   2.274  0.00  0.00    +0.046 C 
ATOM      5  C   UNL     1      -0.881   1.486   1.802  0.00  0.00    +0.186 C 
ATOM      6  C   UNL     1      -1.159   2.575   0.769  0.00  0.00    +0.042 C 
ATOM      7  C   UNL     1      -0.742   3.954   1.283  0.00  0.00    +0.009 C 
ATOM      8  C   UNL     1      -1.749   4.381   2.360  0.00  0.00    +0.009 C 
ATOM      9  C   UNL     1      -1.444   5.790   2.880  0.00  0.00    +0.031 C 
ATOM     10  C   UNL     1      -0.028   5.783   3.408  0.00  0.00    -0.069 C 
ATOM     11  C   UNL     1       0.243   6.155   4.633  0.00  0.00    +0.008 C 
ATOM     12  C   UNL     1       1.049   5.332   2.460  0.00  0.00    +0.043 C 
ATOM     13  C   UNL     1      -2.679   2.561   0.489  0.00  0.00    +0.018 C 
ENDROOT
BRANCH  12  14
ATOM     14  C   UNL     1       1.262   6.359   1.379  0.00  0.00    -0.018 C 
ATOM     15  C   UNL     1       2.449   6.933   1.234  0.00  0.00    +0.011 C 
BRANCH  15  16
ATOM     16  C   UNL     1       2.658   7.941   0.174  0.00  0.00    +0.058 C 
ATOM     17  C   UNL     1       3.812   8.588  -0.070  0.00  0.00    +0.028 C 
ATOM     18  C   UNL     1       3.554   9.514  -1.236  0.00  0.00    +0.261 C 
ATOM     19  O   UNL     1       2.162   9.319  -1.610  0.00  0.00    -0.457 OA
ATOM     20  C   UNL     1       1.638   8.393  -0.788  0.00  0.00    +0.339 C 
ATOM     21  O   UNL     1       0.492   7.991  -0.830  0.00  0.00    -0.245 OA
ENDBRANCH  15  16
ENDBRANCH  12  14
BRANCH   6  22
ATOM     22  C   UNL     1      -0.497   2.218  -0.565  0.00  0.00    +0.242 C 
BRANCH  22  23
ATOM     23  O   UNL     1      -0.757   3.271  -1.531  0.00  0.00    -0.464 OA
BRANCH  23  24
ATOM     24  C   UNL     1      -0.242   3.110  -2.760  0.00  0.00    +0.308 C 
ATOM     25  O   UNL     1       0.404   2.123  -3.020  0.00  0.00    -0.251 OA
BRANCH  24  26
ATOM     26  C   UNL     1      -0.469   4.161  -3.816  0.00  0.00    +0.132 C 
BRANCH  26  27
ATOM     27  C   UNL     1       0.219   3.736  -5.115  0.00  0.00    +0.136 C 
BRANCH  27  28
ATOM     28  C   UNL     1      -0.009   4.788  -6.170  0.00  0.00    +0.357 C 
ATOM     29  O   UNL     1      -0.655   5.775  -5.910  0.00  0.00    -0.246 OA
ATOM     30  O   UNL     1       0.506   4.627  -7.399  0.00  0.00    -0.246 OA
ENDBRANCH  27  28
ENDBRANCH  26  27
ENDBRANCH  24  26
ENDBRANCH  23  24
ENDBRANCH  22  23
ENDBRANCH   6  22
BRANCH   5  31
ATOM     31  O   UNL     1      -1.166   0.186   1.215  0.00  0.00    -0.461 OA
BRANCH  31  32
ATOM     32  C   UNL     1      -1.580  -0.782   2.048  0.00  0.00    +0.308 C 
ATOM     33  O   UNL     1      -1.702  -0.552   3.228  0.00  0.00    -0.251 OA
BRANCH  32  34
ATOM     34  C   UNL     1      -1.894  -2.155   1.512  0.00  0.00    +0.132 C 
BRANCH  34  35
ATOM     35  C   UNL     1      -2.341  -3.061   2.660  0.00  0.00    +0.136 C 
BRANCH  35  36
ATOM     36  C   UNL     1      -2.654  -4.434   2.124  0.00  0.00    +0.357 C 
ATOM     37  O   UNL     1      -2.533  -4.664   0.944  0.00  0.00    -0.246 OA
ATOM     38  O   UNL     1      -3.069  -5.402   2.957  0.00  0.00    -0.246 OA
ENDBRANCH  35  36
ENDBRANCH  34  35
ENDBRANCH  32  34
ENDBRANCH  31  32
ENDBRANCH   5  31
TORSDOF 13
