REMARK  Name = ZINC64066435
REMARK  4 active torsions:
REMARK  status: ('A' for Active; 'I' for Inactive)
REMARK    1  A    between atoms: C_4  and  N_24
REMARK    2  A    between atoms: C_5  and  C_7
REMARK    3  A    between atoms: C_12  and  C_15
REMARK    4  A    between atoms: C_25  and  C_27
REMARK                            x       y       z     vdW  Elec       q    Type
REMARK                         _______ _______ _______ _____ _____    ______ ____
ROOT
ATOM      1  C   UNL     1       1.029  -2.274  -0.310  0.00  0.00    +0.249 C 
ATOM      2  O   UNL     1       1.951  -3.047  -0.484  0.00  0.00    -0.270 OA
ATOM      3  N   UNL     1      -0.243  -2.713  -0.396  0.00  0.00    -0.293 N 
ATOM      4  C   UNL     1      -0.548  -4.136  -0.620  0.00  0.00    +0.113 C 
ATOM      5  C   UNL     1      -1.315  -4.654   0.599  0.00  0.00    +0.054 C 
ATOM      6  C   UNL     1      -2.395  -3.688   0.986  0.00  0.00    -0.043 C 
ATOM      7  C   UNL     1      -2.426  -2.414   0.612  0.00  0.00    -0.004 C 
ATOM      8  C   UNL     1      -1.379  -1.790  -0.262  0.00  0.00    +0.135 C 
ENDROOT
BRANCH   6   9
ATOM      9  C   UNL     1      -3.444  -4.163   1.799  0.00  0.00    -0.015 C 
ATOM     10  C   UNL     1      -3.547  -5.415   2.393  0.00  0.00    +0.022 A 
ATOM     11  C   UNL     1      -2.705  -6.551   2.388  0.00  0.00    +0.013 A 
ATOM     12  C   UNL     1      -3.102  -7.651   3.088  0.00  0.00    +0.020 A 
ATOM     13  C   UNL     1      -4.307  -7.649   3.789  0.00  0.00    +0.113 A 
ATOM     14  N   UNL     1      -5.108  -6.615   3.814  0.00  0.00    -0.238 NA
ATOM     15  C   UNL     1      -4.809  -5.476   3.154  0.00  0.00    +0.135 A 
ATOM     16  N   UNL     1      -5.461  -4.340   3.049  0.00  0.00    -0.365 N 
ATOM     17  C   UNL     1      -4.691  -3.413   2.214  0.00  0.00    +0.150 C 
ATOM     18  H   UNL     1      -6.316  -4.144   3.463  0.00  0.00    +0.161 HD
ENDBRANCH   6   9
BRANCH   1  23
ATOM     19  C   UNL     1       0.917   1.475  -0.439  0.00  0.00    +0.001 A 
ATOM     20  C   UNL     1       1.814   1.810   0.563  0.00  0.00    +0.002 A 
ATOM     21  C   UNL     1       2.457   0.824   1.283  0.00  0.00    +0.024 A 
ATOM     22  C   UNL     1       2.209  -0.514   1.006  0.00  0.00    +0.046 A 
ATOM     23  C   UNL     1       1.301  -0.857  -0.007  0.00  0.00    +0.058 A 
ATOM     24  C   UNL     1       0.657   0.153  -0.727  0.00  0.00    +0.015 A 
BRANCH  22  25
ATOM     25  N   UNL     1       2.857  -1.510   1.731  0.00  0.00    -0.278 N 
ATOM     26  C   UNL     1       4.103  -1.299   2.200  0.00  0.00    +0.284 C 
ATOM     27  O   UNL     1       4.633  -0.213   2.054  0.00  0.00    -0.266 OA
ATOM     28  H   UNL     1       2.413  -2.355   1.898  0.00  0.00    +0.155 HD
BRANCH  26  29
ATOM     29  C   UNL     1       4.820  -2.378   2.886  0.00  0.00    +0.189 A 
ATOM     30  C   UNL     1       6.078  -2.298   3.411  0.00  0.00    +0.054 A 
ATOM     31  C   UNL     1       6.363  -3.554   3.969  0.00  0.00    +0.042 A 
ATOM     32  C   UNL     1       5.280  -4.336   3.762  0.00  0.00    +0.196 A 
ATOM     33  O   UNL     1       4.351  -3.622   3.114  0.00  0.00    -0.458 OA
ENDBRANCH  26  29
ENDBRANCH  22  25
ENDBRANCH   1  23
TORSDOF 4
