REMARK  Name = ZINC39674544
REMARK  9 active torsions:
REMARK  status: ('A' for Active; 'I' for Inactive)
REMARK    1  A    between atoms: C_1  and  C_2
REMARK    2  A    between atoms: C_5  and  C_12
REMARK    3  A    between atoms: N_9  and  C_11
REMARK    4  A    between atoms: C_16  and  C_25
REMARK    5  A    between atoms: N_27  and  C_28
REMARK    6  A    between atoms: C_28  and  C_30
REMARK    7  A    between atoms: C_28  and  C_31
REMARK    8  A    between atoms: C_32  and  C_38
REMARK    9  A    between atoms: C_35  and  C_37
REMARK                            x       y       z     vdW  Elec       q    Type
REMARK                         _______ _______ _______ _____ _____    ______ ____
ROOT
ATOM      1  C   UNL     1       0.803  -1.114  -6.811  0.00  0.00    +0.250 C 
ATOM      2  O   UNL     1       0.708  -0.089  -7.459  0.00  0.00    -0.270 OA
ATOM      3  N   UNL     1       0.764  -2.310  -7.431  0.00  0.00    -0.296 N 
ATOM      4  C   UNL     1       0.753  -3.655  -6.810  0.00  0.00    +0.121 C 
ATOM      5  C   UNL     1      -0.233  -4.475  -7.673  0.00  0.00    +0.100 C 
ATOM      6  C   UNL     1      -0.247  -3.763  -9.036  0.00  0.00    -0.004 C 
ATOM      7  C   UNL     1       0.715  -2.576  -8.889  0.00  0.00    +0.115 C 
ATOM      8  C   UNL     1      -1.652  -3.260  -9.354  0.00  0.00    -0.010 C 
ATOM      9  C   UNL     1      -1.653  -2.606 -10.739  0.00  0.00    -0.082 C 
ATOM     10  N   UNL     1      -1.224  -3.586 -11.744  0.00  0.00    +0.379 N 
ATOM     11  C   UNL     1       0.162  -3.995 -11.484  0.00  0.00    -0.082 C 
ATOM     12  C   UNL     1       0.240  -4.707 -10.131  0.00  0.00    -0.010 C 
ATOM     13  H   UNL     1      -1.826  -4.394 -11.703  0.00  0.00    -0.086 HD
ATOM     14  H   UNL     1      -1.284  -3.171 -12.662  0.00  0.00    -0.086 HD
ENDROOT
BRANCH   1  19
ATOM     15  C   UNL     1      -0.928   1.980  -2.281  0.00  0.00    +0.068 C 
ATOM     16  C   UNL     1      -0.003   0.799  -2.138  0.00  0.00    +0.071 A 
ATOM     17  C   UNL     1       0.491  -0.045  -3.221  0.00  0.00    +0.060 A 
ATOM     18  C   UNL     1       0.306  -0.059  -4.607  0.00  0.00    +0.067 A 
ATOM     19  C   UNL     1       0.960  -1.048  -5.345  0.00  0.00    +0.074 A 
ATOM     20  C   UNL     1       1.768  -1.978  -4.675  0.00  0.00    +0.127 A 
ATOM     21  N   UNL     1       1.921  -1.937  -3.373  0.00  0.00    -0.235 NA
ATOM     22  C   UNL     1       1.321  -1.016  -2.623  0.00  0.00    +0.160 A 
ATOM     23  N   UNL     1       1.315  -0.761  -1.281  0.00  0.00    -0.249 N 
ATOM     24  N   UNL     1       0.505   0.350  -1.026  0.00  0.00    -0.174 NA
ATOM     25  C   UNL     1       2.046  -1.527  -0.269  0.00  0.00    +0.174 C 
ATOM     26 CL   UNL     1      -0.707   1.117  -5.386  0.00  0.00    -0.082 Cl
ENDBRANCH   1  19
BRANCH   5  27
ATOM     27  C   UNL     1       0.256  -5.893  -7.824  0.00  0.00    +0.219 C 
ATOM     28  O   UNL     1       1.443  -6.135  -7.757  0.00  0.00    -0.275 OA
ATOM     29  N   UNL     1      -0.625  -6.891  -8.033  0.00  0.00    -0.309 N 
ATOM     30  H   UNL     1      -1.574  -6.697  -8.087  0.00  0.00    +0.149 HD
BRANCH  29  31
ATOM     31  C   UNL     1      -0.149  -8.269  -8.180  0.00  0.00    +0.100 C 
ATOM     32  C   UNL     1       0.116  -8.867  -6.797  0.00  0.00    +0.033 C 
BRANCH  31  33
ATOM     33  C   UNL     1      -1.196  -9.088  -8.889  0.00  0.00    -0.001 C 
ATOM     34  C   UNL     1      -1.067  -9.789 -10.018  0.00  0.00    +0.063 C 
ATOM     35  N   UNL     1      -2.231 -10.395 -10.343  0.00  0.00    -0.159 NA
ATOM     36  N   UNL     1      -3.155 -10.185  -9.554  0.00  0.00    -0.180 NA
ATOM     37  C   UNL     1      -2.642  -9.315  -8.482  0.00  0.00    +0.154 C 
ATOM     38  C   UNL     1      -3.409  -7.991  -8.450  0.00  0.00    +0.039 C 
ATOM     39  C   UNL     1       0.204  -9.890 -10.821  0.00  0.00    +0.067 C 
ENDBRANCH  31  33
ENDBRANCH  29  31
ENDBRANCH   5  27
TORSDOF 4
