REMARK  Name = ZINC05607102
REMARK  8 active torsions:
REMARK  status: ('A' for Active; 'I' for Inactive)
REMARK    1  A    between atoms: C_1  and  C_2
REMARK    2  A    between atoms: C_4  and  C_31
REMARK    3  A    between atoms: C_5  and  N_9
REMARK    4  A    between atoms: C_6  and  C_8
REMARK    5  A    between atoms: C_10  and  C_12
REMARK    6  A    between atoms: C_12  and  C_14
REMARK    7  A    between atoms: C_12  and  N_15
REMARK    8  A    between atoms: C_26  and  C_30
REMARK                            x       y       z     vdW  Elec       q    Type
REMARK                         _______ _______ _______ _____ _____    ______ ____
ROOT
ATOM      1  C   UNL     1      -0.273   0.009  -0.651  0.00  0.00    +0.195 C 
ATOM      2  C   UNL     1      -1.631  -0.560  -1.067  0.00  0.00    +0.043 C 
ENDROOT
BRANCH   1   3
ATOM      3  N   UNL     1       0.753  -0.439  -1.596  0.00  0.00    -0.199 N 
ATOM      4  C   UNL     1       1.797  -1.163  -1.150  0.00  0.00    +0.279 A 
ATOM      5  O   UNL     1       1.895  -1.451   0.030  0.00  0.00    -0.265 OA
ATOM      6  C   UNL     1       2.790  -1.596  -2.092  0.00  0.00    +0.079 A 
ATOM      7  C   UNL     1       3.993  -2.385  -1.836  0.00  0.00    -0.023 A 
ATOM      8  C   UNL     1       4.782  -2.662  -2.897  0.00  0.00    -0.004 A 
ATOM      9  S   UNL     1       3.978  -1.897  -4.279  0.00  0.00    -0.071 S 
ATOM     10  C   UNL     1       2.582  -1.206  -3.424  0.00  0.00    +0.138 A 
ATOM     11  N   UNL     1       1.531  -0.484  -3.800  0.00  0.00    -0.123 NA
ATOM     12  N   UNL     1       0.641  -0.103  -2.949  0.00  0.00    -0.061 NA
ATOM     13  C   UNL     1       6.058  -3.447  -2.898  0.00  0.00    +0.046 C 
ATOM     14  C   UNL     1       6.157  -4.212  -1.571  0.00  0.00    -0.009 C 
ATOM     15  C   UNL     1       5.844  -3.248  -0.423  0.00  0.00    +0.008 C 
ATOM     16  C   UNL     1       4.359  -2.884  -0.441  0.00  0.00    +0.037 C 
ATOM     17  C   UNL     1       7.573  -4.767  -1.403  0.00  0.00    +0.008 C 
ENDBRANCH   1   3
BRANCH   1  19
ATOM     18  N   UNL     1      -1.219   2.153   0.139  0.00  0.00    -0.283 N 
ATOM     19  C   UNL     1      -0.337   1.514  -0.655  0.00  0.00    +0.242 C 
ATOM     20  O   UNL     1       0.403   2.151  -1.375  0.00  0.00    -0.273 OA
ATOM     21  H   UNL     1      -1.849   1.644   0.673  0.00  0.00    +0.155 HD
BRANCH  18  26
ATOM     22  C   UNL     1      -1.253   7.822   0.355  0.00  0.00    +0.044 C 
ATOM     23  C   UNL     1      -1.244   6.316   0.297  0.00  0.00    -0.050 A 
ATOM     24  C   UNL     1      -2.417   5.628   0.048  0.00  0.00    +0.008 A 
ATOM     25  C   UNL     1      -2.413   4.248  -0.005  0.00  0.00    -0.029 A 
ATOM     26  C   UNL     1      -1.228   3.552   0.192  0.00  0.00    +0.039 A 
ATOM     27  C   UNL     1      -0.052   4.245   0.449  0.00  0.00    -0.029 A 
ATOM     28  C   UNL     1      -0.062   5.625   0.494  0.00  0.00    +0.008 A 
ATOM     29  C   UNL     1       1.235   3.493   0.670  0.00  0.00    +0.045 C 
ATOM     30  C   UNL     1      -3.692   3.500  -0.277  0.00  0.00    +0.045 C 
ENDBRANCH  18  26
ENDBRANCH   1  19
TORSDOF 3
