REMARK  Name = ZINC13132298
REMARK  2 active torsions:
REMARK  status: ('A' for Active; 'I' for Inactive)
REMARK    1  A    between atoms: C_5  and  C_7
REMARK    2  A    between atoms: C_10  and  C_19
REMARK                            x       y       z     vdW  Elec       q    Type
REMARK                         _______ _______ _______ _____ _____    ______ ____
ROOT
ATOM      1  C   UNL     1       1.229  -2.186  -0.022  0.00  0.00    +0.144 C 
ATOM      2  C   UNL     1       0.520  -2.717   1.230  0.00  0.00    +0.059 C 
ATOM      3  C   UNL     1       0.294  -4.227   1.096  0.00  0.00    +0.106 C 
ATOM      4  N   UNL     1      -0.592  -4.470  -0.059  0.00  0.00    -0.307 N 
ATOM      5  C   UNL     1      -0.317  -3.739  -1.207  0.00  0.00    +0.216 A 
ATOM      6  N   UNL     1       0.529  -2.679  -1.208  0.00  0.00    -0.224 N 
ATOM      7  N   UNL     1       0.569  -2.198  -2.517  0.00  0.00    -0.132 NA
ATOM      8  C   UNL     1      -0.229  -2.964  -3.227  0.00  0.00    +0.233 A 
ATOM      9  N   UNL     1      -0.769  -3.898  -2.423  0.00  0.00    -0.180 NA
ATOM     10  N   UNL     1      -0.479  -2.827  -4.593  0.00  0.00    -0.326 N 
ATOM     11  H   UNL     1      -1.325  -5.104  -0.018  0.00  0.00    +0.149 HD
ATOM     12  H   UNL     1      -0.048  -2.119  -5.097  0.00  0.00    +0.145 HD
ATOM     13  H   UNL     1      -1.085  -3.440  -5.039  0.00  0.00    +0.145 HD
ENDROOT
BRANCH   1  18
ATOM     14  C   UNL     1      -0.017   1.378   0.010  0.00  0.00    +0.000 A 
ATOM     15  C   UNL     1       1.171   2.086   0.002  0.00  0.00    +0.001 A 
ATOM     16  C   UNL     1       2.377   1.412  -0.013  0.00  0.00    +0.020 A 
ATOM     17  C   UNL     1       2.397   0.029  -0.021  0.00  0.00    +0.046 A 
ATOM     18  C   UNL     1       1.208  -0.679  -0.013  0.00  0.00    -0.005 A 
ATOM     19  C   UNL     1       0.002  -0.004   0.002  0.00  0.00    +0.007 A 
ATOM     20 CL   UNL     1       3.912  -0.818  -0.041  0.00  0.00    -0.083 Cl
ENDBRANCH   1  18
BRANCH   3  21
ATOM     21  C   UNL     1      -0.350  -4.756   2.352  0.00  0.00    -0.027 A 
ATOM     22  C   UNL     1      -1.712  -4.611   2.544  0.00  0.00    +0.008 A 
ATOM     23  C   UNL     1      -2.303  -5.096   3.695  0.00  0.00    +0.038 A 
ATOM     24  C   UNL     1      -1.532  -5.727   4.656  0.00  0.00    +0.123 A 
ATOM     25  C   UNL     1      -0.169  -5.871   4.463  0.00  0.00    +0.038 A 
ATOM     26  C   UNL     1       0.420  -5.390   3.308  0.00  0.00    +0.008 A 
ATOM     27  F   UNL     1      -2.110  -6.201   5.782  0.00  0.00    -0.205 F 
ENDBRANCH   3  21
TORSDOF 2
