REMARK  Name = ZINC41129929
REMARK  5 active torsions:
REMARK  status: ('A' for Active; 'I' for Inactive)
REMARK    1  A    between atoms: C_3  and  S_19
REMARK    2  A    between atoms: C_6  and  C_7
REMARK    3  A    between atoms: C_8  and  C_9
REMARK    4  A    between atoms: C_14  and  C_16
REMARK    5  A    between atoms: S_19  and  C_20
REMARK                            x       y       z     vdW  Elec       q    Type
REMARK                         _______ _______ _______ _____ _____    ______ ____
ROOT
ATOM      1  C   UNL     1      -1.259  -0.758   0.011  0.00  0.00    +0.013 C 
ATOM      2  C   UNL     1      -1.238  -2.108   0.003  0.00  0.00    +0.068 C 
ENDROOT
BRANCH   2   3
ATOM      3  C   UNL     1      -2.493  -2.858   0.011  0.00  0.00    +0.239 C 
ATOM      4  O   UNL     1      -3.556  -2.266   0.025  0.00  0.00    -0.271 OA
ATOM      5  N   UNL     1      -2.472  -4.206   0.004  0.00  0.00    -0.297 N 
ATOM      6  C   UNL     1      -1.265  -5.045  -0.006  0.00  0.00    +0.109 C 
ATOM      7  C   UNL     1      -1.729  -6.516   0.016  0.00  0.00    +0.033 C 
ATOM      8  C   UNL     1      -3.160  -6.420   0.609  0.00  0.00    +0.093 C 
ATOM      9  C   UNL     1      -3.657  -5.083   0.011  0.00  0.00    +0.120 C 
BRANCH   8  10
ATOM     10  C   UNL     1      -4.014  -7.572   0.146  0.00  0.00    +0.215 C 
ATOM     11  O   UNL     1      -3.549  -8.414  -0.593  0.00  0.00    -0.276 OA
ATOM     12  N   UNL     1      -5.295  -7.668   0.554  0.00  0.00    -0.329 N 
ATOM     13  H   UNL     1      -5.667  -6.995   1.146  0.00  0.00    +0.145 HD
ATOM     14  H   UNL     1      -5.845  -8.409   0.257  0.00  0.00    +0.145 HD
ENDBRANCH   8  10
ENDBRANCH   2   3
BRANCH   1  20
ATOM     15  C   UNL     1      -0.017   1.397   0.010  0.00  0.00    +0.009 A 
ATOM     16  C   UNL     1       1.157   2.094   0.002  0.00  0.00    +0.015 A 
ATOM     17  C   UNL     1       2.373   1.413  -0.013  0.00  0.00    +0.016 A 
ATOM     18  C   UNL     1       2.397   0.020  -0.021  0.00  0.00    +0.015 A 
ATOM     19  C   UNL     1       1.226  -0.684  -0.013  0.00  0.00    +0.009 A 
ATOM     20  C   UNL     1       0.002  -0.004   0.002  0.00  0.00    -0.025 A 
BRANCH  17  21
ATOM     21  S   UNL     1       3.886   2.317  -0.023  0.00  0.00    -0.016 S 
BRANCH  21  22
ATOM     22  C   UNL     1       5.165   1.032  -0.042  0.00  0.00    +0.448 C 
ATOM     23  F   UNL     1       5.016   0.242  -1.187  0.00  0.00    -0.160 F 
ATOM     24  F   UNL     1       6.429   1.632  -0.051  0.00  0.00    -0.160 F 
ATOM     25  F   UNL     1       5.038   0.230   1.097  0.00  0.00    -0.160 F 
ENDBRANCH  21  22
ENDBRANCH  17  21
ENDBRANCH   1  20
TORSDOF 5
