REMARK  Name = ZINC18434721
REMARK  6 active torsions:
REMARK  status: ('A' for Active; 'I' for Inactive)
REMARK    1  A    between atoms: C_1  and  C_2
REMARK    2  A    between atoms: C_2  and  C_4
REMARK    3  A    between atoms: C_2  and  S_17
REMARK    4  A    between atoms: S_17  and  C_18
REMARK    5  A    between atoms: C_21  and  C_29
REMARK    6  A    between atoms: C_22  and  C_24
REMARK                            x       y       z     vdW  Elec       q    Type
REMARK                         _______ _______ _______ _____ _____    ______ ____
ROOT
ATOM      1  S   UNL     1       5.497   5.561   1.016  0.00  0.00    -0.075 S 
ENDROOT
BRANCH   1   2
ATOM      2  C   UNL     1       4.024   4.813   0.401  0.00  0.00    +0.168 A 
ATOM      3  N   UNL     1       3.085   5.435  -0.367  0.00  0.00    -0.332 N 
ATOM      4  H   UNL     1       3.108   6.385  -0.679  0.00  0.00    +0.168 HD
ATOM      5  C   UNL     1       2.094   4.505  -0.634  0.00  0.00    +0.082 A 
ATOM      6  C   UNL     1       2.482   3.333  -0.003  0.00  0.00    +0.105 A 
ATOM      7  N   UNL     1       3.657   3.573   0.616  0.00  0.00    -0.221 NA
BRANCH   6   8
ATOM      8  C   UNL     1       1.742   2.058  -0.004  0.00  0.00    +0.040 A 
ATOM      9  C   UNL     1       2.228   0.776  -0.015  0.00  0.00    +0.018 A 
ATOM     10  C   UNL     1       1.333  -0.271  -0.012  0.00  0.00    +0.008 A 
ATOM     11  C   UNL     1       0.002  -0.004   0.002  0.00  0.00    +0.046 A 
ATOM     12  S   UNL     1      -0.022   1.781   0.012  0.00  0.00    -0.095 S 
ENDBRANCH   6   8
BRANCH   5  13
ATOM     13  C   UNL     1       0.876   4.718  -1.427  0.00  0.00    +0.038 A 
ATOM     14  C   UNL     1      -0.014   5.777  -1.391  0.00  0.00    +0.017 A 
ATOM     15  C   UNL     1      -1.094   5.752  -2.246  0.00  0.00    +0.008 A 
ATOM     16  C   UNL     1      -1.256   4.695  -3.080  0.00  0.00    +0.046 A 
ATOM     17  S   UNL     1       0.154   3.675  -2.682  0.00  0.00    -0.095 S 
ENDBRANCH   5  13
ENDBRANCH   1   2
BRANCH   1  19
ATOM     18  C   UNL     1       6.572   3.051   0.928  0.00  0.00    +0.029 C 
ATOM     19  C   UNL     1       6.208   4.161   1.916  0.00  0.00    +0.137 C 
BRANCH  19  20
ATOM     20  C   UNL     1       7.448   4.611   2.645  0.00  0.00    +0.233 C 
ATOM     21  O   UNL     1       8.022   5.622   2.299  0.00  0.00    -0.274 OA
ATOM     22  N   UNL     1       7.919   3.889   3.681  0.00  0.00    -0.260 N 
ATOM     23  C   UNL     1       7.239   2.663   4.124  0.00  0.00    +0.209 C 
ATOM     24  C   UNL     1       7.205   2.630   5.626  0.00  0.00    +0.235 C 
ATOM     25  O   UNL     1       6.301   2.053   6.192  0.00  0.00    -0.274 OA
ATOM     26  N   UNL     1       8.164   3.236   6.352  0.00  0.00    -0.283 N 
ATOM     27  C   UNL     1       9.192   3.949   5.726  0.00  0.00    +0.055 A 
ATOM     28  C   UNL     1       9.072   4.287   4.376  0.00  0.00    +0.058 A 
ATOM     29  C   UNL     1      10.076   4.999   3.745  0.00  0.00    +0.025 A 
ATOM     30  C   UNL     1      11.203   5.373   4.457  0.00  0.00    +0.002 A 
ATOM     31  C   UNL     1      11.325   5.037   5.792  0.00  0.00    +0.002 A 
ATOM     32  C   UNL     1      10.324   4.327   6.429  0.00  0.00    +0.025 A 
ATOM     33  H   UNL     1       8.143   3.176   7.320  0.00  0.00    +0.155 HD
ENDBRANCH  19  20
ENDBRANCH   1  19
TORSDOF 5
