REMARK  Name = ZINC13357810
REMARK  18 active torsions:
REMARK  status: ('A' for Active; 'I' for Inactive)
REMARK    1  A    between atoms: C_1  and  C_2
REMARK    2  A    between atoms: C_2  and  O_3
REMARK    3  A    between atoms: O_3  and  C_4
REMARK    4  A    between atoms: C_6  and  C_21
REMARK    5  A    between atoms: C_9  and  O_10
REMARK    6  A    between atoms: O_10  and  C_11
REMARK    7  A    between atoms: C_11  and  C_12
REMARK    8  A    between atoms: N_14  and  C_15
REMARK    9  A    between atoms: N_14  and  C_18
REMARK   10  A    between atoms: C_15  and  C_16
REMARK   11  A    between atoms: C_15  and  C_17
REMARK   12  A    between atoms: C_18  and  C_19
REMARK   13  A    between atoms: C_18  and  C_20
REMARK   14  A    between atoms: C_22  and  C_23
REMARK   15  A    between atoms: C_23  and  C_25
REMARK   16  A    between atoms: C_29  and  O_31
REMARK   17  A    between atoms: O_31  and  C_32
REMARK   18  A    between atoms: C_32  and  C_33
REMARK                            x       y       z     vdW  Elec       q    Type
REMARK                         _______ _______ _______ _____ _____    ______ ____
ROOT
ATOM      1  C   UNL     1      -2.186  -1.285   0.520  0.00  0.00    +0.162 A 
ATOM      2  C   UNL     1      -1.137  -0.749   1.238  0.00  0.00    +0.057 A 
ATOM      3  C   UNL     1      -1.380  -0.131   2.471  0.00  0.00    -0.021 A 
ATOM      4  C   UNL     1      -2.685  -0.070   2.974  0.00  0.00    +0.012 A 
ATOM      5  C   UNL     1      -3.726  -0.613   2.253  0.00  0.00    +0.050 A 
ATOM      6  C   UNL     1      -3.484  -1.221   1.028  0.00  0.00    +0.163 A 
ENDROOT
BRANCH   3   7
ATOM      7  C   UNL     1      -0.268   0.447   3.238  0.00  0.00    +0.012 C 
ATOM      8  C   UNL     1      -0.505   1.038   4.431  0.00  0.00    +0.052 C 
BRANCH   8   9
ATOM      9  C   UNL     1       0.568   1.596   5.171  0.00  0.00    +0.186 C 
ATOM     10  O   UNL     1       1.703   1.543   4.732  0.00  0.00    -0.287 OA
BRANCH   9  11
ATOM     11  C   UNL     1       0.310   2.242   6.476  0.00  0.00    +0.025 A 
ATOM     12  C   UNL     1      -0.991   2.305   6.982  0.00  0.00    +0.012 A 
ATOM     13  C   UNL     1      -1.228   2.908   8.199  0.00  0.00    +0.004 A 
ATOM     14  C   UNL     1      -0.182   3.452   8.922  0.00  0.00    +0.046 A 
ATOM     15  C   UNL     1       1.114   3.396   8.427  0.00  0.00    +0.122 A 
ATOM     16  C   UNL     1       1.365   2.787   7.209  0.00  0.00    +0.057 A 
BRANCH  15  17
ATOM     17  O   UNL     1       2.138   3.932   9.142  0.00  0.00    -0.481 OA
BRANCH  17  18
ATOM     18  C   UNL     1       1.808   4.538  10.393  0.00  0.00    +0.353 C 
BRANCH  18  19
ATOM     19  C   UNL     1       3.061   5.073  11.038  0.00  0.00    +0.393 C 
ATOM     20  O   UNL     1       4.127   4.948  10.483  0.00  0.00    -0.243 OA
ATOM     21  O   UNL     1       2.993   5.688  12.229  0.00  0.00    -0.243 OA
ENDBRANCH  18  19
ENDBRANCH  17  18
ENDBRANCH  15  17
ENDBRANCH   9  11
ENDBRANCH   8   9
ENDBRANCH   3   7
BRANCH   1  22
ATOM     22  O   UNL     1      -1.955  -1.881  -0.680  0.00  0.00    -0.489 OA
BRANCH  22  24
ATOM     23  C   UNL     1      -0.539  -2.615  -2.496  0.00  0.00    +0.048 C 
ATOM     24  C   UNL     1      -0.602  -1.911  -1.139  0.00  0.00    +0.226 C 
ENDBRANCH  22  24
ENDBRANCH   1  22
BRANCH   6  25
ATOM     25  O   UNL     1      -4.514  -1.755   0.322  0.00  0.00    -0.479 OA
BRANCH  25  26
ATOM     26  C   UNL     1      -5.817  -1.655   0.900  0.00  0.00    +0.325 C 
BRANCH  26  27
ATOM     27  C   UNL     1      -6.825  -2.297  -0.018  0.00  0.00    +0.254 C 
ATOM     28  O   UNL     1      -6.452  -2.883  -1.013  0.00  0.00    -0.272 OA
ATOM     29  N   UNL     1      -8.140  -2.222   0.266  0.00  0.00    -0.294 N 
BRANCH  29  30
ATOM     30  C   UNL     1      -8.600  -1.409   1.395  0.00  0.00    +0.070 C 
ATOM     31  C   UNL     1      -7.774  -1.748   2.637  0.00  0.00    +0.028 C 
ATOM     32  C   UNL     1      -8.430   0.074   1.058  0.00  0.00    +0.028 C 
ENDBRANCH  29  30
BRANCH  29  33
ATOM     33  C   UNL     1      -9.110  -2.952  -0.554  0.00  0.00    +0.070 C 
ATOM     34  C   UNL     1      -9.878  -3.941   0.324  0.00  0.00    +0.028 C 
ATOM     35  C   UNL     1     -10.091  -1.962  -1.187  0.00  0.00    +0.028 C 
ENDBRANCH  29  33
ENDBRANCH  26  27
ENDBRANCH  25  26
ENDBRANCH   6  25
TORSDOF 13
