REMARK  Name = ZINC17289236
REMARK  2 active torsions:
REMARK  status: ('A' for Active; 'I' for Inactive)
REMARK    1  A    between atoms: C_1  and  S_2
REMARK    2  A    between atoms: S_2  and  C_3
REMARK                            x       y       z     vdW  Elec       q    Type
REMARK                         _______ _______ _______ _____ _____    ______ ____
ROOT
ATOM      1  C   UNL     1      -1.702  -0.454   0.016  0.00  0.00    +0.169 A 
ATOM      2  N   UNL     1      -2.712   0.391   0.024  0.00  0.00    -0.204 NA
ATOM      3  C   UNL     1      -3.866  -0.281   0.034  0.00  0.00    +0.164 A 
ATOM      4  C   UNL     1      -3.562  -1.638   0.031  0.00  0.00    +0.117 A 
ATOM      5  N   UNL     1      -2.180  -1.729   0.014  0.00  0.00    -0.330 N 
ATOM      6  C   UNL     1      -4.616  -2.574   0.039  0.00  0.00    +0.140 A 
ATOM      7  N   UNL     1      -5.887  -2.135   0.049  0.00  0.00    -0.184 NA
ATOM      8  C   UNL     1      -6.168  -0.853   0.051  0.00  0.00    +0.348 A 
ATOM      9  N   UNL     1      -5.195   0.096   0.045  0.00  0.00    -0.289 N 
ATOM     10  O   UNL     1      -7.460  -0.466   0.061  0.00  0.00    -0.245 OA
ATOM     11  S   UNL     1      -4.281  -4.253   0.035  0.00  0.00    -0.028 S 
ATOM     12  H   UNL     1      -1.654  -2.544   0.004  0.00  0.00    +0.168 HD
ATOM     13  H   UNL     1      -5.433   1.036   0.047  0.00  0.00    +0.172 HD
ENDROOT
BRANCH   1  15
ATOM     14  C   UNL     1      -0.022   1.810   0.012  0.00  0.00    +0.093 C 
ATOM     15  S   UNL     1       0.002  -0.004   0.002  0.00  0.00    -0.091 S 
ENDBRANCH   1  15
TORSDOF 1
