REMARK  Name = ZINC62613468
REMARK  6 active torsions:
REMARK  status: ('A' for Active; 'I' for Inactive)
REMARK    1  A    between atoms: C_4  and  C_7
REMARK    2  A    between atoms: C_9  and  C_12
REMARK    3  A    between atoms: N_18  and  C_19
REMARK    4  A    between atoms: C_19  and  C_20
REMARK    5  A    between atoms: C_23  and  C_33
REMARK    6  A    between atoms: C_26  and  C_28
REMARK                            x       y       z     vdW  Elec       q    Type
REMARK                         _______ _______ _______ _____ _____    ______ ____
ROOT
ATOM      1  C   UNL     1       5.692  -3.722  -0.082  0.00  0.00    +0.023 C 
ATOM      2  C   UNL     1       6.218  -4.040  -1.483  0.00  0.00    -0.006 C 
ATOM      3  C   UNL     1       6.798  -5.457  -1.496  0.00  0.00    -0.003 C 
ATOM      4  C   UNL     1       7.891  -5.560  -0.429  0.00  0.00    -0.019 C 
ATOM      5  C   UNL     1       7.303  -5.186   0.934  0.00  0.00    -0.077 C 
ATOM      6  N   UNL     1       6.790  -3.812   0.888  0.00  0.00    +0.393 N 
ATOM      7  H   UNL     1       7.532  -3.185   0.614  0.00  0.00    -0.080 HD
ENDROOT
BRANCH   1  10
ATOM      8  C   UNL     1       3.699  -0.689  -0.037  0.00  0.00    +0.202 A 
ATOM      9  N   UNL     1       3.853  -2.025  -0.051  0.00  0.00    -0.193 NA
ATOM     10  C   UNL     1       5.120  -2.328  -0.065  0.00  0.00    +0.214 A 
ATOM     11  O   UNL     1       5.828  -1.191  -0.059  0.00  0.00    -0.339 OA
ATOM     12  N   UNL     1       4.884  -0.131  -0.046  0.00  0.00    -0.056 NA
BRANCH   8  16
ATOM     13  C   UNL     1      -0.017   1.379   0.010  0.00  0.00    +0.000 A 
ATOM     14  C   UNL     1       1.169   2.092   0.002  0.00  0.00    +0.001 A 
ATOM     15  C   UNL     1       2.377   1.426  -0.013  0.00  0.00    +0.012 A 
ATOM     16  C   UNL     1       2.402   0.033  -0.021  0.00  0.00    +0.022 A 
ATOM     17  C   UNL     1       1.205  -0.680  -0.013  0.00  0.00    +0.012 A 
ATOM     18  C   UNL     1       0.002  -0.004   0.002  0.00  0.00    +0.001 A 
ENDBRANCH   8  16
ENDBRANCH   1  10
BRANCH   6  19
ATOM     19  C   UNL     1       6.298  -3.430   2.219  0.00  0.00    +0.022 C 
BRANCH  19  20
ATOM     20  C   UNL     1       7.449  -3.403   3.191  0.00  0.00    +0.219 C 
ATOM     21  O   UNL     1       8.570  -3.675   2.812  0.00  0.00    -0.276 OA
ATOM     22  N   UNL     1       7.235  -3.077   4.481  0.00  0.00    -0.184 N 
ATOM     23  C   UNL     1       8.265  -3.006   5.529  0.00  0.00    +0.172 C 
ATOM     24  C   UNL     1       7.476  -2.595   6.787  0.00  0.00    +0.090 C 
ATOM     25  C   UNL     1       6.050  -2.475   6.300  0.00  0.00    +0.075 C 
ATOM     26  N   UNL     1       6.001  -2.746   5.038  0.00  0.00    -0.180 NA
BRANCH  25  27
ATOM     27  C   UNL     1       4.900  -2.102   7.130  0.00  0.00    +0.035 A 
ATOM     28  C   UNL     1       3.569  -1.974   6.771  0.00  0.00    +0.017 A 
ATOM     29  C   UNL     1       2.663  -1.608   7.740  0.00  0.00    +0.008 A 
ATOM     30  C   UNL     1       3.099  -1.385   9.008  0.00  0.00    +0.046 A 
ATOM     31  S   UNL     1       4.850  -1.701   8.869  0.00  0.00    -0.095 S 
ENDBRANCH  25  27
BRANCH  23  32
ATOM     32  C   UNL     1       8.916  -4.352   5.724  0.00  0.00    +0.128 A 
ATOM     33  C   UNL     1      10.221  -4.566   5.969  0.00  0.00    +0.046 A 
ATOM     34  C   UNL     1      10.392  -5.965   6.082  0.00  0.00    +0.041 A 
ATOM     35  C   UNL     1       9.181  -6.522   5.898  0.00  0.00    +0.195 A 
ATOM     36  O   UNL     1       8.290  -5.539   5.687  0.00  0.00    -0.466 OA
ENDBRANCH  23  32
ENDBRANCH  19  20
ENDBRANCH   6  19
TORSDOF 6
