REMARK  Name = ZINC12408931
REMARK  8 active torsions:
REMARK  status: ('A' for Active; 'I' for Inactive)
REMARK    1  A    between atoms: C_1  and  C_2
REMARK    2  A    between atoms: C_2  and  N_3
REMARK    3  A    between atoms: C_5  and  C_19
REMARK    4  A    between atoms: C_6  and  C_11
REMARK    5  A    between atoms: C_14  and  O_17
REMARK    6  A    between atoms: O_17  and  C_18
REMARK    7  A    between atoms: N_24  and  N_25
REMARK    8  A    between atoms: C_26  and  C_27
REMARK                            x       y       z     vdW  Elec       q    Type
REMARK                         _______ _______ _______ _____ _____    ______ ____
ROOT
ATOM      1  N   UNL     1      12.004   2.002  -0.099  0.00  0.00    -0.262 N 
ATOM      2  C   UNL     1      10.708   2.487  -0.085  0.00  0.00    +0.087 C 
ATOM      3  C   UNL     1       9.660   1.656  -0.080  0.00  0.00    +0.017 C 
ATOM      4  C   UNL     1       9.937   0.167  -0.085  0.00  0.00    +0.138 C 
ATOM      5  N   UNL     1      11.347  -0.255  -0.106  0.00  0.00    -0.288 N 
ATOM      6  C   UNL     1      12.302   0.696  -0.109  0.00  0.00    +0.307 C 
ATOM      7  O   UNL     1      13.470   0.357  -0.121  0.00  0.00    -0.252 OA
ATOM      8  H   UNL     1      11.583  -1.196  -0.114  0.00  0.00    +0.151 HD
ENDROOT
BRANCH   3   9
ATOM      9  C   UNL     1       8.277   2.174  -0.065  0.00  0.00    +0.080 A 
ATOM     10  C   UNL     1       8.043   3.523  -0.055  0.00  0.00    +0.076 A 
ATOM     11  S   UNL     1       6.255   3.551  -0.038  0.00  0.00    -0.059 S 
ATOM     12  C   UNL     1       6.001   1.782  -0.045  0.00  0.00    +0.178 A 
ATOM     13  N   UNL     1       7.244   1.335  -0.053  0.00  0.00    -0.224 NA
ATOM     14  N   UNL     1       4.815   1.068  -0.037  0.00  0.00    -0.215 N 
ATOM     15  H   UNL     1       4.832   0.099  -0.042  0.00  0.00    +0.176 HD
BRANCH  14  16
ATOM     16  N   UNL     1       3.589   1.747  -0.022  0.00  0.00    -0.188 NA
ATOM     17  C   UNL     1       2.476   1.078  -0.015  0.00  0.00    +0.138 C 
BRANCH  17  18
ATOM     18  C   UNL     1       1.187   1.792   0.000  0.00  0.00    -0.005 A 
ATOM     19  C   UNL     1      -0.013   1.076   0.008  0.00  0.00    +0.009 A 
ATOM     20  C   UNL     1      -1.215   1.751   0.017  0.00  0.00    +0.001 A 
ATOM     21  C   UNL     1      -1.236   3.134   0.030  0.00  0.00    +0.000 A 
ATOM     22  C   UNL     1      -0.052   3.851   0.023  0.00  0.00    +0.001 A 
ATOM     23  C   UNL     1       1.158   3.189   0.008  0.00  0.00    +0.009 A 
ENDBRANCH  17  18
ENDBRANCH  14  16
ENDBRANCH   3   9
BRANCH   4  24
ATOM     24  C   UNL     1       9.289  -0.428   1.139  0.00  0.00    -0.022 A 
ATOM     25  C   UNL     1       9.917  -0.336   2.367  0.00  0.00    +0.009 A 
ATOM     26  C   UNL     1       9.322  -0.875   3.491  0.00  0.00    +0.046 A 
ATOM     27  C   UNL     1       8.099  -1.522   3.385  0.00  0.00    +0.120 A 
ATOM     28  C   UNL     1       7.474  -1.619   2.150  0.00  0.00    +0.046 A 
ATOM     29  C   UNL     1       8.069  -1.072   1.030  0.00  0.00    +0.009 A 
BRANCH  27  30
ATOM     30  O   UNL     1       7.516  -2.059   4.488  0.00  0.00    -0.495 OA
ATOM     31  C   UNL     1       8.217  -1.922   5.725  0.00  0.00    +0.277 C 
ENDBRANCH  27  30
ENDBRANCH   4  24
BRANCH   1  33
ATOM     32  C   UNL     1      13.504   3.293   1.337  0.00  0.00    +0.025 C 
ATOM     33  C   UNL     1      13.107   2.966  -0.104  0.00  0.00    +0.111 C 
ENDBRANCH   1  33
TORSDOF 6
