REMARK  Name = ZINC17288819
REMARK  8 active torsions:
REMARK  status: ('A' for Active; 'I' for Inactive)
REMARK    1  A    between atoms: C_1  and  C_2
REMARK    2  A    between atoms: C_2  and  N_3
REMARK    3  A    between atoms: C_7  and  N_16
REMARK    4  A    between atoms: C_17  and  C_19
REMARK    5  A    between atoms: C_22  and  S_25
REMARK    6  A    between atoms: S_25  and  N_28
REMARK    7  A    between atoms: C_30  and  C_37
REMARK    8  A    between atoms: C_33  and  C_36
REMARK                            x       y       z     vdW  Elec       q    Type
REMARK                         _______ _______ _______ _____ _____    ______ ____
ROOT
ATOM      1  N   UNL     1      -0.761  -1.800  -6.435  0.00  0.00    -0.281 N 
ATOM      2  C   UNL     1      -2.041  -1.824  -6.856  0.00  0.00    +0.248 C 
ATOM      3  O   UNL     1      -2.931  -1.458  -6.113  0.00  0.00    -0.270 OA
ATOM      4  H   UNL     1      -0.044  -2.016  -7.052  0.00  0.00    +0.155 HD
ENDROOT
BRANCH   1   9
ATOM      5  N   UNL     1       0.671  -0.380  -1.224  0.00  0.00    -0.267 N 
ATOM      6  C   UNL     1       0.069  -0.806  -2.403  0.00  0.00    +0.045 A 
ATOM      7  C   UNL     1      -1.157  -1.331  -2.777  0.00  0.00    +0.026 A 
ATOM      8  C   UNL     1      -1.403  -1.649  -4.109  0.00  0.00    +0.026 A 
ATOM      9  C   UNL     1      -0.467  -1.466  -5.114  0.00  0.00    +0.042 A 
ATOM     10  C   UNL     1       0.792  -0.932  -4.765  0.00  0.00    +0.006 A 
ATOM     11  C   UNL     1       1.000  -0.627  -3.419  0.00  0.00    +0.017 A 
ATOM     12  C   UNL     1       2.192  -0.092  -2.907  0.00  0.00    +0.047 A 
ATOM     13  C   UNL     1       3.212   0.139  -3.814  0.00  0.00    +0.014 A 
ATOM     14  C   UNL     1       3.018  -0.162  -5.161  0.00  0.00    +0.001 A 
ATOM     15  C   UNL     1       1.850  -0.684  -5.652  0.00  0.00    +0.010 A 
ATOM     16  C   UNL     1       1.933   0.059  -1.471  0.00  0.00    +0.251 C 
ATOM     17  O   UNL     1       2.712   0.498  -0.646  0.00  0.00    -0.270 OA
BRANCH   5  19
ATOM     18  C   UNL     1      -0.696   0.929   0.326  0.00  0.00    +0.025 C 
ATOM     19  C   UNL     1       0.033  -0.396   0.095  0.00  0.00    +0.110 C 
ENDBRANCH   5  19
ENDBRANCH   1   9
BRANCH   2  20
ATOM     20  C   UNL     1      -2.363  -2.296  -8.219  0.00  0.00    +0.037 A 
ATOM     21  C   UNL     1      -1.343  -2.723  -9.072  0.00  0.00    +0.015 A 
ATOM     22  C   UNL     1      -1.651  -3.163 -10.343  0.00  0.00    +0.029 A 
ATOM     23  C   UNL     1      -2.966  -3.181 -10.773  0.00  0.00    +0.106 A 
ATOM     24  C   UNL     1      -3.981  -2.759  -9.933  0.00  0.00    +0.029 A 
ATOM     25  C   UNL     1      -3.688  -2.322  -8.657  0.00  0.00    +0.015 A 
BRANCH  23  26
ATOM     26  S   UNL     1      -3.349  -3.744 -12.398  0.00  0.00    +0.061 S 
ATOM     27  O   UNL     1      -4.591  -3.151 -12.750  0.00  0.00    -0.153 OA
ATOM     28  O   UNL     1      -2.173  -3.570 -13.176  0.00  0.00    -0.153 OA
BRANCH  26  29
ATOM     29  N   UNL     1      -3.615  -5.376 -12.300  0.00  0.00    -0.176 NA
ATOM     30  C   UNL     1      -2.506  -6.326 -12.466  0.00  0.00    +0.112 C 
ATOM     31  C   UNL     1      -2.882  -7.337 -13.555  0.00  0.00    +0.002 C 
ATOM     32  C   UNL     1      -4.220  -7.988 -13.200  0.00  0.00    +0.009 C 
ATOM     33  C   UNL     1      -5.311  -6.917 -13.139  0.00  0.00    +0.002 C 
ATOM     34  C   UNL     1      -4.962  -5.901 -12.040  0.00  0.00    +0.112 C 
ATOM     35  C   UNL     1      -6.655  -7.574 -12.818  0.00  0.00    +0.009 C 
ATOM     36  C   UNL     1      -1.798  -8.412 -13.649  0.00  0.00    +0.009 C 
ENDBRANCH  26  29
ENDBRANCH  23  26
ENDBRANCH   2  20
TORSDOF 5
