REMARK  Name = ZINC41583573
REMARK  3 active torsions:
REMARK  status: ('A' for Active; 'I' for Inactive)
REMARK    1  A    between atoms: C_1  and  C_2
REMARK    2  A    between atoms: C_4  and  C_9
REMARK    3  A    between atoms: C_9  and  C_16
REMARK                            x       y       z     vdW  Elec       q    Type
REMARK                         _______ _______ _______ _____ _____    ______ ____
ROOT
ATOM      1  C   UNL     1       0.028  -2.817  -2.516  0.00  0.00    +0.135 C 
ATOM      2  C   UNL     1       1.315  -2.558  -3.274  0.00  0.00    +0.248 C 
ATOM      3  O   UNL     1       1.725  -1.492  -3.679  0.00  0.00    -0.273 OA
ATOM      4  N   UNL     1       1.910  -3.761  -3.402  0.00  0.00    -0.238 N 
ATOM      5  C   UNL     1       1.185  -4.733  -2.837  0.00  0.00    +0.307 C 
ATOM      6  O   UNL     1       1.516  -5.902  -2.825  0.00  0.00    -0.252 OA
ATOM      7  N   UNL     1       0.049  -4.271  -2.284  0.00  0.00    -0.282 N 
ATOM      8  C   UNL     1      -1.186  -2.424  -3.361  0.00  0.00    +0.047 C 
ATOM      9  H   UNL     1       2.759  -3.904  -3.849  0.00  0.00    +0.159 HD
ATOM     10  H   UNL     1      -0.625  -4.794  -1.822  0.00  0.00    +0.152 HD
ENDROOT
BRANCH   1  14
ATOM     11  C   UNL     1      -0.018   1.503   0.010  0.00  0.00    +0.045 C 
ATOM     12  C   UNL     1       0.002  -0.004   0.002  0.00  0.00    -0.032 A 
ATOM     13  C   UNL     1       0.006  -0.689  -1.199  0.00  0.00    +0.011 A 
ATOM     14  C   UNL     1       0.025  -2.071  -1.207  0.00  0.00    -0.015 A 
ATOM     15  C   UNL     1       0.040  -2.769  -0.013  0.00  0.00    +0.007 A 
ATOM     16  C   UNL     1       0.036  -2.086   1.188  0.00  0.00    +0.020 A 
ATOM     17  C   UNL     1       0.023  -0.702   1.196  0.00  0.00    +0.044 A 
ATOM     18 CL   UNL     1       0.025   0.157   2.704  0.00  0.00    -0.083 Cl
ENDBRANCH   1  14
TORSDOF 1
