REMARK  Name = ZINC38906217
REMARK  5 active torsions:
REMARK  status: ('A' for Active; 'I' for Inactive)
REMARK    1  A    between atoms: C_4  and  C_7
REMARK    2  A    between atoms: C_10  and  S_18
REMARK    3  A    between atoms: N_11  and  C_12
REMARK    4  A    between atoms: S_18  and  C_19
REMARK    5  A    between atoms: C_21  and  C_32
REMARK                            x       y       z     vdW  Elec       q    Type
REMARK                         _______ _______ _______ _____ _____    ______ ____
ROOT
ATOM      1  C   UNL     1       7.708  -3.436   0.137  0.00  0.00    +0.171 C 
ATOM      2  C   UNL     1       8.610  -4.640  -0.057  0.00  0.00    -0.009 C 
ATOM      3  C   UNL     1       9.779  -4.686   0.706  0.00  0.00    +0.002 A 
ATOM      4  C   UNL     1      10.674  -5.771   0.586  0.00  0.00    +0.011 A 
ATOM      5  C   UNL     1      11.806  -5.795   1.337  0.00  0.00    +0.021 A 
ATOM      6  C   UNL     1      12.107  -4.766   2.230  0.00  0.00    +0.043 A 
ATOM      7  C   UNL     1      11.275  -3.685   2.389  0.00  0.00    +0.044 A 
ATOM      8  C   UNL     1      10.088  -3.600   1.643  0.00  0.00    +0.042 A 
ATOM      9  N   UNL     1       9.278  -2.546   1.799  0.00  0.00    -0.284 N 
ATOM     10  C   UNL     1       8.150  -2.392   1.136  0.00  0.00    +0.235 C 
ATOM     11  O   UNL     1       7.463  -1.406   1.329  0.00  0.00    -0.274 OA
ATOM     12 CL   UNL     1      13.569  -4.854   3.161  0.00  0.00    -0.083 Cl
ATOM     13  H   UNL     1       9.536  -1.859   2.433  0.00  0.00    +0.155 HD
ENDROOT
BRANCH   2  14
ATOM     14  C   UNL     1       8.280  -5.673  -0.971  0.00  0.00    -0.020 A 
ATOM     15  C   UNL     1       8.015  -6.971  -0.505  0.00  0.00    +0.008 A 
ATOM     16  C   UNL     1       7.696  -7.967  -1.401  0.00  0.00    +0.001 A 
ATOM     17  C   UNL     1       7.637  -7.692  -2.757  0.00  0.00    +0.000 A 
ATOM     18  C   UNL     1       7.896  -6.415  -3.227  0.00  0.00    +0.001 A 
ATOM     19  C   UNL     1       8.211  -5.403  -2.347  0.00  0.00    +0.008 A 
ENDBRANCH   2  14
BRANCH   1  20
ATOM     20  S   UNL     1       6.075  -4.040   0.647  0.00  0.00    -0.068 S 
BRANCH  20  24
ATOM     21  C   UNL     1       3.356  -1.231   0.701  0.00  0.00    +0.169 A 
ATOM     22  N   UNL     1       4.432  -0.586   0.313  0.00  0.00    -0.128 NA
ATOM     23  N   UNL     1       5.429  -1.393   0.247  0.00  0.00    -0.122 NA
ATOM     24  C   UNL     1       5.053  -2.606   0.589  0.00  0.00    +0.197 A 
ATOM     25  N   UNL     1       3.721  -2.545   0.896  0.00  0.00    -0.270 N 
BRANCH  21  29
ATOM     26  C   UNL     1      -0.514   0.425   1.268  0.00  0.00    +0.000 A 
ATOM     27  C   UNL     1       0.583   1.261   1.154  0.00  0.00    +0.001 A 
ATOM     28  C   UNL     1       1.843   0.730   0.970  0.00  0.00    +0.011 A 
ATOM     29  C   UNL     1       2.009  -0.655   0.899  0.00  0.00    +0.020 A 
ATOM     30  C   UNL     1       0.898  -1.492   1.014  0.00  0.00    +0.011 A 
ATOM     31  C   UNL     1      -0.356  -0.948   1.198  0.00  0.00    +0.001 A 
ENDBRANCH  21  29
BRANCH  25  32
ATOM     32  C   UNL     1       2.899  -3.600   1.316  0.00  0.00    +0.051 A 
ATOM     33  C   UNL     1       2.338  -3.581   2.586  0.00  0.00    +0.026 A 
ATOM     34  C   UNL     1       1.529  -4.621   2.998  0.00  0.00    +0.002 A 
ATOM     35  C   UNL     1       1.278  -5.682   2.147  0.00  0.00    +0.000 A 
ATOM     36  C   UNL     1       1.835  -5.704   0.882  0.00  0.00    +0.002 A 
ATOM     37  C   UNL     1       2.640  -4.663   0.462  0.00  0.00    +0.026 A 
ENDBRANCH  25  32
ENDBRANCH  20  24
ENDBRANCH   1  20
TORSDOF 5
