REMARK  Name = ZINC09124063
REMARK  10 active torsions:
REMARK  status: ('A' for Active; 'I' for Inactive)
REMARK    1  A    between atoms: C_1  and  C_2
REMARK    2  A    between atoms: C_4  and  O_37
REMARK    3  A    between atoms: C_5  and  C_9
REMARK    4  A    between atoms: N_17  and  C_30
REMARK    5  A    between atoms: C_18  and  C_20
REMARK    6  A    between atoms: C_23  and  C_26
REMARK    7  A    between atoms: C_26  and  C_27
REMARK    8  A    between atoms: C_26  and  C_28
REMARK    9  A    between atoms: C_26  and  C_29
REMARK   10  A    between atoms: C_30  and  C_31
REMARK                            x       y       z     vdW  Elec       q    Type
REMARK                         _______ _______ _______ _____ _____    ______ ____
ROOT
ATOM      1  C   UNL     1       0.225  -4.518  -0.099  0.00  0.00    +0.102 A 
ATOM      2  C   UNL     1       0.247  -5.236   1.101  0.00  0.00    +0.035 A 
ATOM      3  C   UNL     1       0.197  -6.570   0.744  0.00  0.00    +0.126 A 
ATOM      4  N   UNL     1       0.149  -6.595  -0.621  0.00  0.00    -0.272 N 
ATOM      5  H   UNL     1       0.107  -7.399  -1.163  0.00  0.00    +0.189 HD
ATOM      6  N   UNL     1       0.161  -5.395  -1.082  0.00  0.00    -0.173 NA
ATOM      7  C   UNL     1       0.215  -7.381   1.965  0.00  0.00    +0.266 C 
ATOM      8  O   UNL     1       0.182  -8.597   1.992  0.00  0.00    -0.268 OA
ATOM      9  N   UNL     1       0.275  -6.591   3.052  0.00  0.00    -0.281 N 
ATOM     10  C   UNL     1       0.299  -5.193   2.604  0.00  0.00    +0.142 C 
ENDROOT
BRANCH   1  15
ATOM     11  C   UNL     1       0.365   1.218  -0.648  0.00  0.00    +0.045 C 
ATOM     12  C   UNL     1       0.330  -0.282  -0.506  0.00  0.00    -0.029 A 
ATOM     13  C   UNL     1       1.148  -1.067  -1.297  0.00  0.00    +0.050 A 
ATOM     14  C   UNL     1       1.120  -2.446  -1.171  0.00  0.00    +0.126 A 
ATOM     15  C   UNL     1       0.262  -3.041  -0.241  0.00  0.00    +0.045 A 
ATOM     16  C   UNL     1      -0.557  -2.243   0.552  0.00  0.00    +0.034 A 
ATOM     17  C   UNL     1      -0.516  -0.868   0.420  0.00  0.00    +0.045 A 
ATOM     18 CL   UNL     1      -1.533   0.128   1.414  0.00  0.00    -0.083 Cl
BRANCH  14  19
ATOM     19  O   UNL     1       1.923  -3.219  -1.949  0.00  0.00    -0.506 OA
ATOM     20  H   UNL     1       2.790  -3.399  -1.562  0.00  0.00    +0.292 HD
ENDBRANCH  14  19
ENDBRANCH   1  15
BRANCH  10  21
ATOM     21  C   UNL     1       1.571  -4.524   3.059  0.00  0.00    -0.022 A 
ATOM     22  C   UNL     1       2.790  -5.142   2.851  0.00  0.00    +0.006 A 
ATOM     23  C   UNL     1       3.956  -4.529   3.268  0.00  0.00    +0.004 A 
ATOM     24  C   UNL     1       3.904  -3.297   3.894  0.00  0.00    -0.042 A 
ATOM     25  C   UNL     1       2.685  -2.679   4.101  0.00  0.00    +0.004 A 
ATOM     26  C   UNL     1       1.519  -3.290   3.680  0.00  0.00    +0.006 A 
BRANCH  24  27
ATOM     27  C   UNL     1       5.175  -2.629   4.350  0.00  0.00    -0.013 C 
ATOM     28  C   UNL     1       6.088  -2.393   3.145  0.00  0.00    +0.015 C 
ATOM     29  C   UNL     1       4.840  -1.288   5.006  0.00  0.00    +0.015 C 
ATOM     30  C   UNL     1       5.889  -3.527   5.362  0.00  0.00    +0.015 C 
ENDBRANCH  24  27
ENDBRANCH  10  21
BRANCH   9  31
ATOM     31  C   UNL     1       0.309  -7.047   4.444  0.00  0.00    +0.145 C 
BRANCH  31  32
ATOM     32  C   UNL     1       1.740  -7.243   4.873  0.00  0.00    -0.012 A 
ATOM     33  C   UNL     1       2.364  -8.469   4.697  0.00  0.00    +0.008 A 
ATOM     34  C   UNL     1       3.682  -8.603   5.107  0.00  0.00    +0.020 A 
ATOM     35  C   UNL     1       4.325  -7.519   5.673  0.00  0.00    +0.111 A 
ATOM     36  N   UNL     1       3.700  -6.368   5.826  0.00  0.00    -0.263 NA
ATOM     37  C   UNL     1       2.449  -6.202   5.442  0.00  0.00    +0.115 A 
ENDBRANCH  31  32
ENDBRANCH   9  31
TORSDOF 6
