REMARK  Name = ZINC24577617
REMARK  13 active torsions:
REMARK  status: ('A' for Active; 'I' for Inactive)
REMARK    1  A    between atoms: C_1  and  C_2
REMARK    2  A    between atoms: C_5  and  S_8
REMARK    3  A    between atoms: S_8  and  N_11
REMARK    4  A    between atoms: N_11  and  C_12
REMARK    5  A    between atoms: N_11  and  C_18
REMARK    6  A    between atoms: C_12  and  C_13
REMARK    7  A    between atoms: C_18  and  C_19
REMARK    8  A    between atoms: N_21  and  C_22
REMARK    9  A    between atoms: C_22  and  C_23
REMARK   10  A    between atoms: C_23  and  C_25
REMARK   11  A    between atoms: C_23  and  N_31
REMARK   12  A    between atoms: N_31  and  C_32
REMARK   13  A    between atoms: N_31  and  C_33
REMARK                            x       y       z     vdW  Elec       q    Type
REMARK                         _______ _______ _______ _____ _____    ______ ____
ROOT
ATOM      1  N   UNL     1      -1.384   1.484  -5.091  0.00  0.00    -0.160 NA
ENDROOT
BRANCH   1   2
ATOM      2  S   UNL     1      -2.566   0.542  -5.767  0.00  0.00    +0.062 S 
ATOM      3  O   UNL     1      -1.913  -0.355  -6.655  0.00  0.00    -0.153 OA
ATOM      4  O   UNL     1      -3.388   0.093  -4.698  0.00  0.00    -0.153 OA
BRANCH   2   9
ATOM      5  C   UNL     1      -5.992   4.153  -9.177  0.00  0.00    +0.044 C 
ATOM      6  C   UNL     1      -5.136   3.251  -8.325  0.00  0.00    -0.050 A 
ATOM      7  C   UNL     1      -4.035   2.623  -8.875  0.00  0.00    +0.005 A 
ATOM      8  C   UNL     1      -3.250   1.795  -8.094  0.00  0.00    +0.029 A 
ATOM      9  C   UNL     1      -3.567   1.597  -6.763  0.00  0.00    +0.106 A 
ATOM     10  C   UNL     1      -4.671   2.221  -6.215  0.00  0.00    +0.029 A 
ATOM     11  C   UNL     1      -5.453   3.053  -6.995  0.00  0.00    +0.005 A 
ENDBRANCH   2   9
ENDBRANCH   1   2
BRANCH   1  12
ATOM     12  C   UNL     1      -0.109   1.672  -5.788  0.00  0.00    +0.184 C 
BRANCH  12  13
ATOM     13  C   UNL     1       0.896   0.672  -5.277  0.00  0.00    +0.120 A 
ATOM     14  C   UNL     1       1.105  -0.559  -5.776  0.00  0.00    +0.046 A 
ATOM     15  C   UNL     1       2.130  -1.147  -5.000  0.00  0.00    +0.041 A 
ATOM     16  C   UNL     1       2.485  -0.240  -4.072  0.00  0.00    +0.195 A 
ATOM     17  O   UNL     1       1.738   0.862  -4.248  0.00  0.00    -0.466 OA
ENDBRANCH  12  13
ENDBRANCH   1  12
BRANCH   1  18
ATOM     18  C   UNL     1      -1.612   2.128  -3.796  0.00  0.00    +0.205 C 
BRANCH  18  19
ATOM     19  C   UNL     1      -1.049   1.263  -2.698  0.00  0.00    +0.229 C 
ATOM     20  O   UNL     1      -0.510   0.212  -2.970  0.00  0.00    -0.274 OA
ATOM     21  N   UNL     1      -1.144   1.658  -1.413  0.00  0.00    -0.315 N 
ATOM     22  H   UNL     1      -1.633   2.612  -1.165  0.00  0.00    +0.149 HD
BRANCH  21  23
ATOM     23  C   UNL     1      -0.597   0.817  -0.345  0.00  0.00    +0.093 C 
BRANCH  23  24
ATOM     24  C   UNL     1      -0.835   1.491   1.008  0.00  0.00    -0.021 C 
BRANCH  24  25
ATOM     25  C   UNL     1      -0.165   0.688   2.093  0.00  0.00    -0.059 A 
ATOM     26  C   UNL     1      -0.869   0.343   3.232  0.00  0.00    +0.002 A 
ATOM     27  C   UNL     1      -0.257  -0.398   4.226  0.00  0.00    +0.000 A 
ATOM     28  C   UNL     1       1.063  -0.784   4.085  0.00  0.00    +0.000 A 
ATOM     29  C   UNL     1       1.769  -0.434   2.949  0.00  0.00    +0.000 A 
ATOM     30  C   UNL     1       1.155   0.302   1.953  0.00  0.00    +0.002 A 
ENDBRANCH  24  25
BRANCH  24  31
ATOM     31  N   UNL     1      -0.273   2.848   0.985  0.00  0.00    +0.382 N 
ATOM     32  C   UNL     1      -0.627   3.585   2.205  0.00  0.00    -0.096 C 
ATOM     33  C   UNL     1       1.183   2.812   0.795  0.00  0.00    -0.096 C 
ATOM     34  H   UNL     1      -0.712   3.381   0.129  0.00  0.00    -0.082 HD
ENDBRANCH  24  31
ENDBRANCH  23  24
ENDBRANCH  21  23
ENDBRANCH  18  19
ENDBRANCH   1  18
TORSDOF 10
