REMARK  Name = ZINC11667297
REMARK  6 active torsions:
REMARK  status: ('A' for Active; 'I' for Inactive)
REMARK    1  A    between atoms: C_1  and  C_2
REMARK    2  A    between atoms: C_5  and  C_34
REMARK    3  A    between atoms: N_8  and  S_10
REMARK    4  A    between atoms: S_10  and  C_13
REMARK    5  A    between atoms: C_16  and  C_19
REMARK    6  A    between atoms: N_21  and  C_22
REMARK                            x       y       z     vdW  Elec       q    Type
REMARK                         _______ _______ _______ _____ _____    ______ ____
ROOT
ATOM      1  C   UNL     1       0.016  -0.004  -0.036  0.00  0.00    +0.106 A 
ATOM      2  C   UNL     1       1.127  -0.680   0.436  0.00  0.00    +0.029 A 
ATOM      3  C   UNL     1       1.147  -2.059   0.446  0.00  0.00    +0.015 A 
ATOM      4  C   UNL     1       0.047  -2.773  -0.032  0.00  0.00    +0.037 A 
ATOM      5  C   UNL     1      -1.069  -2.085  -0.512  0.00  0.00    +0.015 A 
ATOM      6  C   UNL     1      -1.077  -0.706  -0.512  0.00  0.00    +0.029 A 
ENDROOT
BRANCH   4   7
ATOM      7  C   UNL     1       0.063  -4.251  -0.030  0.00  0.00    +0.248 C 
ATOM      8  O   UNL     1      -0.896  -4.870  -0.447  0.00  0.00    -0.270 OA
ATOM      9  N   UNL     1       1.141  -4.913   0.435  0.00  0.00    -0.281 N 
ATOM     10  H   UNL     1       1.932  -4.421   0.707  0.00  0.00    +0.155 HD
BRANCH   9  11
ATOM     11  C   UNL     1       1.121  -6.305   0.524  0.00  0.00    +0.041 A 
ATOM     12  C   UNL     1       0.443  -7.062  -0.413  0.00  0.00    +0.024 A 
ATOM     13  C   UNL     1       0.410  -8.455  -0.355  0.00  0.00    +0.006 A 
ATOM     14  C   UNL     1       1.046  -9.121   0.650  0.00  0.00    -0.039 A 
ATOM     15  C   UNL     1       1.728  -8.373   1.605  0.00  0.00    -0.010 A 
ATOM     16  C   UNL     1       1.787  -6.969   1.575  0.00  0.00    +0.004 A 
ATOM     17  C   UNL     1       2.504  -6.320   2.591  0.00  0.00    +0.010 A 
ATOM     18  C   UNL     1       3.107  -7.073   3.557  0.00  0.00    +0.001 A 
ATOM     19  C   UNL     1       3.035  -8.468   3.568  0.00  0.00    +0.004 A 
ATOM     20  C   UNL     1       2.348  -9.129   2.596  0.00  0.00    -0.039 A 
ATOM     21  C   UNL     1       2.067 -10.582   2.299  0.00  0.00    +0.040 C 
ATOM     22  C   UNL     1       1.208 -10.577   1.016  0.00  0.00    +0.040 C 
ENDBRANCH   9  11
ENDBRANCH   4   7
BRANCH   1  23
ATOM     23  S   UNL     1      -0.003   1.758  -0.040  0.00  0.00    +0.061 S 
ATOM     24  O   UNL     1       1.355   2.178  -0.051  0.00  0.00    -0.153 OA
ATOM     25  O   UNL     1      -0.931   2.152  -1.041  0.00  0.00    -0.153 OA
BRANCH  23  31
ATOM     26  C   UNL     1      -2.408   0.135   2.453  0.00  0.00    +0.009 C 
ATOM     27  C   UNL     1      -2.575   1.625   2.758  0.00  0.00    +0.002 C 
ATOM     28  C   UNL     1      -1.754   1.988   3.997  0.00  0.00    +0.009 C 
ATOM     29  C   UNL     1      -0.281   1.651   3.751  0.00  0.00    +0.002 C 
ATOM     30  C   UNL     1       0.237   2.476   2.569  0.00  0.00    +0.112 C 
ATOM     31  N   UNL     1      -0.637   2.243   1.411  0.00  0.00    -0.176 NA
ATOM     32  C   UNL     1      -2.083   2.455   1.563  0.00  0.00    +0.112 C 
ATOM     33  C   UNL     1       0.534   1.984   5.002  0.00  0.00    +0.009 C 
ENDBRANCH  23  31
ENDBRANCH   1  23
TORSDOF 4
