REMARK  Name = ZINC09090847
REMARK  5 active torsions:
REMARK  status: ('A' for Active; 'I' for Inactive)
REMARK    1  A    between atoms: C_5  and  C_11
REMARK    2  A    between atoms: C_13  and  C_25
REMARK    3  A    between atoms: C_15  and  C_20
REMARK    4  A    between atoms: C_15  and  O_24
REMARK    5  A    between atoms: C_25  and  C_27
REMARK                            x       y       z     vdW  Elec       q    Type
REMARK                         _______ _______ _______ _____ _____    ______ ____
ROOT
ATOM      1  C   UNL     1      -2.538   3.844   0.035  0.00  0.00    +0.120 C 
ATOM      2  C   UNL     1      -3.099   3.975  -1.385  0.00  0.00    +0.145 C 
ATOM      3  C   UNL     1      -4.508   4.572  -1.300  0.00  0.00    +0.243 C 
ATOM      4  N   UNL     1      -5.328   3.741  -0.416  0.00  0.00    -0.264 N 
ATOM      5  C   UNL     1      -4.782   3.045   0.591  0.00  0.00    +0.302 C 
ATOM      6  O   UNL     1      -5.510   2.379   1.302  0.00  0.00    -0.253 OA
ATOM      7  N   UNL     1      -3.465   3.053   0.846  0.00  0.00    -0.292 N 
ATOM      8  H   UNL     1      -6.286   3.694  -0.563  0.00  0.00    +0.153 HD
ATOM      9  H   UNL     1      -3.120   2.525   1.583  0.00  0.00    +0.151 HD
ENDROOT
BRANCH   1  14
ATOM     10  C   UNL     1       3.554   3.297  -0.386  0.00  0.00    +0.020 A 
ATOM     11  C   UNL     1       2.376   3.988  -0.349  0.00  0.00    +0.011 A 
ATOM     12  C   UNL     1       1.183   3.257  -0.202  0.00  0.00    +0.001 A 
ATOM     13  C   UNL     1      -0.066   3.898  -0.157  0.00  0.00    +0.015 A 
ATOM     14  C   UNL     1      -1.198   3.155  -0.014  0.00  0.00    -0.026 A 
ATOM     15  C   UNL     1      -1.135   1.766   0.082  0.00  0.00    +0.007 A 
ATOM     16  C   UNL     1       0.058   1.113   0.048  0.00  0.00    +0.028 A 
ATOM     17  C   UNL     1       1.250   1.845  -0.099  0.00  0.00    +0.071 A 
ATOM     18  N   UNL     1       2.436   1.231  -0.142  0.00  0.00    -0.255 NA
ATOM     19  C   UNL     1       3.550   1.909  -0.279  0.00  0.00    +0.111 A 
ENDBRANCH   1  14
BRANCH   3  20
ATOM     20  C   UNL     1      -4.429   5.993  -0.740  0.00  0.00    +0.436 C 
ATOM     21  F   UNL     1      -3.639   6.783  -1.583  0.00  0.00    -0.166 F 
ATOM     22  F   UNL     1      -5.715   6.536  -0.663  0.00  0.00    -0.166 F 
ATOM     23  F   UNL     1      -3.859   5.960   0.537  0.00  0.00    -0.166 F 
ENDBRANCH   3  20
BRANCH   3  24
ATOM     24  O   UNL     1      -5.092   4.604  -2.604  0.00  0.00    -0.364 OA
ATOM     25  H   UNL     1      -5.987   4.970  -2.625  0.00  0.00    +0.212 HD
ENDBRANCH   3  24
BRANCH   2  26
ATOM     26  C   UNL     1      -3.158   2.616  -2.033  0.00  0.00    +0.179 C 
ATOM     27  O   UNL     1      -3.446   1.640  -1.371  0.00  0.00    -0.291 OA
BRANCH  26  28
ATOM     28  C   UNL     1      -2.881   2.478  -3.411  0.00  0.00    +0.055 A 
ATOM     29  C   UNL     1      -2.875   1.328  -4.194  0.00  0.00    +0.019 A 
ATOM     30  C   UNL     1      -2.571   1.480  -5.521  0.00  0.00    +0.008 A 
ATOM     31  C   UNL     1      -2.284   2.721  -6.000  0.00  0.00    +0.046 A 
ATOM     32  S   UNL     1      -2.438   3.732  -4.601  0.00  0.00    -0.094 S 
ENDBRANCH  26  28
ENDBRANCH   2  26
TORSDOF 5
