REMARK  Name = ZINC39692575
REMARK  13 active torsions:
REMARK  status: ('A' for Active; 'I' for Inactive)
REMARK    1  A    between atoms: C_1  and  C_2
REMARK    2  A    between atoms: C_2  and  N_3
REMARK    3  A    between atoms: C_4  and  C_25
REMARK    4  A    between atoms: C_7  and  S_8
REMARK    5  A    between atoms: S_8  and  C_9
REMARK    6  A    between atoms: C_9  and  C_10
REMARK    7  A    between atoms: C_15  and  C_24
REMARK    8  A    between atoms: C_16  and  C_21
REMARK    9  A    between atoms: C_28  and  N_31
REMARK   10  A    between atoms: N_31  and  C_32
REMARK   11  A    between atoms: N_31  and  C_34
REMARK   12  A    between atoms: C_32  and  C_33
REMARK   13  A    between atoms: C_34  and  C_35
REMARK                            x       y       z     vdW  Elec       q    Type
REMARK                         _______ _______ _______ _____ _____    ______ ____
ROOT
ATOM      1  N   UNL     1       0.689  -0.461  -1.209  0.00  0.00    -0.302 N 
ATOM      2  C   UNL     1       0.112  -0.840  -2.399  0.00  0.00    +0.165 A 
ATOM      3  N   UNL     1       1.085  -1.213  -3.197  0.00  0.00    -0.128 NA
ATOM      4  N   UNL     1       2.215  -1.095  -2.596  0.00  0.00    -0.122 NA
ATOM      5  C   UNL     1       2.034  -0.634  -1.380  0.00  0.00    +0.192 A 
ENDROOT
BRANCH   2   6
ATOM      6  C   UNL     1      -1.331  -0.829  -2.718  0.00  0.00    +0.019 A 
ATOM      7  C   UNL     1      -1.819  -1.597  -3.778  0.00  0.00    +0.013 A 
ATOM      8  C   UNL     1      -3.164  -1.585  -4.073  0.00  0.00    +0.024 A 
ATOM      9  C   UNL     1      -4.037  -0.809  -3.317  0.00  0.00    +0.030 A 
ATOM     10  C   UNL     1      -3.554  -0.044  -2.262  0.00  0.00    +0.024 A 
ATOM     11  C   UNL     1      -2.210  -0.056  -1.958  0.00  0.00    +0.013 A 
BRANCH   9  12
ATOM     12  N   UNL     1      -5.399  -0.799  -3.620  0.00  0.00    -0.330 N 
BRANCH  12  13
ATOM     13  C   UNL     1      -6.319   0.018  -2.825  0.00  0.00    +0.102 C 
ATOM     14  C   UNL     1      -6.432   1.411  -3.447  0.00  0.00    +0.024 C 
ENDBRANCH  12  13
BRANCH  12  15
ATOM     15  C   UNL     1      -5.909  -1.605  -4.732  0.00  0.00    +0.102 C 
ATOM     16  C   UNL     1      -6.295  -2.994  -4.220  0.00  0.00    +0.024 C 
ENDBRANCH  12  15
ENDBRANCH   9  12
ENDBRANCH   2   6
BRANCH   1  18
ATOM     17  C   UNL     1      -0.026   1.560  -0.032  0.00  0.00    +0.027 C 
ATOM     18  C   UNL     1       0.005   0.030  -0.010  0.00  0.00    +0.122 C 
ENDBRANCH   1  18
BRANCH   5  19
ATOM     19  S   UNL     1       3.290  -0.304  -0.189  0.00  0.00    -0.078 S 
BRANCH  19  20
ATOM     20  C   UNL     1       4.830  -0.741  -1.042  0.00  0.00    +0.151 C 
BRANCH  20  21
ATOM     21  C   UNL     1       5.999  -0.503  -0.122  0.00  0.00    +0.134 C 
ATOM     22  N   UNL     1       5.758  -0.049   1.084  0.00  0.00    -0.160 NA
ATOM     23  C   UNL     1       6.726   0.194   1.973  0.00  0.00    +0.271 C 
ATOM     24  O   UNL     1       6.466   0.615   3.088  0.00  0.00    -0.268 OA
ATOM     25  C   UNL     1       8.141  -0.068   1.556  0.00  0.00    +0.071 C 
ATOM     26  C   UNL     1       9.263   0.100   2.271  0.00  0.00    -0.034 C 
ATOM     27  C   UNL     1      10.578  -0.244   1.608  0.00  0.00    +0.192 C 
ATOM     28  S   UNL     1      10.023  -0.798  -0.055  0.00  0.00    -0.086 S 
ATOM     29  C   UNL     1       8.277  -0.576   0.174  0.00  0.00    +0.112 C 
ATOM     30  N   UNL     1       7.215  -0.767  -0.573  0.00  0.00    -0.227 NA
ATOM     31  C   UNL     1       9.216   0.614   3.687  0.00  0.00    +0.041 C 
BRANCH  27  32
ATOM     32  C   UNL     1      11.278  -1.357   2.343  0.00  0.00    +0.373 C 
ATOM     33  O   UNL     1      11.141  -2.511   1.975  0.00  0.00    -0.245 OA
ATOM     34  O   UNL     1      11.982  -1.104   3.306  0.00  0.00    -0.245 OA
ENDBRANCH  27  32
ENDBRANCH  20  21
ENDBRANCH  19  20
ENDBRANCH   5  19
TORSDOF 9
