REMARK  Name = ZINC15673386
REMARK  9 active torsions:
REMARK  status: ('A' for Active; 'I' for Inactive)
REMARK    1  A    between atoms: C_1  and  C_2
REMARK    2  A    between atoms: C_2  and  C_3
REMARK    3  A    between atoms: C_3  and  C_4
REMARK    4  A    between atoms: C_4  and  C_5
REMARK    5  A    between atoms: C_7  and  C_10
REMARK    6  A    between atoms: C_10  and  C_11
REMARK    7  A    between atoms: C_16  and  C_18
REMARK    8  A    between atoms: C_18  and  C_19
REMARK    9  A    between atoms: C_24  and  N_27
REMARK                            x       y       z     vdW  Elec       q    Type
REMARK                         _______ _______ _______ _____ _____    ______ ____
ROOT
ATOM      1  C   UNL     1      -6.947  -2.883  -1.245  0.00  0.00    +0.099 C 
ENDROOT
BRANCH   1   6
ATOM      2  C   UNL     1      -9.094  -3.658  -2.268  0.00  0.00    -0.019 C 
ATOM      3  C   UNL     1     -10.448  -4.307  -1.977  0.00  0.00    -0.079 C 
ATOM      4  C   UNL     1      -9.550  -5.450  -0.038  0.00  0.00    -0.082 C 
ATOM      5  C   UNL     1      -8.168  -4.836  -0.271  0.00  0.00    -0.015 C 
ATOM      6  C   UNL     1      -8.328  -3.475  -0.954  0.00  0.00    -0.002 C 
ATOM      7  N   UNL     1     -10.245  -5.617  -1.329  0.00  0.00    +0.379 N 
ATOM      8  H   UNL     1      -9.678  -6.214  -1.943  0.00  0.00    -0.086 HD
ATOM      9  H   UNL     1     -11.157  -6.060  -1.167  0.00  0.00    -0.086 HD
BRANCH   2  10
ATOM     10  C   UNL     1      -8.288  -4.558  -3.207  0.00  0.00    +0.061 C 
BRANCH  10  13
ATOM     11  C   UNL     1      -9.437  -4.565  -6.675  0.00  0.00    +0.138 A 
ATOM     12  C   UNL     1      -8.422  -4.339  -5.806  0.00  0.00    +0.071 A 
ATOM     13  C   UNL     1      -8.981  -4.638  -4.543  0.00  0.00    +0.084 A 
ATOM     14  N   UNL     1     -10.212  -5.001  -4.762  0.00  0.00    -0.083 NA
ATOM     15  O   UNL     1     -10.485  -4.961  -5.939  0.00  0.00    -0.359 OA
BRANCH  11  16
ATOM     16  C   UNL     1      -9.396  -4.402  -8.173  0.00  0.00    +0.077 C 
BRANCH  16  17
ATOM     17  C   UNL     1      -8.958  -5.718  -8.817  0.00  0.00    +0.007 C 
BRANCH  17  19
ATOM     18  C   UNL     1      -8.479  -6.870 -10.982  0.00  0.00    +0.004 C 
ATOM     19  C   UNL     1      -8.917  -5.553 -10.338  0.00  0.00    -0.003 C 
ENDBRANCH  17  19
ENDBRANCH  16  17
ENDBRANCH  11  16
ENDBRANCH  10  13
ENDBRANCH   2  10
ENDBRANCH   1   6
BRANCH   1  20
ATOM     20  C   UNL     1      -6.242  -2.593   0.055  0.00  0.00    +0.216 C 
ATOM     21  O   UNL     1      -6.789  -2.835   1.109  0.00  0.00    -0.276 OA
ATOM     22  N   UNL     1      -5.002  -2.063   0.045  0.00  0.00    -0.301 N 
ATOM     23  C   UNL     1      -4.302  -1.775   1.304  0.00  0.00    +0.110 C 
ATOM     24  C   UNL     1      -3.848  -0.312   1.290  0.00  0.00    +0.044 C 
ATOM     25  C   UNL     1      -3.015  -0.051   0.033  0.00  0.00    +0.095 C 
ATOM     26  C   UNL     1      -3.872  -0.302  -1.209  0.00  0.00    +0.044 C 
ATOM     27  C   UNL     1      -4.326  -1.765  -1.225  0.00  0.00    +0.110 C 
BRANCH  25  28
ATOM     28  N   UNL     1      -2.551   1.338   0.034  0.00  0.00    -0.289 N 
ATOM     29  C   UNL     1      -1.222   1.754   0.017  0.00  0.00    +0.070 A 
ATOM     30  C   UNL     1      -0.013   1.076   0.008  0.00  0.00    +0.028 A 
ATOM     31  C   UNL     1       1.173   1.784   0.000  0.00  0.00    +0.002 A 
ATOM     32  C   UNL     1       1.159   3.168   0.007  0.00  0.00    +0.002 A 
ATOM     33  C   UNL     1      -0.040   3.853   0.021  0.00  0.00    +0.028 A 
ATOM     34  C   UNL     1      -1.236   3.151   0.029  0.00  0.00    +0.067 A 
ATOM     35  N   UNL     1      -2.573   3.540   0.044  0.00  0.00    -0.306 N 
ATOM     36  H   UNL     1      -2.898   4.454   0.051  0.00  0.00    +0.170 HD
ATOM     37  C   UNL     1      -3.337   2.431   0.046  0.00  0.00    +0.328 A 
ATOM     38  O   UNL     1      -4.554   2.419   0.059  0.00  0.00    -0.247 OA
ENDBRANCH  25  28
ENDBRANCH   1  20
TORSDOF 8
