REMARK  Name = ZINC40927799
REMARK  5 active torsions:
REMARK  status: ('A' for Active; 'I' for Inactive)
REMARK    1  A    between atoms: C_5  and  N_7
REMARK    2  A    between atoms: C_13  and  C_15
REMARK    3  A    between atoms: N_18  and  C_21
REMARK    4  A    between atoms: C_21  and  C_22
REMARK    5  A    between atoms: C_24  and  C_27
REMARK                            x       y       z     vdW  Elec       q    Type
REMARK                         _______ _______ _______ _____ _____    ______ ____
ROOT
ATOM      1  C   UNL     1      -0.006  -6.650  -1.343  0.00  0.00    +0.072 C 
ATOM      2  C   UNL     1      -1.275  -6.212  -2.079  0.00  0.00    -0.006 C 
ATOM      3  C   UNL     1      -1.421  -7.031  -3.364  0.00  0.00    -0.077 C 
ATOM      4  N   UNL     1      -1.515  -8.458  -3.030  0.00  0.00    +0.386 N 
ATOM      5  C   UNL     1      -0.272  -8.902  -2.388  0.00  0.00    -0.077 C 
ATOM      6  C   UNL     1      -0.081  -8.155  -1.066  0.00  0.00    -0.006 C 
ATOM      7  H   UNL     1      -2.289  -8.605  -2.400  0.00  0.00    -0.081 HD
ENDROOT
BRANCH   1  14
ATOM      8  N   UNL     1       2.632  -2.834   0.279  0.00  0.00    -0.326 N 
ATOM      9  C   UNL     1       2.088  -3.440   1.502  0.00  0.00    +0.124 C 
ATOM     10  C   UNL     1       0.644  -3.881   1.230  0.00  0.00    +0.126 C 
ATOM     11  N   UNL     1       0.618  -4.657  -0.017  0.00  0.00    -0.298 N 
ATOM     12  C   UNL     1       1.162  -4.051  -1.240  0.00  0.00    +0.126 C 
ATOM     13  C   UNL     1       2.601  -3.608  -0.970  0.00  0.00    +0.124 C 
ATOM     14  C   UNL     1       0.104  -5.903  -0.039  0.00  0.00    +0.219 C 
ATOM     15  O   UNL     1      -0.271  -6.422   0.991  0.00  0.00    -0.275 OA
BRANCH   8  20
ATOM     16  C   UNL     1       2.877   0.828   0.082  0.00  0.00    +0.002 A 
ATOM     17  C   UNL     1       4.221   1.016   0.345  0.00  0.00    +0.002 A 
ATOM     18  C   UNL     1       5.040  -0.072   0.587  0.00  0.00    +0.022 A 
ATOM     19  C   UNL     1       4.516  -1.351   0.566  0.00  0.00    +0.062 A 
ATOM     20  C   UNL     1       3.165  -1.542   0.302  0.00  0.00    +0.048 A 
ATOM     21  C   UNL     1       2.346  -0.447   0.059  0.00  0.00    +0.024 A 
ATOM     22 CL   UNL     1       5.545  -2.716   0.869  0.00  0.00    -0.082 Cl
ENDBRANCH   8  20
ENDBRANCH   1  14
BRANCH   4  23
ATOM     23  C   UNL     1      -1.733  -9.233  -4.259  0.00  0.00    +0.022 C 
BRANCH  23  24
ATOM     24  C   UNL     1      -1.952 -10.682  -3.907  0.00  0.00    +0.211 A 
ATOM     25  N   UNL     1      -3.103 -11.239  -3.659  0.00  0.00    -0.193 NA
ATOM     26  C   UNL     1      -2.932 -12.544  -3.382  0.00  0.00    +0.202 A 
ATOM     27  N   UNL     1      -1.653 -12.823  -3.453  0.00  0.00    -0.056 NA
ATOM     28  O   UNL     1      -0.996 -11.614  -3.801  0.00  0.00    -0.340 OA
BRANCH  26  29
ATOM     29  C   UNL     1      -4.011 -13.508  -3.050  0.00  0.00    +0.023 A 
ATOM     30  C   UNL     1      -5.338 -13.084  -3.012  0.00  0.00    +0.013 A 
ATOM     31  C   UNL     1      -6.338 -13.983  -2.702  0.00  0.00    +0.021 A 
ATOM     32  C   UNL     1      -6.024 -15.304  -2.429  0.00  0.00    +0.041 A 
ATOM     33  C   UNL     1      -4.707 -15.729  -2.465  0.00  0.00    +0.021 A 
ATOM     34  C   UNL     1      -3.701 -14.839  -2.780  0.00  0.00    +0.013 A 
ATOM     35 CL   UNL     1      -7.286 -16.430  -2.040  0.00  0.00    -0.084 Cl
ENDBRANCH  26  29
ENDBRANCH  23  24
ENDBRANCH   4  23
TORSDOF 5
