REMARK  Name = ZINC14360873
REMARK  7 active torsions:
REMARK  status: ('A' for Active; 'I' for Inactive)
REMARK    1  A    between atoms: C_1  and  C_2
REMARK    2  A    between atoms: C_5  and  C_31
REMARK    3  A    between atoms: C_6  and  N_8
REMARK    4  A    between atoms: C_9  and  S_13
REMARK    5  A    between atoms: S_13  and  C_14
REMARK    6  A    between atoms: C_14  and  C_15
REMARK    7  A    between atoms: N_20  and  C_21
REMARK                            x       y       z     vdW  Elec       q    Type
REMARK                         _______ _______ _______ _____ _____    ______ ____
ROOT
ATOM      1  C   UNL     1      -7.439  -0.137   2.274  0.00  0.00    +0.231 C 
ATOM      2  O   UNL     1      -6.928   0.599   3.091  0.00  0.00    -0.274 OA
ATOM      3  N   UNL     1      -6.685  -0.696   1.307  0.00  0.00    -0.239 N 
ATOM      4  C   UNL     1      -5.364  -0.437   1.248  0.00  0.00    +0.306 C 
ATOM      5  O   UNL     1      -4.852   0.300   2.067  0.00  0.00    -0.252 OA
ATOM      6  N   UNL     1      -4.610  -0.996   0.280  0.00  0.00    -0.294 N 
ATOM      7  H   UNL     1      -7.094  -1.285   0.653  0.00  0.00    +0.159 HD
ATOM      8  H   UNL     1      -5.019  -1.585  -0.374  0.00  0.00    +0.151 HD
ENDROOT
BRANCH   6   9
ATOM      9  C   UNL     1      -3.174  -0.715   0.216  0.00  0.00    +0.037 C 
ATOM     10  C   UNL     1      -2.559  -1.467  -0.966  0.00  0.00    +0.029 C 
ATOM     11  C   UNL     1      -1.059  -1.173  -1.033  0.00  0.00    -0.008 C 
ATOM     12  C   UNL     1      -0.391  -1.630   0.265  0.00  0.00    +0.007 C 
ATOM     13  C   UNL     1      -1.006  -0.877   1.447  0.00  0.00    -0.008 C 
ATOM     14  C   UNL     1      -2.506  -1.171   1.514  0.00  0.00    +0.029 C 
ATOM     15  C   UNL     1      -0.789   0.626   1.263  0.00  0.00    +0.007 C 
ATOM     16  C   UNL     1      -1.457   1.083  -0.036  0.00  0.00    -0.008 C 
ATOM     17  C   UNL     1      -0.842   0.330  -1.217  0.00  0.00    +0.007 C 
ATOM     18  C   UNL     1      -2.957   0.789   0.031  0.00  0.00    +0.029 C 
ENDBRANCH   6   9
BRANCH   1  19
ATOM     19  C   UNL     1      -8.916  -0.427   2.341  0.00  0.00    +0.173 C 
BRANCH  19  20
ATOM     20  S   UNL     1      -9.643   0.464   3.738  0.00  0.00    -0.075 S 
BRANCH  20  22
ATOM     21  N   UNL     1     -12.360   0.329   4.385  0.00  0.00    -0.187 N 
ATOM     22  C   UNL     1     -11.324  -0.041   3.582  0.00  0.00    +0.214 A 
ATOM     23  N   UNL     1     -11.819  -0.843   2.663  0.00  0.00    -0.101 NA
ATOM     24  N   UNL     1     -13.080  -1.006   2.839  0.00  0.00    -0.022 NA
ATOM     25  N   UNL     1     -13.486  -0.329   3.858  0.00  0.00    -0.038 NA
BRANCH  21  31
ATOM     26  C   UNL     1     -10.238   1.652   8.620  0.00  0.00    +0.044 C 
ATOM     27  C   UNL     1     -11.296   1.844   7.565  0.00  0.00    -0.048 A 
ATOM     28  C   UNL     1     -12.223   2.862   7.693  0.00  0.00    +0.004 A 
ATOM     29  C   UNL     1     -13.196   3.041   6.727  0.00  0.00    +0.006 A 
ATOM     30  C   UNL     1     -13.244   2.203   5.630  0.00  0.00    -0.025 A 
ATOM     31  C   UNL     1     -12.314   1.181   5.498  0.00  0.00    +0.073 A 
ATOM     32  C   UNL     1     -11.342   1.000   6.473  0.00  0.00    +0.031 A 
ATOM     33  C   UNL     1     -14.305   2.398   4.577  0.00  0.00    +0.046 C 
ENDBRANCH  21  31
ENDBRANCH  20  22
ENDBRANCH  19  20
ENDBRANCH   1  19
TORSDOF 5
