REMARK  Name = ZINC16012232
REMARK  5 active torsions:
REMARK  status: ('A' for Active; 'I' for Inactive)
REMARK    1  A    between atoms: C_1  and  C_2
REMARK    2  A    between atoms: C_7  and  C_8
REMARK    3  A    between atoms: C_13  and  C_30
REMARK    4  A    between atoms: C_30  and  C_32
REMARK    5  A    between atoms: C_36  and  N_38
REMARK                            x       y       z     vdW  Elec       q    Type
REMARK                         _______ _______ _______ _____ _____    ______ ____
ROOT
ATOM      1  C   UNL     1       2.954  -5.799   0.824  0.00  0.00    +0.044 C 
ATOM      2  C   UNL     1       2.543  -4.372   0.567  0.00  0.00    -0.046 A 
ATOM      3  C   UNL     1       2.347  -3.511   1.632  0.00  0.00    +0.004 A 
ATOM      4  C   UNL     1       1.970  -2.201   1.397  0.00  0.00    +0.005 A 
ATOM      5  C   UNL     1       1.790  -1.756   0.106  0.00  0.00    -0.027 A 
ATOM      6  C   UNL     1       1.986  -2.613  -0.973  0.00  0.00    +0.039 A 
ATOM      7  C   UNL     1       2.365  -3.931  -0.727  0.00  0.00    -0.026 A 
ATOM      8  C   UNL     1       2.581  -4.878  -1.880  0.00  0.00    +0.046 C 
ATOM      9  N   UNL     1       1.748  -1.941  -2.173  0.00  0.00    -0.286 N 
ATOM     10  C   UNL     1       1.397  -0.656  -1.975  0.00  0.00    +0.212 C 
ATOM     11  O   UNL     1       1.133   0.162  -2.830  0.00  0.00    -0.277 OA
ATOM     12  C   UNL     1       1.394  -0.431  -0.485  0.00  0.00    +0.052 C 
ATOM     13  C   UNL     1       0.002  -0.004   0.002  0.00  0.00    +0.080 C 
ATOM     14  C   UNL     1       0.071   1.528   0.027  0.00  0.00    +0.071 C 
ATOM     15  C   UNL     1      -0.604   2.085   1.249  0.00  0.00    -0.012 A 
ATOM     16  C   UNL     1      -0.396   1.926   2.601  0.00  0.00    +0.006 A 
ATOM     17  C   UNL     1      -1.203   2.589   3.508  0.00  0.00    +0.000 A 
ATOM     18  C   UNL     1      -2.219   3.411   3.054  0.00  0.00    +0.002 A 
ATOM     19  C   UNL     1      -2.431   3.573   1.701  0.00  0.00    +0.023 A 
ATOM     20  C   UNL     1      -1.622   2.909   0.780  0.00  0.00    +0.038 A 
ATOM     21  N   UNL     1      -1.638   2.911  -0.616  0.00  0.00    -0.285 N 
ATOM     22  C   UNL     1      -0.676   2.125  -1.136  0.00  0.00    +0.227 C 
ATOM     23  O   UNL     1      -0.454   1.935  -2.313  0.00  0.00    -0.275 OA
ATOM     24  C   UNL     1       1.555   1.899  -0.013  0.00  0.00    -0.046 C 
ATOM     25  C   UNL     1       3.399   0.795  -1.089  0.00  0.00    -0.076 C 
ATOM     26  C   UNL     1       3.327   2.246  -1.609  0.00  0.00    -0.020 C 
ATOM     27  C   UNL     1       1.851   2.639  -1.341  0.00  0.00    -0.016 C 
ATOM     28  H   UNL     1       1.825  -2.351  -3.048  0.00  0.00    +0.155 HD
ATOM     29  H   UNL     1      -2.268   3.420  -1.149  0.00  0.00    +0.155 HD
ATOM     30  N   UNL     1       2.311   0.648  -0.091  0.00  0.00    +0.395 N 
ATOM     31  H   UNL     1       2.718   0.432   0.827  0.00  0.00    -0.079 HD
ENDROOT
BRANCH  13  32
ATOM     32  C   UNL     1      -0.263  -0.543   1.384  0.00  0.00    +0.167 C 
ATOM     33  O   UNL     1       0.529  -0.335   2.278  0.00  0.00    -0.292 OA
BRANCH  32  34
ATOM     34  C   UNL     1      -1.482  -1.324   1.648  0.00  0.00    +0.020 A 
ATOM     35  C   UNL     1      -2.398  -1.567   0.619  0.00  0.00    +0.011 A 
ATOM     36  C   UNL     1      -3.537  -2.300   0.875  0.00  0.00    +0.003 A 
ATOM     37  C   UNL     1      -3.777  -2.793   2.146  0.00  0.00    +0.033 A 
ATOM     38  C   UNL     1      -2.875  -2.558   3.169  0.00  0.00    +0.127 A 
ATOM     39  C   UNL     1      -1.728  -1.831   2.928  0.00  0.00    +0.044 A 
BRANCH  38  40
ATOM     40  N   UNL     1      -3.141  -3.090   4.524  0.00  0.00    +0.056 N 
ATOM     41  O   UNL     1      -4.152  -3.735   4.737  0.00  0.00    -0.126 OA
ATOM     42  O   UNL     1      -2.349  -2.883   5.426  0.00  0.00    -0.126 OA
ENDBRANCH  38  40
ENDBRANCH  32  34
ENDBRANCH  13  32
TORSDOF 3
