REMARK  Name = ZINC35641377
REMARK  13 active torsions:
REMARK  status: ('A' for Active; 'I' for Inactive)
REMARK    1  A    between atoms: C_1  and  C_2
REMARK    2  A    between atoms: C_2  and  O_3
REMARK    3  A    between atoms: O_3  and  C_4
REMARK    4  A    between atoms: C_4  and  C_6
REMARK    5  A    between atoms: C_7  and  C_24
REMARK    6  A    between atoms: N_8  and  C_21
REMARK    7  A    between atoms: C_12  and  C_14
REMARK    8  A    between atoms: C_19  and  C_20
REMARK    9  A    between atoms: C_21  and  C_22
REMARK   10  A    between atoms: C_24  and  N_25
REMARK   11  A    between atoms: N_25  and  C_26
REMARK   12  A    between atoms: N_25  and  C_27
REMARK   13  A    between atoms: N_30  and  C_33
REMARK                            x       y       z     vdW  Elec       q    Type
REMARK                         _______ _______ _______ _____ _____    ______ ____
ROOT
ATOM      1  C   UNL     1       1.968  -3.031  -2.469  0.00  0.00    +0.080 C 
ATOM      2  C   UNL     1       2.122  -4.299  -2.906  0.00  0.00    +0.041 C 
ATOM      3  N   UNL     1       2.483  -4.562  -4.197  0.00  0.00    -0.254 N 
ATOM      4  C   UNL     1       2.709  -3.611  -5.112  0.00  0.00    +0.307 C 
ATOM      5  O   UNL     1       3.027  -3.943  -6.238  0.00  0.00    -0.252 OA
ATOM      6  N   UNL     1       2.595  -2.299  -4.827  0.00  0.00    -0.288 N 
ATOM      7  C   UNL     1       2.204  -1.910  -3.462  0.00  0.00    +0.144 C 
ATOM      8  H   UNL     1       2.764  -1.627  -5.505  0.00  0.00    +0.151 HD
ENDROOT
BRANCH   7   9
ATOM      9  C   UNL     1       3.287  -1.020  -2.908  0.00  0.00    -0.020 A 
ATOM     10  C   UNL     1       4.608  -1.247  -3.248  0.00  0.00    +0.006 A 
ATOM     11  C   UNL     1       5.601  -0.431  -2.740  0.00  0.00    +0.000 A 
ATOM     12  C   UNL     1       5.274   0.612  -1.894  0.00  0.00    +0.000 A 
ATOM     13  C   UNL     1       3.954   0.839  -1.555  0.00  0.00    +0.004 A 
ATOM     14  C   UNL     1       2.959   0.026  -2.066  0.00  0.00    -0.045 A 
ATOM     15  C   UNL     1       1.519   0.276  -1.702  0.00  0.00    +0.044 C 
ENDBRANCH   7   9
BRANCH   1  16
ATOM     16  C   UNL     1       1.593  -2.758  -1.133  0.00  0.00    +0.339 C 
ATOM     17  O   UNL     1       0.429  -2.533  -0.861  0.00  0.00    -0.245 OA
BRANCH  16  18
ATOM     18  O   UNL     1       2.527  -2.747  -0.159  0.00  0.00    -0.462 OA
BRANCH  18  20
ATOM     19  C   UNL     1       3.242  -2.688   2.149  0.00  0.00    +0.048 C 
ATOM     20  C   UNL     1       2.067  -2.546   1.179  0.00  0.00    +0.229 C 
ENDBRANCH  18  20
ENDBRANCH  16  18
ENDBRANCH   1  16
BRANCH   3  21
ATOM     21  C   UNL     1       2.632  -5.962  -4.602  0.00  0.00    +0.141 C 
BRANCH  21  22
ATOM     22  C   UNL     1       1.313  -6.479  -5.117  0.00  0.00    -0.015 C 
ATOM     23  C   UNL     1       1.240  -7.011  -6.311  0.00  0.00    +0.005 C 
ENDBRANCH  21  22
ENDBRANCH   3  21
BRANCH   2  24
ATOM     24  C   UNL     1       1.892  -5.444  -1.953  0.00  0.00    +0.136 C 
BRANCH  24  25
ATOM     25  N   UNL     1       0.722  -6.217  -2.390  0.00  0.00    -0.297 NA
ATOM     26  C   UNL     1      -0.507  -5.420  -2.281  0.00  0.00    +0.105 C 
BRANCH  25  27
ATOM     27  C   UNL     1       0.605  -7.470  -1.632  0.00  0.00    +0.053 C 
ATOM     28  C   UNL     1       1.857  -8.323  -1.856  0.00  0.00    +0.000 C 
ATOM     29  C   UNL     1       1.695  -9.659  -1.128  0.00  0.00    -0.078 C 
ATOM     30  N   UNL     1       0.520 -10.366  -1.651  0.00  0.00    +0.378 N 
ATOM     31  C   UNL     1      -0.694  -9.586  -1.375  0.00  0.00    -0.078 C 
ATOM     32  C   UNL     1      -0.623  -8.248  -2.113  0.00  0.00    +0.000 C 
ATOM     33  C   UNL     1       0.413 -11.680  -1.004  0.00  0.00    -0.096 C 
ATOM     34  H   UNL     1       0.619 -10.490  -2.647  0.00  0.00    -0.082 HD
ENDBRANCH  25  27
ENDBRANCH  24  25
ENDBRANCH   2  24
TORSDOF 9
