REMARK  Name = ZINC20794573
REMARK  6 active torsions:
REMARK  status: ('A' for Active; 'I' for Inactive)
REMARK    1  A    between atoms: C_1  and  C_2
REMARK    2  A    between atoms: C_8  and  N_10
REMARK    3  A    between atoms: C_11  and  C_13
REMARK    4  A    between atoms: C_13  and  N_14
REMARK    5  A    between atoms: C_17  and  C_21
REMARK    6  A    between atoms: C_17  and  C_22
REMARK                            x       y       z     vdW  Elec       q    Type
REMARK                         _______ _______ _______ _____ _____    ______ ____
ROOT
ATOM      1  N   UNL     1       0.391   2.740   1.887  0.00  0.00    -0.215 N 
ATOM      2  C   UNL     1      -0.594   2.021   1.313  0.00  0.00    +0.251 C 
ATOM      3  O   UNL     1      -1.710   1.830   1.748  0.00  0.00    -0.272 OA
ATOM      4  C   UNL     1      -0.018   1.503   0.010  0.00  0.00    +0.135 C 
ATOM      5  N   UNL     1       1.353   2.040   0.000  0.00  0.00    -0.281 N 
ATOM      6  C   UNL     1       1.498   2.747   1.135  0.00  0.00    +0.310 C 
ATOM      7  O   UNL     1       2.520   3.328   1.443  0.00  0.00    -0.252 OA
ATOM      8  C   UNL     1      -0.814   2.035  -1.183  0.00  0.00    +0.047 C 
ATOM      9  H   UNL     1       2.023   1.821  -0.845  0.00  0.00    +0.152 HD
ENDROOT
BRANCH   4  10
ATOM     10  C   UNL     1       0.002  -0.004   0.002  0.00  0.00    -0.015 A 
ATOM     11  C   UNL     1      -1.001  -0.712   0.637  0.00  0.00    +0.007 A 
ATOM     12  C   UNL     1      -0.986  -2.094   0.625  0.00  0.00    +0.020 A 
ATOM     13  C   UNL     1       0.040  -2.769  -0.013  0.00  0.00    +0.041 A 
ATOM     14  C   UNL     1       1.046  -2.060  -0.644  0.00  0.00    +0.020 A 
ATOM     15  C   UNL     1       1.027  -0.678  -0.636  0.00  0.00    +0.007 A 
ATOM     16 CL   UNL     1       0.063  -4.505  -0.023  0.00  0.00    -0.084 Cl
ENDBRANCH   4  10
BRANCH   1  17
ATOM     17  C   UNL     1       0.266   3.428   3.174  0.00  0.00    +0.213 C 
BRANCH  17  19
ATOM     18  N   UNL     1      -0.432   5.655   3.995  0.00  0.00    -0.311 N 
ATOM     19  C   UNL     1      -0.239   4.830   2.946  0.00  0.00    +0.231 C 
ATOM     20  O   UNL     1      -0.470   5.216   1.820  0.00  0.00    -0.274 OA
ATOM     21  H   UNL     1      -0.222   5.305   5.016  0.00  0.00    +0.149 HD
BRANCH  18  28
ATOM     22  C   UNL     1       1.045   7.927   5.017  0.00  0.00    +0.009 C 
ATOM     23  C   UNL     1      -0.483   7.912   4.935  0.00  0.00    +0.006 C 
ATOM     24  C   UNL     1      -1.059   7.369   6.244  0.00  0.00    +0.005 C 
ATOM     25  C   UNL     1      -2.587   7.354   6.161  0.00  0.00    +0.000 C 
ATOM     26  C   UNL     1      -3.026   6.459   5.000  0.00  0.00    +0.002 C 
ATOM     27  C   UNL     1      -2.450   7.003   3.691  0.00  0.00    +0.022 C 
ATOM     28  C   UNL     1      -0.922   7.017   3.774  0.00  0.00    +0.076 C 
ENDBRANCH  18  28
ENDBRANCH  17  19
ENDBRANCH   1  17
TORSDOF 4
