REMARK  Name = ZINC39685984
REMARK  7 active torsions:
REMARK  status: ('A' for Active; 'I' for Inactive)
REMARK    1  A    between atoms: C_1  and  C_2
REMARK    2  A    between atoms: C_2  and  C_3
REMARK    3  A    between atoms: C_2  and  C_4
REMARK    4  A    between atoms: C_9  and  N_12
REMARK    5  A    between atoms: C_13  and  C_15
REMARK    6  A    between atoms: C_26  and  C_28
REMARK    7  A    between atoms: C_31  and  C_35
REMARK                            x       y       z     vdW  Elec       q    Type
REMARK                         _______ _______ _______ _____ _____    ______ ____
ROOT
ATOM      1  C   UNL     1       0.554   3.619   8.037  0.00  0.00    +0.100 C 
ATOM      2  C   UNL     1       1.968   4.029   7.568  0.00  0.00    +0.121 C 
ATOM      3  N   UNL     1       2.743   4.200   8.820  0.00  0.00    -0.296 N 
ATOM      4  C   UNL     1       2.279   3.096   9.694  0.00  0.00    +0.115 C 
ATOM      5  C   UNL     1       0.762   3.007   9.432  0.00  0.00    -0.004 C 
ATOM      6  C   UNL     1       0.311   1.549   9.443  0.00  0.00    -0.010 C 
ATOM      7  C   UNL     1       0.473   0.980  10.855  0.00  0.00    -0.082 C 
ATOM      8  N   UNL     1      -0.329   1.768  11.798  0.00  0.00    +0.379 N 
ATOM      9  C   UNL     1       0.172   3.147  11.851  0.00  0.00    -0.082 C 
ATOM     10  C   UNL     1      -0.003   3.808  10.481  0.00  0.00    -0.010 C 
ATOM     11  C   UNL     1       3.660   5.147   9.101  0.00  0.00    +0.249 C 
ATOM     12  O   UNL     1       4.285   5.098  10.143  0.00  0.00    -0.270 OA
ATOM     13  H   UNL     1      -1.292   1.773  11.496  0.00  0.00    -0.086 HD
ATOM     14  H   UNL     1      -0.269   1.354  12.716  0.00  0.00    -0.086 HD
ENDROOT
BRANCH  11  15
ATOM     15  C   UNL     1       3.908   6.243   8.142  0.00  0.00    +0.072 A 
ATOM     16  C   UNL     1       3.837   6.003   6.768  0.00  0.00    +0.016 A 
ATOM     17  C   UNL     1       4.068   7.030   5.879  0.00  0.00    +0.013 A 
ATOM     18  C   UNL     1       4.371   8.299   6.343  0.00  0.00    +0.058 A 
ATOM     19  C   UNL     1       4.444   8.547   7.701  0.00  0.00    +0.051 A 
ATOM     20  C   UNL     1       4.208   7.527   8.606  0.00  0.00    +0.136 A 
ATOM     21  F   UNL     1       4.274   7.771   9.933  0.00  0.00    -0.205 F 
BRANCH  18  22
ATOM     22  C   UNL     1       4.623   9.416   5.363  0.00  0.00    +0.418 C 
ATOM     23  F   UNL     1       3.417  10.063   5.074  0.00  0.00    -0.166 F 
ATOM     24  F   UNL     1       5.521  10.332   5.921  0.00  0.00    -0.166 F 
ATOM     25  F   UNL     1       5.164   8.890   4.186  0.00  0.00    -0.166 F 
ENDBRANCH  18  22
ENDBRANCH  11  15
BRANCH   1  27
ATOM     26  N   UNL     1      -1.369   2.421   7.045  0.00  0.00    -0.312 N 
ATOM     27  C   UNL     1      -0.034   2.597   7.098  0.00  0.00    +0.218 C 
ATOM     28  O   UNL     1       0.694   1.934   6.390  0.00  0.00    -0.275 OA
ATOM     29  H   UNL     1      -1.951   2.951   7.612  0.00  0.00    +0.149 HD
BRANCH  26  35
ATOM     30  C   UNL     1      -5.061   0.445   3.647  0.00  0.00    +0.218 C 
ATOM     31  O   UNL     1      -5.056   0.802   2.489  0.00  0.00    -0.275 OA
ATOM     32  N   UNL     1      -3.917   0.451   4.360  0.00  0.00    -0.301 N 
ATOM     33  C   UNL     1      -3.882  -0.091   5.725  0.00  0.00    +0.109 C 
ATOM     34  C   UNL     1      -3.303   0.972   6.663  0.00  0.00    +0.041 C 
ATOM     35  C   UNL     1      -1.941   1.427   6.133  0.00  0.00    +0.076 C 
ATOM     36  C   UNL     1      -2.114   2.050   4.745  0.00  0.00    +0.041 C 
ATOM     37  C   UNL     1      -2.679   0.994   3.784  0.00  0.00    +0.109 C 
BRANCH  30  39
ATOM     38  C   UNL     1      -7.068   1.204   4.890  0.00  0.00    +0.017 C 
ATOM     39  C   UNL     1      -6.347  -0.005   4.291  0.00  0.00    +0.069 C 
ATOM     40  C   UNL     1      -7.241  -0.663   3.239  0.00  0.00    +0.017 C 
ENDBRANCH  30  39
ENDBRANCH  26  35
ENDBRANCH   1  27
TORSDOF 5
