REMARK  Name = ZINC03308201
REMARK  9 active torsions:
REMARK  status: ('A' for Active; 'I' for Inactive)
REMARK    1  A    between atoms: C_1  and  C_2
REMARK    2  A    between atoms: C_2  and  O_3
REMARK    3  A    between atoms: O_3  and  C_4
REMARK    4  A    between atoms: C_4  and  C_6
REMARK    5  A    between atoms: C_8  and  C_17
REMARK    6  A    between atoms: C_20  and  C_23
REMARK    7  A    between atoms: C_23  and  C_24
REMARK    8  A    between atoms: C_23  and  C_25
REMARK    9  A    between atoms: C_23  and  C_26
REMARK                            x       y       z     vdW  Elec       q    Type
REMARK                         _______ _______ _______ _____ _____    ______ ____
ROOT
ATOM      1  C   UNL     1       2.412   1.309  -0.540  0.00  0.00    +0.167 C 
ATOM      2  C   UNL     1       2.455  -0.072   0.126  0.00  0.00    +0.124 C 
ATOM      3  N   UNL     1       1.143  -0.707   0.017  0.00  0.00    -0.291 N 
ATOM      4  C   UNL     1       0.002  -0.004   0.002  0.00  0.00    +0.304 C 
ATOM      5  O   UNL     1      -1.055  -0.604  -0.019  0.00  0.00    -0.252 OA
ATOM      6  N   UNL     1      -0.016   1.342   0.009  0.00  0.00    -0.271 N 
ATOM      7  C   UNL     1       1.199   2.040   0.002  0.00  0.00    +0.039 C 
ATOM      8  C   UNL     1       1.284   3.280   0.446  0.00  0.00    +0.099 C 
ATOM      9 CL   UNL     1       2.808   4.109   0.418  0.00  0.00    -0.090 Cl
ATOM     10  H   UNL     1       1.096  -1.674  -0.047  0.00  0.00    +0.151 HD
ATOM     11  H   UNL     1      -0.859   1.822   0.016  0.00  0.00    +0.156 HD
ENDROOT
BRANCH   2  12
ATOM     12  C   UNL     1       2.820   0.082   1.580  0.00  0.00    -0.026 A 
ATOM     13  C   UNL     1       1.857   0.461   2.497  0.00  0.00    +0.006 A 
ATOM     14  C   UNL     1       2.191   0.598   3.832  0.00  0.00    +0.004 A 
ATOM     15  C   UNL     1       3.488   0.365   4.247  0.00  0.00    -0.042 A 
ATOM     16  C   UNL     1       4.452  -0.009   3.329  0.00  0.00    +0.004 A 
ATOM     17  C   UNL     1       4.117  -0.151   1.996  0.00  0.00    +0.006 A 
BRANCH  15  18
ATOM     18  C   UNL     1       3.853   0.520   5.702  0.00  0.00    -0.013 C 
ATOM     19  C   UNL     1       4.936   1.592   5.844  0.00  0.00    +0.015 C 
ATOM     20  C   UNL     1       2.614   0.938   6.496  0.00  0.00    +0.015 C 
ATOM     21  C   UNL     1       4.379  -0.812   6.240  0.00  0.00    +0.015 C 
ENDBRANCH  15  18
ENDBRANCH   2  12
BRANCH   1  22
ATOM     22  C   UNL     1       2.292   1.154  -2.034  0.00  0.00    +0.318 C 
ATOM     23  O   UNL     1       2.246   0.051  -2.525  0.00  0.00    -0.250 OA
BRANCH  22  24
ATOM     24  O   UNL     1       2.238   2.241  -2.820  0.00  0.00    -0.464 OA
BRANCH  24  26
ATOM     25  C   UNL     1       2.075   3.362  -4.975  0.00  0.00    +0.048 C 
ATOM     26  C   UNL     1       2.123   2.016  -4.249  0.00  0.00    +0.229 C 
ENDBRANCH  24  26
ENDBRANCH  22  24
ENDBRANCH   1  22
TORSDOF 5
