REMARK  Name = ZINC36495300
REMARK  10 active torsions:
REMARK  status: ('A' for Active; 'I' for Inactive)
REMARK    1  A    between atoms: C_1  and  C_2
REMARK    2  A    between atoms: C_7  and  C_8
REMARK    3  A    between atoms: C_8  and  C_9
REMARK    4  A    between atoms: N_11  and  C_12
REMARK    5  A    between atoms: N_11  and  C_18
REMARK    6  A    between atoms: C_12  and  C_13
REMARK    7  A    between atoms: C_18  and  C_20
REMARK    8  A    between atoms: C_18  and  C_29
REMARK    9  A    between atoms: C_23  and  N_26
REMARK   10  A    between atoms: N_31  and  C_32
REMARK                            x       y       z     vdW  Elec       q    Type
REMARK                         _______ _______ _______ _____ _____    ______ ____
ROOT
ATOM      1  C   UNL     1      -2.541   1.421   3.541  0.00  0.00    +0.193 C 
ENDROOT
BRANCH   1   2
ATOM      2  C   UNL     1      -1.467   2.466   3.708  0.00  0.00    -0.018 A 
ATOM      3  C   UNL     1      -0.357   2.197   4.487  0.00  0.00    +0.008 A 
ATOM      4  C   UNL     1       0.627   3.155   4.641  0.00  0.00    +0.033 A 
ATOM      5  C   UNL     1       0.502   4.382   4.016  0.00  0.00    +0.126 A 
ATOM      6  C   UNL     1      -0.608   4.650   3.236  0.00  0.00    +0.033 A 
ATOM      7  C   UNL     1      -1.590   3.690   3.079  0.00  0.00    +0.008 A 
BRANCH   5   8
ATOM      8  N   UNL     1       1.556   5.408   4.181  0.00  0.00    +0.056 N 
ATOM      9  O   UNL     1       2.526   5.173   4.863  0.00  0.00    -0.126 OA
ATOM     10  O   UNL     1       1.446   6.480   3.634  0.00  0.00    -0.126 OA
ENDBRANCH   5   8
ENDBRANCH   1   2
BRANCH   1  11
ATOM     11  C   UNL     1      -3.327   1.299   4.821  0.00  0.00    +0.238 C 
ATOM     12  O   UNL     1      -2.821   0.787   5.797  0.00  0.00    -0.273 OA
ATOM     13  N   UNL     1      -4.593   1.758   4.880  0.00  0.00    -0.311 N 
ATOM     14  H   UNL     1      -4.997   2.168   4.100  0.00  0.00    +0.149 HD
BRANCH  13  15
ATOM     15  C   UNL     1      -5.357   1.640   6.125  0.00  0.00    +0.073 C 
ATOM     16  C   UNL     1      -6.011   0.258   6.191  0.00  0.00    +0.022 C 
ATOM     17  C   UNL     1      -6.809   0.134   7.491  0.00  0.00    +0.002 C 
ATOM     18  C   UNL     1      -7.893   1.214   7.529  0.00  0.00    +0.000 C 
ATOM     19  C   UNL     1      -7.239   2.595   7.462  0.00  0.00    +0.002 C 
ATOM     20  C   UNL     1      -6.441   2.719   6.162  0.00  0.00    +0.022 C 
ENDBRANCH  13  15
ENDBRANCH   1  11
BRANCH   1  23
ATOM     21  C   UNL     1      -1.308  -0.047   2.037  0.00  0.00    +0.221 C 
ATOM     22  O   UNL     1      -1.267   0.860   1.232  0.00  0.00    -0.275 OA
ATOM     23  N   UNL     1      -1.922   0.132   3.223  0.00  0.00    -0.278 N 
BRANCH  21  24
ATOM     24  C   UNL     1      -0.671  -1.373   1.709  0.00  0.00    +0.131 C 
BRANCH  24  31
ATOM     25  C   UNL     1       1.997  -0.321   1.365  0.00  0.00    +0.044 C 
ATOM     26  C   UNL     1       1.219  -0.807   0.169  0.00  0.00    -0.047 A 
ATOM     27  C   UNL     1       1.784  -0.755  -1.091  0.00  0.00    +0.003 A 
ATOM     28  C   UNL     1       1.069  -1.201  -2.188  0.00  0.00    +0.000 A 
ATOM     29  C   UNL     1      -0.210  -1.699  -2.023  0.00  0.00    +0.000 A 
ATOM     30  C   UNL     1      -0.774  -1.752  -0.763  0.00  0.00    +0.004 A 
ATOM     31  C   UNL     1      -0.058  -1.310   0.334  0.00  0.00    -0.036 A 
ENDBRANCH  24  31
ENDBRANCH  21  24
BRANCH  23  32
ATOM     32  C   UNL     1      -1.971  -0.964   4.194  0.00  0.00    +0.183 C 
BRANCH  32  33
ATOM     33  C   UNL     1      -0.681  -1.002   4.973  0.00  0.00    +0.122 A 
ATOM     34  C   UNL     1      -0.558  -0.820   6.300  0.00  0.00    +0.046 A 
ATOM     35  C   UNL     1       0.817  -0.939   6.604  0.00  0.00    +0.041 A 
ATOM     36  C   UNL     1       1.452  -1.188   5.445  0.00  0.00    +0.195 A 
ATOM     37  O   UNL     1       0.539  -1.230   4.461  0.00  0.00    -0.466 OA
ENDBRANCH  32  33
ENDBRANCH  23  32
ENDBRANCH   1  23
TORSDOF 9
