REMARK  Name = ZINC04209913
REMARK  9 active torsions:
REMARK  status: ('A' for Active; 'I' for Inactive)
REMARK    1  A    between atoms: C_1  and  C_2
REMARK    2  A    between atoms: C_2  and  C_4
REMARK    3  A    between atoms: C_2  and  O_28
REMARK    4  A    between atoms: N_6  and  N_7
REMARK    5  A    between atoms: C_8  and  C_9
REMARK    6  A    between atoms: C_13  and  O_15
REMARK    7  A    between atoms: O_15  and  C_16
REMARK    8  A    between atoms: C_16  and  C_18
REMARK    9  A    between atoms: O_28  and  C_29
REMARK                            x       y       z     vdW  Elec       q    Type
REMARK                         _______ _______ _______ _____ _____    ______ ____
ROOT
ATOM      1  C   UNL     1       4.762  10.801   0.078  0.00  0.00    -0.002 A 
ATOM      2  C   UNL     1       6.066  10.300   0.047  0.00  0.00    +0.010 A 
ATOM      3  C   UNL     1       6.281   8.937   0.047  0.00  0.00    +0.004 A 
ATOM      4  C   UNL     1       5.210   8.064   0.082  0.00  0.00    +0.046 A 
ATOM      5  C   UNL     1       3.910   8.552   0.107  0.00  0.00    +0.133 A 
ATOM      6  C   UNL     1       3.682   9.917   0.108  0.00  0.00    +0.055 A 
ENDROOT
BRANCH   1   8
ATOM      7  N   UNL     1       5.535  13.076   0.051  0.00  0.00    -0.188 NA
ATOM      8  C   UNL     1       4.528  12.257   0.079  0.00  0.00    +0.138 C 
BRANCH   7  11
ATOM      9  C   UNL     1       6.357  15.309   0.022  0.00  0.00    +0.273 C 
ATOM     10  O   UNL     1       7.490  14.877  -0.004  0.00  0.00    -0.270 OA
ATOM     11  N   UNL     1       5.312  14.459   0.051  0.00  0.00    -0.204 N 
ATOM     12  H   UNL     1       4.406  14.805   0.072  0.00  0.00    +0.177 HD
BRANCH   9  14
ATOM     13  C   UNL     1       5.468  17.209   1.345  0.00  0.00    +0.062 C 
ATOM     14  C   UNL     1       6.118  16.797   0.023  0.00  0.00    +0.257 C 
BRANCH  14  15
ATOM     15  O   UNL     1       7.364  17.480  -0.128  0.00  0.00    -0.480 OA
BRANCH  15  16
ATOM     16  C   UNL     1       7.319  18.745  -0.624  0.00  0.00    +0.122 A 
ATOM     17  C   UNL     1       6.111  19.285  -1.039  0.00  0.00    +0.047 A 
ATOM     18  C   UNL     1       6.066  20.573  -1.538  0.00  0.00    +0.023 A 
ATOM     19  C   UNL     1       7.227  21.319  -1.634  0.00  0.00    +0.041 A 
ATOM     20  C   UNL     1       8.434  20.780  -1.224  0.00  0.00    +0.023 A 
ATOM     21  C   UNL     1       8.482  19.495  -0.720  0.00  0.00    +0.047 A 
ATOM     22 CL   UNL     1       7.169  22.935  -2.267  0.00  0.00    -0.084 Cl
ENDBRANCH  15  16
ENDBRANCH  14  15
ENDBRANCH   9  14
ENDBRANCH   7  11
ENDBRANCH   1   8
BRANCH   5  23
ATOM     23  O   UNL     1       2.861   7.688   0.136  0.00  0.00    -0.422 OA
BRANCH  23  24
ATOM     24  C   UNL     1       2.168   7.527  -1.010  0.00  0.00    +0.353 C 
ATOM     25  O   UNL     1       2.435   8.207  -1.982  0.00  0.00    -0.244 OA
BRANCH  24  26
ATOM     26  C   UNL     1       1.094   6.531  -1.083  0.00  0.00    +0.116 A 
ATOM     27  C   UNL     1       0.290   6.226  -2.140  0.00  0.00    +0.070 A 
ATOM     28  C   UNL     1      -0.693   5.228  -2.007  0.00  0.00    +0.008 A 
ATOM     29  C   UNL     1      -1.618   4.772  -2.981  0.00  0.00    +0.010 A 
ATOM     30  C   UNL     1      -2.509   3.791  -2.687  0.00  0.00    +0.001 A 
ATOM     31  C   UNL     1      -2.557   3.203  -1.428  0.00  0.00    +0.001 A 
ATOM     32  C   UNL     1      -1.671   3.613  -0.453  0.00  0.00    +0.016 A 
ATOM     33  C   UNL     1      -0.760   4.608  -0.737  0.00  0.00    +0.022 A 
ATOM     34  S   UNL     1       0.517   5.422   0.190  0.00  0.00    -0.080 S 
ATOM     35 CL   UNL     1       0.479   7.066  -3.647  0.00  0.00    -0.082 Cl
ENDBRANCH  24  26
ENDBRANCH  23  24
ENDBRANCH   5  23
TORSDOF 8
