REMARK  Name = ZINC36027258
REMARK  7 active torsions:
REMARK  status: ('A' for Active; 'I' for Inactive)
REMARK    1  A    between atoms: C_4  and  C_7
REMARK    2  A    between atoms: C_7  and  C_8
REMARK    3  A    between atoms: N_12  and  C_29
REMARK    4  A    between atoms: N_17  and  S_20
REMARK    5  A    between atoms: S_20  and  C_23
REMARK    6  A    between atoms: C_29  and  C_30
REMARK    7  A    between atoms: C_30  and  C_31
REMARK                            x       y       z     vdW  Elec       q    Type
REMARK                         _______ _______ _______ _____ _____    ______ ____
ROOT
ATOM      1  C   UNL     1       3.876  -1.150   1.534  0.00  0.00    +0.023 C 
ATOM      2  C   UNL     1       5.235  -1.815   1.586  0.00  0.00    +0.201 C 
ATOM      3  O   UNL     1       6.304  -1.247   1.522  0.00  0.00    -0.277 OA
ATOM      4  N   UNL     1       5.055  -3.146   1.716  0.00  0.00    -0.313 N 
ATOM      5  C   UNL     1       3.621  -3.445   1.751  0.00  0.00    +0.006 C 
ATOM      6  N   UNL     1       2.933  -2.169   2.056  0.00  0.00    +0.401 N 
ATOM      7  C   UNL     1       3.157  -3.969   0.394  0.00  0.00    +0.023 C 
ATOM      8  C   UNL     1       3.903  -5.268   0.070  0.00  0.00    +0.109 C 
ATOM      9  N   UNL     1       3.721  -6.208   1.184  0.00  0.00    -0.177 NA
ATOM     10  C   UNL     1       4.068  -5.770   2.543  0.00  0.00    +0.109 C 
ATOM     11  C   UNL     1       3.321  -4.467   2.846  0.00  0.00    +0.023 C 
ATOM     12  H   UNL     1       2.807  -2.060   3.051  0.00  0.00    -0.082 HD
ATOM     13  H   UNL     1       2.048  -2.115   1.574  0.00  0.00    -0.082 HD
ENDROOT
BRANCH   9  14
ATOM     14  S   UNL     1       3.137  -7.734   0.914  0.00  0.00    +0.061 S 
ATOM     15  O   UNL     1       2.560  -8.170   2.137  0.00  0.00    -0.153 OA
ATOM     16  O   UNL     1       2.398  -7.676  -0.299  0.00  0.00    -0.153 OA
BRANCH  14  17
ATOM     17  C   UNL     1       4.524  -8.777   0.610  0.00  0.00    +0.105 A 
ATOM     18  C   UNL     1       4.994  -8.944  -0.679  0.00  0.00    +0.028 A 
ATOM     19  C   UNL     1       6.082  -9.763  -0.917  0.00  0.00    +0.002 A 
ATOM     20  C   UNL     1       6.700 -10.413   0.134  0.00  0.00    +0.000 A 
ATOM     21  C   UNL     1       6.231 -10.245   1.423  0.00  0.00    +0.002 A 
ATOM     22  C   UNL     1       5.146  -9.423   1.662  0.00  0.00    +0.028 A 
ENDBRANCH  14  17
ENDBRANCH   9  14
BRANCH   1  23
ATOM     23  C   UNL     1       3.518  -0.782   0.092  0.00  0.00    +0.028 C 
BRANCH  23  27
ATOM     24  C   UNL     1      -0.298   1.136   0.016  0.00  0.00    +0.000 A 
ATOM     25  C   UNL     1       0.851   1.889   0.169  0.00  0.00    +0.000 A 
ATOM     26  C   UNL     1       2.086   1.268   0.194  0.00  0.00    +0.003 A 
ATOM     27  C   UNL     1       2.172  -0.105   0.066  0.00  0.00    -0.048 A 
ATOM     28  C   UNL     1       1.022  -0.858  -0.086  0.00  0.00    +0.003 A 
ATOM     29  C   UNL     1      -0.212  -0.237  -0.112  0.00  0.00    +0.000 A 
ENDBRANCH  23  27
ENDBRANCH   1  23
BRANCH   4  30
ATOM     30  C   UNL     1       6.128  -4.139   1.808  0.00  0.00    +0.112 C 
BRANCH  30  31
ATOM     31  C   UNL     1       6.535  -4.316   3.273  0.00  0.00    +0.074 C 
BRANCH  31  32
ATOM     32  C   UNL     1       7.624  -5.353   3.370  0.00  0.00    +0.043 A 
ATOM     33  C   UNL     1       8.813  -5.037   3.999  0.00  0.00    +0.023 A 
ATOM     34  C   UNL     1       9.809  -5.998   4.084  0.00  0.00    +0.003 A 
ATOM     35  C   UNL     1       9.569  -7.247   3.529  0.00  0.00    +0.020 A 
ATOM     36  C   UNL     1       8.355  -7.489   2.916  0.00  0.00    +0.111 A 
ATOM     37  N   UNL     1       7.429  -6.552   2.859  0.00  0.00    -0.260 NA
ENDBRANCH  31  32
ENDBRANCH  30  31
ENDBRANCH   4  30
TORSDOF 7
