REMARK  Name = ZINC36024801
REMARK  8 active torsions:
REMARK  status: ('A' for Active; 'I' for Inactive)
REMARK    1  A    between atoms: C_1  and  C_2
REMARK    2  A    between atoms: C_6  and  N_8
REMARK    3  A    between atoms: N_8  and  C_9
REMARK    4  A    between atoms: C_9  and  N_11
REMARK    5  A    between atoms: C_18  and  C_33
REMARK    6  A    between atoms: N_22  and  C_23
REMARK    7  A    between atoms: C_23  and  C_24
REMARK    8  A    between atoms: C_33  and  C_34
REMARK                            x       y       z     vdW  Elec       q    Type
REMARK                         _______ _______ _______ _____ _____    ______ ____
ROOT
ATOM      1  N   UNL     1      -0.560  -6.069   3.274  0.00  0.00    -0.312 N 
ATOM      2  C   UNL     1      -0.686  -4.923   4.185  0.00  0.00    +0.107 C 
ATOM      3  C   UNL     1      -1.759  -5.241   5.231  0.00  0.00    +0.025 C 
ATOM      4  C   UNL     1      -1.422  -6.564   5.916  0.00  0.00    +0.006 C 
ATOM      5  C   UNL     1      -1.384  -7.698   4.893  0.00  0.00    +0.025 C 
ATOM      6  C   UNL     1      -0.314  -7.400   3.844  0.00  0.00    +0.107 C 
ATOM      7  N   UNL     1      -2.432  -6.862   6.954  0.00  0.00    +0.401 N 
ATOM      8  C   UNL     1      -1.838  -6.276   8.179  0.00  0.00    +0.023 C 
ATOM      9  C   UNL     1      -0.345  -6.290   7.930  0.00  0.00    +0.201 C 
ATOM     10  O   UNL     1       0.516  -6.167   8.775  0.00  0.00    -0.277 OA
ATOM     11  N   UNL     1      -0.134  -6.463   6.608  0.00  0.00    -0.309 N 
ATOM     12  H   UNL     1      -3.310  -6.415   6.734  0.00  0.00    -0.082 HD
ATOM     13  H   UNL     1      -2.554  -7.858   7.057  0.00  0.00    -0.082 HD
ENDROOT
BRANCH   1  14
ATOM     14  C   UNL     1      -0.672  -5.902   1.942  0.00  0.00    +0.137 C 
ATOM     15  S   UNL     1      -0.692  -7.266   0.907  0.00  0.00    -0.018 S 
BRANCH  14  16
ATOM     16  N   UNL     1      -0.769  -4.662   1.423  0.00  0.00    -0.297 N 
ATOM     17  H   UNL     1      -0.692  -3.887   2.002  0.00  0.00    +0.154 HD
BRANCH  16  23
ATOM     18  C   UNL     1      -3.149  -2.410  -2.243  0.00  0.00    +0.044 C 
ATOM     19  C   UNL     1      -2.130  -3.407  -1.754  0.00  0.00    -0.049 A 
ATOM     20  C   UNL     1      -1.404  -4.155  -2.663  0.00  0.00    +0.003 A 
ATOM     21  C   UNL     1      -0.468  -5.071  -2.218  0.00  0.00    +0.002 A 
ATOM     22  C   UNL     1      -0.255  -5.241  -0.864  0.00  0.00    +0.023 A 
ATOM     23  C   UNL     1      -0.982  -4.492   0.051  0.00  0.00    +0.033 A 
ATOM     24  C   UNL     1      -1.918  -3.569  -0.399  0.00  0.00    +0.026 A 
ENDBRANCH  16  23
ENDBRANCH  14  16
ENDBRANCH   1  14
BRANCH  11  25
ATOM     25  C   UNL     1       1.180  -6.538   5.965  0.00  0.00    +0.141 C 
BRANCH  25  26
ATOM     26  C   UNL     1       1.780  -7.899   6.204  0.00  0.00    -0.026 A 
ATOM     27  C   UNL     1       2.364  -8.191   7.423  0.00  0.00    +0.009 A 
ATOM     28  C   UNL     1       2.915  -9.439   7.648  0.00  0.00    +0.050 A 
ATOM     29  C   UNL     1       2.883 -10.400   6.651  0.00  0.00    +0.166 A 
ATOM     30  C   UNL     1       2.295 -10.107   5.423  0.00  0.00    +0.167 A 
ATOM     31  C   UNL     1       1.740  -8.856   5.207  0.00  0.00    +0.054 A 
ATOM     32  O   UNL     1       2.390 -11.206   4.619  0.00  0.00    -0.453 OA
ATOM     33  C   UNL     1       3.402 -12.035   5.221  0.00  0.00    +0.466 C 
ATOM     34  O   UNL     1       3.347 -11.684   6.616  0.00  0.00    -0.453 OA
ENDBRANCH  25  26
ENDBRANCH  11  25
BRANCH   8  35
ATOM     35  C   UNL     1      -2.185  -7.130   9.400  0.00  0.00    +0.028 C 
BRANCH  35  36
ATOM     36  C   UNL     1      -3.673  -7.092   9.634  0.00  0.00    -0.048 A 
ATOM     37  C   UNL     1      -4.220  -6.115  10.444  0.00  0.00    +0.003 A 
ATOM     38  C   UNL     1      -5.585  -6.080  10.659  0.00  0.00    +0.000 A 
ATOM     39  C   UNL     1      -6.403  -7.021  10.062  0.00  0.00    +0.000 A 
ATOM     40  C   UNL     1      -5.856  -7.998   9.251  0.00  0.00    +0.000 A 
ATOM     41  C   UNL     1      -4.491  -8.030   9.033  0.00  0.00    +0.003 A 
ENDBRANCH  35  36
ENDBRANCH   8  35
TORSDOF 7
