REMARK  Name = ZINC12802585
REMARK  11 active torsions:
REMARK  status: ('A' for Active; 'I' for Inactive)
REMARK    1  A    between atoms: C_1  and  C_2
REMARK    2  A    between atoms: C_2  and  C_4
REMARK    3  A    between atoms: C_2  and  O_17
REMARK    4  A    between atoms: N_6  and  C_7
REMARK    5  A    between atoms: C_10  and  S_13
REMARK    6  A    between atoms: S_13  and  N_16
REMARK    7  A    between atoms: O_17  and  C_18
REMARK    8  A    between atoms: C_18  and  C_20
REMARK    9  A    between atoms: C_21  and  C_29
REMARK   10  A    between atoms: C_29  and  S_30
REMARK   11  A    between atoms: S_30  and  C_31
REMARK                            x       y       z     vdW  Elec       q    Type
REMARK                         _______ _______ _______ _____ _____    ______ ____
ROOT
ATOM      1  O   UNL     1       1.404   7.829   0.032  0.00  0.00    -0.447 OA
ENDROOT
BRANCH   1   3
ATOM      2  C   UNL     1       2.353   9.544   1.477  0.00  0.00    +0.062 C 
ATOM      3  C   UNL     1       2.104   9.101   0.034  0.00  0.00    +0.259 C 
BRANCH   3   4
ATOM      4  C   UNL     1       1.266  10.137  -0.671  0.00  0.00    +0.258 C 
ATOM      5  O   UNL     1       0.148   9.857  -1.050  0.00  0.00    -0.271 OA
ATOM      6  N   UNL     1       1.758  11.374  -0.880  0.00  0.00    -0.282 N 
ATOM      7  H   UNL     1       2.624  11.618  -0.519  0.00  0.00    +0.155 HD
BRANCH   6   8
ATOM      8  C   UNL     1       1.020  12.305  -1.619  0.00  0.00    +0.034 A 
ATOM      9  C   UNL     1       1.671  13.217  -2.439  0.00  0.00    +0.025 A 
ATOM     10  C   UNL     1       0.939  14.130  -3.171  0.00  0.00    +0.030 A 
ATOM     11  C   UNL     1      -0.441  14.146  -3.080  0.00  0.00    +0.105 A 
ATOM     12  C   UNL     1      -1.092  13.243  -2.259  0.00  0.00    +0.030 A 
ATOM     13  C   UNL     1      -0.366  12.323  -1.529  0.00  0.00    +0.025 A 
BRANCH  11  14
ATOM     14  S   UNL     1      -1.371  15.318  -4.010  0.00  0.00    +0.056 S 
ATOM     15  O   UNL     1      -0.561  15.693  -5.117  0.00  0.00    -0.153 OA
ATOM     16  O   UNL     1      -2.672  14.770  -4.169  0.00  0.00    -0.153 OA
BRANCH  14  17
ATOM     17  N   UNL     1      -1.538  16.669  -3.068  0.00  0.00    -0.204 NA
ATOM     18  H   UNL     1      -1.610  17.544  -3.482  0.00  0.00    +0.144 HD
ATOM     19  H   UNL     1      -1.564  16.587  -2.102  0.00  0.00    +0.144 HD
ENDBRANCH  14  17
ENDBRANCH  11  14
ENDBRANCH   6   8
ENDBRANCH   3   4
ENDBRANCH   1   3
BRANCH   1  20
ATOM     20  C   UNL     1       2.162   6.714   0.026  0.00  0.00    +0.376 C 
ATOM     21  O   UNL     1       3.375   6.803   0.023  0.00  0.00    -0.241 OA
BRANCH  20  22
ATOM     22  C   UNL     1       1.523   5.392   0.024  0.00  0.00    +0.217 A 
ATOM     23  C   UNL     1       2.183   4.204   0.018  0.00  0.00    +0.022 A 
ATOM     24  C   UNL     1       1.152   3.168   0.017  0.00  0.00    +0.025 A 
ATOM     25  C   UNL     1       1.175   1.771   0.012  0.00  0.00    +0.012 A 
ATOM     26  C   UNL     1       0.000   1.074   0.012  0.00  0.00    +0.001 A 
ATOM     27  C   UNL     1      -1.216   1.745   0.012  0.00  0.00    +0.004 A 
ATOM     28  C   UNL     1      -1.260   3.122   0.022  0.00  0.00    +0.047 A 
ATOM     29  C   UNL     1      -0.077   3.853   0.022  0.00  0.00    +0.136 A 
ATOM     30  O   UNL     1       0.192   5.173   0.026  0.00  0.00    -0.448 OA
BRANCH  23  31
ATOM     31  C   UNL     1       3.676   3.997   0.015  0.00  0.00    +0.109 C 
BRANCH  31  32
ATOM     32  S   UNL     1       4.272   3.919  -1.697  0.00  0.00    -0.153 S 
BRANCH  32  33
ATOM     33  C   UNL     1       6.061   3.670  -1.528  0.00  0.00    +0.047 C 
ATOM     34  C   UNL     1       6.687   4.901  -0.870  0.00  0.00    +0.014 C 
ATOM     35  C   UNL     1       8.196   4.691  -0.727  0.00  0.00    +0.001 C 
ATOM     36  C   UNL     1       8.815   4.482  -2.111  0.00  0.00    +0.000 C 
ATOM     37  C   UNL     1       8.188   3.251  -2.769  0.00  0.00    +0.001 C 
ATOM     38  C   UNL     1       6.680   3.461  -2.911  0.00  0.00    +0.014 C 
ENDBRANCH  32  33
ENDBRANCH  31  32
ENDBRANCH  23  31
ENDBRANCH  20  22
ENDBRANCH   1  20
TORSDOF 10
