REMARK  Name = ZINC35844879
REMARK  15 active torsions:
REMARK  status: ('A' for Active; 'I' for Inactive)
REMARK    1  A    between atoms: C_1  and  C_2
REMARK    2  A    between atoms: C_5  and  C_7
REMARK    3  A    between atoms: C_7  and  N_8
REMARK    4  A    between atoms: N_8  and  C_9
REMARK    5  A    between atoms: C_9  and  C_10
REMARK    6  A    between atoms: C_10  and  C_11
REMARK    7  A    between atoms: C_17  and  C_19
REMARK    8  A    between atoms: C_19  and  N_20
REMARK    9  A    between atoms: N_20  and  C_21
REMARK   10  A    between atoms: N_20  and  C_26
REMARK   11  A    between atoms: C_21  and  C_22
REMARK   12  A    between atoms: C_22  and  C_23
REMARK   13  A    between atoms: C_23  and  O_24
REMARK   14  A    between atoms: O_24  and  C_25
REMARK   15  A    between atoms: C_26  and  C_27
REMARK                            x       y       z     vdW  Elec       q    Type
REMARK                         _______ _______ _______ _____ _____    ______ ____
ROOT
ATOM      1  N   UNL     1       2.013  -3.564  -2.439  0.00  0.00    -0.295 N 
ATOM      2  C   UNL     1       1.155  -4.559  -2.739  0.00  0.00    +0.199 C 
ATOM      3  O   UNL     1       1.276  -5.172  -3.779  0.00  0.00    -0.278 OA
ENDROOT
BRANCH   1   4
ATOM      4  C   UNL     1       1.867  -2.825  -1.183  0.00  0.00    +0.181 C 
BRANCH   4   9
ATOM      5  C   UNL     1       0.303   1.848  -2.260  0.00  0.00    +0.086 C 
ATOM      6  C   UNL     1       0.283   0.393  -1.868  0.00  0.00    +0.102 A 
ATOM      7  C   UNL     1      -0.812  -0.322  -1.556  0.00  0.00    +0.045 A 
ATOM      8  C   UNL     1      -0.374  -1.632  -1.254  0.00  0.00    +0.046 A 
ATOM      9  C   UNL     1       0.963  -1.639  -1.401  0.00  0.00    +0.122 A 
ATOM     10  O   UNL     1       1.355  -0.411  -1.778  0.00  0.00    -0.463 OA
ENDBRANCH   4   9
ENDBRANCH   1   4
BRANCH   1  11
ATOM     11  C   UNL     1       3.092  -3.223  -3.370  0.00  0.00    +0.113 C 
BRANCH  11  12
ATOM     12  C   UNL     1       4.335  -4.050  -3.036  0.00  0.00    +0.054 C 
BRANCH  12  13
ATOM     13  C   UNL     1       5.445  -3.698  -3.993  0.00  0.00    -0.046 A 
ATOM     14  C   UNL     1       5.579  -4.393  -5.180  0.00  0.00    +0.004 A 
ATOM     15  C   UNL     1       6.597  -4.070  -6.058  0.00  0.00    +0.000 A 
ATOM     16  C   UNL     1       7.480  -3.053  -5.748  0.00  0.00    +0.000 A 
ATOM     17  C   UNL     1       7.346  -2.358  -4.561  0.00  0.00    +0.000 A 
ATOM     18  C   UNL     1       6.325  -2.678  -3.685  0.00  0.00    +0.004 A 
ENDBRANCH  12  13
ENDBRANCH  11  12
ENDBRANCH   1  11
BRANCH   2  19
ATOM     19  C   UNL     1       0.045  -4.911  -1.782  0.00  0.00    +0.019 C 
BRANCH  19  20
ATOM     20  N   UNL     1      -0.745  -6.019  -2.335  0.00  0.00    +0.388 N 
ATOM     21  H   UNL     1      -1.072  -5.772  -3.257  0.00  0.00    -0.081 HD
BRANCH  20  22
ATOM     22  C   UNL     1       0.092  -7.224  -2.419  0.00  0.00    -0.075 C 
BRANCH  22  23
ATOM     23  C   UNL     1      -0.677  -8.330  -3.144  0.00  0.00    +0.009 C 
BRANCH  23  24
ATOM     24  C   UNL     1       0.162  -9.609  -3.158  0.00  0.00    +0.157 C 
BRANCH  24  25
ATOM     25  O   UNL     1      -0.556 -10.642  -3.836  0.00  0.00    -0.383 OA
ATOM     26  C   UNL     1       0.143 -11.887  -3.905  0.00  0.00    +0.193 C 
ENDBRANCH  24  25
ENDBRANCH  23  24
ENDBRANCH  22  23
ENDBRANCH  20  22
BRANCH  20  27
ATOM     27  C   UNL     1      -1.896  -6.283  -1.462  0.00  0.00    -0.042 C 
BRANCH  27  28
ATOM     28  C   UNL     1      -2.822  -5.094  -1.478  0.00  0.00    -0.064 A 
ATOM     29  C   UNL     1      -2.733  -4.135  -0.486  0.00  0.00    +0.003 A 
ATOM     30  C   UNL     1      -3.582  -3.044  -0.501  0.00  0.00    +0.015 A 
ATOM     31  C   UNL     1      -4.520  -2.912  -1.509  0.00  0.00    +0.018 A 
ATOM     32  C   UNL     1      -4.609  -3.872  -2.501  0.00  0.00    +0.015 A 
ATOM     33  C   UNL     1      -3.756  -4.960  -2.488  0.00  0.00    +0.003 A 
ATOM     34 BR   UNL     1      -5.682  -1.420  -1.530  0.00  0.00    -0.050 Br
ENDBRANCH  27  28
ENDBRANCH  20  27
ENDBRANCH  19  20
ENDBRANCH   2  19
TORSDOF 13
