REMARK  Name = ZINC11120495
REMARK  9 active torsions:
REMARK  status: ('A' for Active; 'I' for Inactive)
REMARK    1  A    between atoms: C_1  and  C_2
REMARK    2  A    between atoms: C_2  and  C_3
REMARK    3  A    between atoms: C_2  and  C_4
REMARK    4  A    between atoms: N_19  and  C_20
REMARK    5  A    between atoms: C_20  and  C_21
REMARK    6  A    between atoms: N_23  and  C_24
REMARK    7  A    between atoms: C_27  and  O_30
REMARK    8  A    between atoms: O_30  and  C_31
REMARK    9  A    between atoms: C_31  and  C_32
REMARK                            x       y       z     vdW  Elec       q    Type
REMARK                         _______ _______ _______ _____ _____    ______ ____
ROOT
ATOM      1  C   UNL     1       5.857   6.848  -3.174  0.00  0.00    -0.044 A 
ATOM      2  C   UNL     1       4.898   5.851  -3.122  0.00  0.00    +0.006 A 
ATOM      3  C   UNL     1       4.178   5.643  -1.963  0.00  0.00    +0.025 A 
ATOM      4  C   UNL     1       4.411   6.434  -0.842  0.00  0.00    +0.060 A 
ATOM      5  C   UNL     1       5.374   7.442  -0.890  0.00  0.00    +0.007 A 
ATOM      6  C   UNL     1       6.096   7.639  -2.072  0.00  0.00    +0.014 A 
ATOM      7  C   UNL     1       5.668   8.328   0.262  0.00  0.00    +0.011 A 
ATOM      8  C   UNL     1       6.367   9.519   0.060  0.00  0.00    +0.010 A 
ATOM      9  C   UNL     1       6.641  10.345   1.130  0.00  0.00    +0.001 A 
ATOM     10  C   UNL     1       6.230  10.001   2.405  0.00  0.00    +0.002 A 
ATOM     11  C   UNL     1       5.535   8.821   2.615  0.00  0.00    +0.029 A 
ATOM     12  C   UNL     1       5.258   7.994   1.552  0.00  0.00    +0.116 A 
ATOM     13  S   UNL     1       4.370   6.489   1.786  0.00  0.00    +0.076 S 
ATOM     14  O   UNL     1       3.321   6.764   2.705  0.00  0.00    -0.150 OA
ATOM     15  O   UNL     1       5.335   5.469   2.001  0.00  0.00    -0.150 OA
ATOM     16  N   UNL     1       3.659   6.185   0.312  0.00  0.00    -0.194 N 
ENDROOT
BRANCH   1  18
ATOM     17  C   UNL     1       7.412   5.795  -4.794  0.00  0.00    +0.012 C 
ATOM     18  C   UNL     1       6.641   7.069  -4.441  0.00  0.00    +0.013 C 
ATOM     19  C   UNL     1       5.681   7.417  -5.581  0.00  0.00    +0.012 C 
ENDBRANCH   1  18
BRANCH  16  20
ATOM     20  C   UNL     1       2.287   5.678   0.225  0.00  0.00    +0.227 C 
BRANCH  20  21
ATOM     21  C   UNL     1       2.313   4.176   0.104  0.00  0.00    +0.236 C 
ATOM     22  O   UNL     1       3.373   3.587   0.091  0.00  0.00    -0.274 OA
ATOM     23  N   UNL     1       1.158   3.488   0.009  0.00  0.00    -0.284 N 
ATOM     24  H   UNL     1       0.315   3.962  -0.058  0.00  0.00    +0.155 HD
BRANCH  23  25
ATOM     25  C   UNL     1       1.176   2.087   0.008  0.00  0.00    +0.034 A 
ATOM     26  C   UNL     1       2.134   1.404   0.745  0.00  0.00    +0.027 A 
ATOM     27  C   UNL     1       2.151   0.023   0.744  0.00  0.00    +0.047 A 
ATOM     28  C   UNL     1       1.211  -0.682   0.006  0.00  0.00    +0.121 A 
ATOM     29  C   UNL     1       0.254   0.000  -0.732  0.00  0.00    +0.047 A 
ATOM     30  C   UNL     1       0.236   1.381  -0.731  0.00  0.00    +0.027 A 
BRANCH  28  31
ATOM     31  O   UNL     1       1.228  -2.041   0.005  0.00  0.00    -0.488 OA
BRANCH  31  32
ATOM     32  C   UNL     1       0.231  -2.702  -0.777  0.00  0.00    +0.256 C 
BRANCH  32  33
ATOM     33  C   UNL     1       0.405  -4.194  -0.657  0.00  0.00    +0.006 C 
ATOM     34  C   UNL     1      -0.638  -4.962  -0.460  0.00  0.00    +0.007 C 
ENDBRANCH  32  33
ENDBRANCH  31  32
ENDBRANCH  28  31
ENDBRANCH  23  25
ENDBRANCH  20  21
ENDBRANCH  16  20
TORSDOF 7
