REMARK  Name = ZINC13494462
REMARK  17 active torsions:
REMARK  status: ('A' for Active; 'I' for Inactive)
REMARK    1  A    between atoms: C_1  and  C_2
REMARK    2  A    between atoms: C_2  and  C_3
REMARK    3  A    between atoms: C_3  and  C_5
REMARK    4  A    between atoms: C_3  and  N_14
REMARK    5  A    between atoms: N_9  and  C_10
REMARK    6  A    between atoms: C_10  and  C_11
REMARK    7  A    between atoms: C_10  and  C_12
REMARK    8  A    between atoms: C_10  and  C_13
REMARK    9  A    between atoms: N_14  and  C_15
REMARK   10  A    between atoms: N_14  and  C_24
REMARK   11  A    between atoms: C_15  and  C_16
REMARK   12  A    between atoms: C_19  and  O_22
REMARK   13  A    between atoms: O_22  and  C_23
REMARK   14  A    between atoms: C_24  and  C_25
REMARK   15  A    between atoms: C_29  and  O_37
REMARK   16  A    between atoms: O_37  and  C_38
REMARK   17  A    between atoms: C_38  and  C_39
REMARK                            x       y       z     vdW  Elec       q    Type
REMARK                         _______ _______ _______ _____ _____    ______ ____
ROOT
ATOM      1  N   UNL     1       2.217   0.460  -1.664  0.00  0.00    -0.284 NA
ENDROOT
BRANCH   1   2
ATOM      2  C   UNL     1       0.904   0.145  -1.086  0.00  0.00    +0.127 C 
BRANCH   2   3
ATOM      3  C   UNL     1      -0.134   1.077  -1.658  0.00  0.00    +0.169 A 
ATOM      4  N   UNL     1      -0.206   1.503  -2.895  0.00  0.00    -0.112 NA
ATOM      5  N   UNL     1      -1.229   2.280  -2.989  0.00  0.00    -0.023 NA
ATOM      6  N   UNL     1      -1.811   2.361  -1.843  0.00  0.00    -0.043 NA
ATOM      7  N   UNL     1      -1.169   1.629  -0.998  0.00  0.00    -0.222 N 
BRANCH   7   8
ATOM      8  C   UNL     1      -1.501   1.438   0.416  0.00  0.00    +0.059 C 
ATOM      9  C   UNL     1      -0.416   2.076   1.286  0.00  0.00    +0.036 C 
ATOM     10  C   UNL     1      -2.849   2.096   0.717  0.00  0.00    +0.036 C 
ATOM     11  C   UNL     1      -1.584  -0.059   0.722  0.00  0.00    +0.036 C 
ENDBRANCH   7   8
ENDBRANCH   2   3
BRANCH   2  13
ATOM     12  C   UNL     1       1.542  -2.251  -0.778  0.00  0.00    +0.006 C 
ATOM     13  C   UNL     1       0.532  -1.300  -1.424  0.00  0.00    +0.023 C 
ENDBRANCH   2  13
ENDBRANCH   1   2
BRANCH   1  14
ATOM     14  C   UNL     1       2.428  -0.270  -2.922  0.00  0.00    +0.120 C 
BRANCH  14  15
ATOM     15  C   UNL     1       1.615   0.371  -4.017  0.00  0.00    -0.033 A 
ATOM     16  C   UNL     1       0.563  -0.319  -4.590  0.00  0.00    +0.008 A 
ATOM     17  C   UNL     1      -0.184   0.266  -5.594  0.00  0.00    +0.046 A 
ATOM     18  C   UNL     1       0.123   1.548  -6.028  0.00  0.00    +0.120 A 
ATOM     19  C   UNL     1       1.179   2.239  -5.451  0.00  0.00    +0.046 A 
ATOM     20  C   UNL     1       1.919   1.651  -4.443  0.00  0.00    +0.008 A 
BRANCH  18  21
ATOM     21  O   UNL     1      -0.609   2.126  -7.016  0.00  0.00    -0.495 OA
ATOM     22  C   UNL     1      -0.236   3.447  -7.412  0.00  0.00    +0.277 C 
ENDBRANCH  18  21
ENDBRANCH  14  15
ENDBRANCH   1  14
BRANCH   1  23
ATOM     23  C   UNL     1       3.295   0.180  -0.706  0.00  0.00    +0.126 C 
BRANCH  23  24
ATOM     24  C   UNL     1       3.293   1.232   0.373  0.00  0.00    +0.031 A 
ATOM     25  C   UNL     1       2.686   0.982   1.559  0.00  0.00    +0.020 A 
ATOM     26  C   UNL     1       2.702   2.025   2.587  0.00  0.00    +0.002 A 
ATOM     27  C   UNL     1       2.092   1.823   3.830  0.00  0.00    +0.055 A 
ATOM     28  C   UNL     1       2.127   2.827   4.776  0.00  0.00    +0.121 A 
ATOM     29  C   UNL     1       2.764   4.034   4.498  0.00  0.00    +0.047 A 
ATOM     30  C   UNL     1       3.367   4.245   3.278  0.00  0.00    +0.030 A 
ATOM     31  C   UNL     1       3.345   3.246   2.310  0.00  0.00    +0.049 A 
ATOM     32  N   UNL     1       3.944   3.438   1.082  0.00  0.00    -0.322 N 
ATOM     33  H   UNL     1       4.387   4.279   0.892  0.00  0.00    +0.169 HD
ATOM     34  C   UNL     1       3.929   2.472   0.147  0.00  0.00    +0.254 A 
ATOM     35  O   UNL     1       4.473   2.674  -0.925  0.00  0.00    -0.268 OA
BRANCH  28  36
ATOM     36  O   UNL     1       1.536   2.637   5.986  0.00  0.00    -0.492 OA
BRANCH  36  37
ATOM     37  C   UNL     1       1.607   3.716   6.920  0.00  0.00    +0.225 C 
ATOM     38  C   UNL     1       0.892   3.320   8.213  0.00  0.00    +0.048 C 
ENDBRANCH  36  37
ENDBRANCH  28  36
ENDBRANCH  23  24
ENDBRANCH   1  23
TORSDOF 11
