REMARK  Name = ZINC12989772
REMARK  11 active torsions:
REMARK  status: ('A' for Active; 'I' for Inactive)
REMARK    1  A    between atoms: C_1  and  N_57
REMARK    2  A    between atoms: C_2  and  N_57
REMARK    3  A    between atoms: C_3  and  C_5
REMARK    4  A    between atoms: C_3  and  C_25
REMARK    5  A    between atoms: C_3  and  N_57
REMARK    6  A    between atoms: C_5  and  N_6
REMARK    7  A    between atoms: C_7  and  C_9
REMARK    8  A    between atoms: C_9  and  N_10
REMARK    9  A    between atoms: N_10  and  C_11
REMARK   10  A    between atoms: N_10  and  S_12
REMARK   11  A    between atoms: S_12  and  C_15
REMARK                            x       y       z     vdW  Elec       q    Type
REMARK                         _______ _______ _______ _____ _____    ______ ____
ROOT
ATOM      1  N   UNL     1      -2.535   8.463   4.624  0.00  0.00    -0.315 N 
ATOM      2  C   UNL     1      -1.701   9.300   3.976  0.00  0.00    +0.229 C 
ATOM      3  O   UNL     1      -0.715   8.863   3.420  0.00  0.00    -0.274 OA
ATOM      4  H   UNL     1      -3.324   8.813   5.069  0.00  0.00    +0.149 HD
ENDROOT
BRANCH   1   5
ATOM      5  C   UNL     1      -2.251   7.027   4.659  0.00  0.00    +0.093 C 
BRANCH   5   6
ATOM      6  C   UNL     1      -3.278   6.325   5.550  0.00  0.00    -0.021 C 
BRANCH   6   7
ATOM      7  C   UNL     1      -3.046   4.837   5.509  0.00  0.00    -0.057 A 
ATOM      8  C   UNL     1      -3.006   4.111   6.685  0.00  0.00    +0.002 A 
ATOM      9  C   UNL     1      -2.794   2.745   6.648  0.00  0.00    +0.003 A 
ATOM     10  C   UNL     1      -2.620   2.104   5.436  0.00  0.00    +0.038 A 
ATOM     11  C   UNL     1      -2.659   2.831   4.258  0.00  0.00    +0.124 A 
ATOM     12  C   UNL     1      -2.878   4.198   4.295  0.00  0.00    +0.040 A 
ATOM     13  F   UNL     1      -2.489   2.205   3.072  0.00  0.00    -0.205 F 
ENDBRANCH   6   7
BRANCH   6  16
ATOM     14  C   UNL     1      -4.873   5.999   3.758  0.00  0.00    -0.096 C 
ATOM     15  C   UNL     1      -5.645   6.204   6.043  0.00  0.00    -0.096 C 
ATOM     16  N   UNL     1      -4.635   6.652   5.062  0.00  0.00    +0.382 N 
ATOM     17  H   UNL     1      -4.711   7.669   4.945  0.00  0.00    -0.082 HD
ENDBRANCH   6  16
ENDBRANCH   5   6
ENDBRANCH   1   5
BRANCH   2  18
ATOM     18  C   UNL     1      -1.993  10.778   3.940  0.00  0.00    +0.204 C 
BRANCH  18  19
ATOM     19  N   UNL     1      -0.945  11.464   3.180  0.00  0.00    -0.171 NA
ATOM     20  C   UNL     1       0.297  11.868   3.844  0.00  0.00    +0.132 C 
BRANCH  19  21
ATOM     21  S   UNL     1      -1.166  11.784   1.570  0.00  0.00    +0.061 S 
ATOM     22  O   UNL     1      -0.322  12.883   1.255  0.00  0.00    -0.153 OA
ATOM     23  O   UNL     1      -2.569  11.813   1.350  0.00  0.00    -0.153 OA
BRANCH  21  24
ATOM     24  C   UNL     1      -0.544  10.400   0.674  0.00  0.00    +0.106 A 
ATOM     25  C   UNL     1       0.792  10.382   0.280  0.00  0.00    +0.029 A 
ATOM     26  C   UNL     1       1.304   9.328  -0.414  0.00  0.00    +0.010 A 
ATOM     27  C   UNL     1       0.475   8.240  -0.737  0.00  0.00    -0.018 A 
ATOM     28  C   UNL     1       0.967   7.135  -1.452  0.00  0.00    +0.008 A 
ATOM     29  C   UNL     1       0.135   6.099  -1.747  0.00  0.00    +0.001 A 
ATOM     30  C   UNL     1      -1.203   6.120  -1.357  0.00  0.00    +0.001 A 
ATOM     31  C   UNL     1      -1.713   7.171  -0.659  0.00  0.00    +0.008 A 
ATOM     32  C   UNL     1      -0.884   8.259  -0.336  0.00  0.00    -0.016 A 
ATOM     33  C   UNL     1      -1.376   9.364   0.379  0.00  0.00    +0.037 A 
ENDBRANCH  21  24
ENDBRANCH  19  21
ENDBRANCH  18  19
ENDBRANCH   2  18
TORSDOF 8
