REMARK  Name = ZINC06669088
REMARK  10 active torsions:
REMARK  status: ('A' for Active; 'I' for Inactive)
REMARK    1  A    between atoms: C_1  and  C_2
REMARK    2  A    between atoms: C_2  and  N_3
REMARK    3  A    between atoms: N_3  and  C_4
REMARK    4  A    between atoms: C_4  and  C_5
REMARK    5  A    between atoms: C_10  and  S_12
REMARK    6  A    between atoms: S_12  and  C_13
REMARK    7  A    between atoms: C_13  and  C_14
REMARK    8  A    between atoms: C_22  and  O_24
REMARK    9  A    between atoms: O_24  and  C_25
REMARK   10  A    between atoms: C_25  and  C_26
REMARK                            x       y       z     vdW  Elec       q    Type
REMARK                         _______ _______ _______ _____ _____    ______ ____
ROOT
ATOM      1  C   UNL     1      -6.493   3.679   3.083  0.00  0.00    +0.173 C 
ENDROOT
BRANCH   1   2
ATOM      2  C   UNL     1      -7.369   4.254   4.166  0.00  0.00    +0.226 C 
ATOM      3  O   UNL     1      -6.881   4.598   5.222  0.00  0.00    -0.275 OA
ATOM      4  N   UNL     1      -8.695   4.386   3.962  0.00  0.00    -0.298 N 
ATOM      5  C   UNL     1      -9.299   3.980   2.685  0.00  0.00    +0.127 C 
ATOM      6  C   UNL     1     -10.424   2.973   2.979  0.00  0.00    +0.130 C 
ATOM      7  N   UNL     1     -11.290   3.532   4.027  0.00  0.00    -0.264 N 
ATOM      8  C   UNL     1     -10.685   3.944   5.301  0.00  0.00    +0.130 C 
ATOM      9  C   UNL     1      -9.561   4.945   5.009  0.00  0.00    +0.127 C 
ATOM     10  C   UNL     1     -12.616   3.665   3.822  0.00  0.00    +0.403 C 
ATOM     11  O   UNL     1     -13.322   4.128   4.696  0.00  0.00    -0.226 OA
BRANCH  10  12
ATOM     12  O   UNL     1     -13.158   3.284   2.650  0.00  0.00    -0.451 OA
BRANCH  12  13
ATOM     13  C   UNL     1     -14.592   3.455   2.500  0.00  0.00    +0.230 C 
ATOM     14  C   UNL     1     -15.021   2.971   1.114  0.00  0.00    +0.048 C 
ENDBRANCH  12  13
ENDBRANCH  10  12
ENDBRANCH   1   2
BRANCH   1  15
ATOM     15  S   UNL     1      -4.777   3.631   3.656  0.00  0.00    -0.077 S 
BRANCH  15  21
ATOM     16  N   UNL     1      -0.704   1.998   1.216  0.00  0.00    -0.316 N 
ATOM     17  C   UNL     1      -2.073   2.211   1.196  0.00  0.00    +0.127 A 
ATOM     18  C   UNL     1      -2.824   1.885   0.064  0.00  0.00    +0.083 A 
ATOM     19  C   UNL     1      -4.188   2.110   0.091  0.00  0.00    +0.135 A 
ATOM     20  N   UNL     1      -4.738   2.634   1.178  0.00  0.00    -0.210 NA
ATOM     21  C   UNL     1      -3.999   2.938   2.235  0.00  0.00    +0.192 A 
ATOM     22  N   UNL     1      -2.690   2.732   2.251  0.00  0.00    -0.207 NA
ATOM     23 CL   UNL     1      -5.169   1.717  -1.286  0.00  0.00    -0.062 Cl
BRANCH  16  25
ATOM     24  C   UNL     1       0.002  -0.004   0.002  0.00  0.00    +0.024 C 
ATOM     25  C   UNL     1      -0.019   1.526   0.010  0.00  0.00    +0.103 C 
ENDBRANCH  16  25
BRANCH  16  26
ATOM     26  C   UNL     1       0.057   2.246   2.442  0.00  0.00    +0.103 C 
ATOM     27  C   UNL     1       0.541   3.698   2.458  0.00  0.00    +0.024 C 
ENDBRANCH  16  26
ENDBRANCH  15  21
ENDBRANCH   1  15
TORSDOF 7
