REMARK  Name = ZINC40111239
REMARK  4 active torsions:
REMARK  status: ('A' for Active; 'I' for Inactive)
REMARK    1  A    between atoms: C_1  and  C_2
REMARK    2  A    between atoms: C_2  and  C_9
REMARK    3  A    between atoms: C_13  and  N_15
REMARK    4  A    between atoms: C_16  and  C_18
REMARK                            x       y       z     vdW  Elec       q    Type
REMARK                         _______ _______ _______ _____ _____    ______ ____
ROOT
ATOM      1  C   UNL     1      -1.826  -0.110   0.435  0.00  0.00    -0.014 A 
ATOM      2  C   UNL     1      -1.846  -1.386   0.967  0.00  0.00    +0.006 A 
ATOM      3  C   UNL     1      -2.703  -2.341   0.451  0.00  0.00    +0.002 A 
ATOM      4  C   UNL     1      -3.543  -2.021  -0.598  0.00  0.00    +0.023 A 
ATOM      5  C   UNL     1      -3.527  -0.740  -1.134  0.00  0.00    +0.034 A 
ATOM      6  C   UNL     1      -2.668   0.217  -0.610  0.00  0.00    +0.029 A 
ENDROOT
BRANCH   1   8
ATOM      7  C   UNL     1      -1.677   2.130   1.528  0.00  0.00    +0.047 C 
ATOM      8  C   UNL     1      -0.891   0.927   1.001  0.00  0.00    +0.135 C 
ATOM      9  C   UNL     1       0.119   1.365  -0.042  0.00  0.00    +0.248 C 
ATOM     10  O   UNL     1      -0.112   1.902  -1.104  0.00  0.00    -0.273 OA
ATOM     11  N   UNL     1       1.326   1.034   0.458  0.00  0.00    -0.238 N 
ATOM     12  C   UNL     1       1.220   0.454   1.659  0.00  0.00    +0.307 C 
ATOM     13  O   UNL     1       2.172   0.068   2.309  0.00  0.00    -0.252 OA
ATOM     14  N   UNL     1      -0.057   0.346   2.067  0.00  0.00    -0.282 N 
ATOM     15  H   UNL     1       2.167   1.196   0.003  0.00  0.00    +0.159 HD
ATOM     16  H   UNL     1      -0.368  -0.039   2.901  0.00  0.00    +0.152 HD
ENDBRANCH   1   8
BRANCH   5  17
ATOM     17  N   UNL     1      -4.376  -0.414  -2.196  0.00  0.00    -0.281 N 
ATOM     18  C   UNL     1      -5.594  -0.984  -2.284  0.00  0.00    +0.255 C 
ATOM     19  O   UNL     1      -5.994  -1.708  -1.391  0.00  0.00    -0.269 OA
ATOM     20  H   UNL     1      -4.088   0.223  -2.869  0.00  0.00    +0.155 HD
BRANCH  18  21
ATOM     21  C   UNL     1      -6.438  -0.732  -3.455  0.00  0.00    +0.075 A 
ATOM     22  C   UNL     1      -7.701  -1.204  -3.737  0.00  0.00    +0.024 A 
ATOM     23  C   UNL     1      -8.266  -0.818  -4.957  0.00  0.00    -0.036 A 
ATOM     24  C   UNL     1      -7.508  -0.051  -5.764  0.00  0.00    -0.006 A 
ATOM     25  S   UNL     1      -6.106   0.273  -4.887  0.00  0.00    -0.088 S 
ATOM     26  C   UNL     1      -7.691   0.422  -7.185  0.00  0.00    +0.043 C 
ATOM     27  C   UNL     1      -8.987  -0.096  -7.808  0.00  0.00    +0.005 C 
ATOM     28  C   UNL     1     -10.178   0.728  -7.348  0.00  0.00    +0.000 C 
ATOM     29  C   UNL     1     -10.080   1.147  -5.895  0.00  0.00    +0.000 C 
ATOM     30  C   UNL     1     -10.610  -0.023  -5.059  0.00  0.00    +0.005 C 
ATOM     31  C   UNL     1      -9.698  -1.232  -5.263  0.00  0.00    +0.036 C 
ENDBRANCH  18  21
ENDBRANCH   5  17
TORSDOF 3
