REMARK  Name = ZINC23258792
REMARK  6 active torsions:
REMARK  status: ('A' for Active; 'I' for Inactive)
REMARK    1  A    between atoms: C_1  and  C_2
REMARK    2  A    between atoms: C_10  and  C_11
REMARK    3  A    between atoms: N_13  and  C_14
REMARK    4  A    between atoms: C_14  and  C_15
REMARK    5  A    between atoms: C_15  and  N_16
REMARK    6  A    between atoms: C_20  and  C_21
REMARK                            x       y       z     vdW  Elec       q    Type
REMARK                         _______ _______ _______ _____ _____    ______ ____
ROOT
ATOM      1  C   UNL     1      -0.916   2.624  -0.302  0.00  0.00    +0.124 C 
ENDROOT
BRANCH   1   4
ATOM      2  C   UNL     1       0.248   4.754  -0.510  0.00  0.00    +0.280 C 
ATOM      3  O   UNL     1      -0.832   5.300  -0.631  0.00  0.00    -0.267 OA
ATOM      4  N   UNL     1       0.314   3.419  -0.341  0.00  0.00    -0.307 N 
ATOM      5  H   UNL     1       1.291   2.926  -0.231  0.00  0.00    +0.149 HD
BRANCH   2  15
ATOM      6  C   UNL     1       0.373   7.839  -0.887  0.00  0.00    +0.048 C 
ATOM      7  C   UNL     1       1.538   6.899  -0.713  0.00  0.00    +0.008 A 
ATOM      8  C   UNL     1       2.957   7.252  -0.687  0.00  0.00    +0.027 A 
ATOM      9  C   UNL     1       3.664   8.452  -0.801  0.00  0.00    +0.012 A 
ATOM     10  C   UNL     1       5.028   8.445  -0.732  0.00  0.00    +0.004 A 
ATOM     11  C   UNL     1       5.717   7.253  -0.550  0.00  0.00    +0.042 A 
ATOM     12  C   UNL     1       5.039   6.057  -0.435  0.00  0.00    +0.166 A 
ATOM     13  C   UNL     1       3.648   6.041  -0.502  0.00  0.00    +0.171 A 
ATOM     14  O   UNL     1       2.731   5.057  -0.419  0.00  0.00    -0.447 OA
ATOM     15  C   UNL     1       1.482   5.552  -0.548  0.00  0.00    +0.193 A 
ATOM     16  F   UNL     1       5.722   4.905  -0.257  0.00  0.00    -0.202 F 
ENDBRANCH   2  15
ENDBRANCH   1   4
BRANCH   1  17
ATOM     17  C   UNL     1      -0.564   1.149  -0.101  0.00  0.00    +0.136 C 
BRANCH  17  18
ATOM     18  N   UNL     1      -1.794   0.354  -0.063  0.00  0.00    -0.227 N 
ATOM     19  C   UNL     1      -2.280  -0.139  -1.190  0.00  0.00    +0.260 C 
ATOM     20  O   UNL     1      -1.732   0.051  -2.260  0.00  0.00    -0.269 OA
ATOM     21  C   UNL     1      -3.522  -0.931  -1.084  0.00  0.00    +0.080 C 
ATOM     22  C   UNL     1      -4.239  -1.550  -2.056  0.00  0.00    +0.031 C 
ATOM     23  S   UNL     1      -3.821  -0.851   0.676  0.00  0.00    -0.026 S 
ATOM     24  C   UNL     1      -2.402   0.137   1.121  0.00  0.00    +0.286 C 
ATOM     25  O   UNL     1      -2.065   0.522   2.224  0.00  0.00    -0.262 OA
BRANCH  22  26
ATOM     26  C   UNL     1      -5.541  -2.152  -1.738  0.00  0.00    +0.011 A 
ATOM     27  C   UNL     1      -6.223  -1.779  -0.574  0.00  0.00    +0.011 A 
ATOM     28  C   UNL     1      -7.446  -2.344  -0.286  0.00  0.00    +0.001 A 
ATOM     29  C   UNL     1      -7.998  -3.286  -1.138  0.00  0.00    +0.003 A 
ATOM     30  C   UNL     1      -7.330  -3.666  -2.288  0.00  0.00    +0.039 A 
ATOM     31  C   UNL     1      -6.105  -3.106  -2.596  0.00  0.00    +0.131 A 
ATOM     32  F   UNL     1      -5.452  -3.478  -3.719  0.00  0.00    -0.205 F 
ENDBRANCH  22  26
ENDBRANCH  17  18
ENDBRANCH   1  17
TORSDOF 5
