REMARK  Name = ZINC36016915
REMARK  12 active torsions:
REMARK  status: ('A' for Active; 'I' for Inactive)
REMARK    1  A    between atoms: C_1  and  C_2
REMARK    2  A    between atoms: C_2  and  O_3
REMARK    3  A    between atoms: O_3  and  C_4
REMARK    4  A    between atoms: C_4  and  C_6
REMARK    5  A    between atoms: C_7  and  C_22
REMARK    6  A    between atoms: N_8  and  C_19
REMARK    7  A    between atoms: C_12  and  C_14
REMARK    8  A    between atoms: C_19  and  C_20
REMARK    9  A    between atoms: C_22  and  N_23
REMARK   10  A    between atoms: N_32  and  C_33
REMARK   11  A    between atoms: C_33  and  C_34
REMARK   12  A    between atoms: C_33  and  C_35
REMARK                            x       y       z     vdW  Elec       q    Type
REMARK                         _______ _______ _______ _____ _____    ______ ____
ROOT
ATOM      1  C   UNL     1       1.339  -4.482   3.690  0.00  0.00    +0.076 C 
ATOM      2  C   UNL     1       1.532  -3.981   2.451  0.00  0.00    +0.011 C 
ATOM      3  N   UNL     1       2.112  -2.758   2.268  0.00  0.00    -0.257 N 
ATOM      4  C   UNL     1       2.526  -1.975   3.272  0.00  0.00    +0.307 C 
ATOM      5  O   UNL     1       3.031  -0.901   3.010  0.00  0.00    -0.252 OA
ATOM      6  N   UNL     1       2.401  -2.338   4.564  0.00  0.00    -0.288 N 
ATOM      7  C   UNL     1       1.782  -3.639   4.869  0.00  0.00    +0.144 C 
ATOM      8  H   UNL     1       2.708  -1.756   5.275  0.00  0.00    +0.151 HD
ENDROOT
BRANCH   7   9
ATOM      9  C   UNL     1       0.578  -3.393   5.742  0.00  0.00    -0.015 A 
ATOM     10  C   UNL     1       0.379  -4.139   6.888  0.00  0.00    +0.013 A 
ATOM     11  C   UNL     1      -0.714  -3.892   7.651  0.00  0.00    +0.045 A 
ATOM     12  S   UNL     1      -1.504  -2.570   6.748  0.00  0.00    -0.105 S 
ATOM     13  C   UNL     1      -0.322  -2.432   5.418  0.00  0.00    +0.051 A 
ENDBRANCH   7   9
BRANCH   1  14
ATOM     14  C   UNL     1       0.739  -5.749   3.881  0.00  0.00    +0.339 C 
ATOM     15  O   UNL     1       0.286  -6.358   2.930  0.00  0.00    -0.245 OA
BRANCH  14  16
ATOM     16  O   UNL     1       0.667  -6.282   5.119  0.00  0.00    -0.462 OA
BRANCH  16  18
ATOM     17  C   UNL     1       0.059  -8.001   6.705  0.00  0.00    +0.048 C 
ATOM     18  C   UNL     1       0.047  -7.564   5.239  0.00  0.00    +0.229 C 
ENDBRANCH  16  18
ENDBRANCH  14  16
ENDBRANCH   1  14
BRANCH   3  19
ATOM     19  C   UNL     1       2.291  -2.276   0.896  0.00  0.00    +0.141 C 
BRANCH  19  20
ATOM     20  C   UNL     1       1.119  -1.410   0.511  0.00  0.00    -0.015 C 
ATOM     21  C   UNL     1       1.321  -0.186   0.089  0.00  0.00    +0.005 C 
ENDBRANCH  19  20
ENDBRANCH   3  19
BRANCH   2  22
ATOM     22  C   UNL     1       1.102  -4.785   1.251  0.00  0.00    -0.026 C 
BRANCH  22  23
ATOM     23  N   UNL     1       2.239  -5.571   0.755  0.00  0.00    +0.384 N 
ATOM     24  C   UNL     1       1.879  -6.132  -0.545  0.00  0.00    -0.077 C 
ATOM     25  C   UNL     1       3.129  -6.299  -1.381  0.00  0.00    +0.000 C 
ATOM     26  C   UNL     1       3.680  -7.725  -1.201  0.00  0.00    +0.107 C 
ATOM     27  N   UNL     1       3.567  -8.164   0.205  0.00  0.00    -0.287 N 
ATOM     28  C   UNL     1       3.863  -7.286   1.317  0.00  0.00    +0.091 C 
ATOM     29  C   UNL     1       2.586  -6.523   1.739  0.00  0.00    -0.059 C 
ATOM     30  C   UNL     1       3.173  -9.428   0.461  0.00  0.00    +0.302 C 
ATOM     31  O   UNL     1       3.005 -10.210  -0.455  0.00  0.00    -0.253 OA
ATOM     32  N   UNL     1       2.966  -9.824   1.732  0.00  0.00    -0.297 N 
ATOM     33  H   UNL     1       3.029  -9.182   2.457  0.00  0.00    +0.150 HD
ATOM     34  H   UNL     1       3.022  -4.948   0.624  0.00  0.00    -0.081 HD
BRANCH  32  35
ATOM     35  C   UNL     1       2.645 -11.224   2.020  0.00  0.00    +0.068 C 
ATOM     36  C   UNL     1       3.940 -12.031   2.135  0.00  0.00    +0.027 C 
ATOM     37  C   UNL     1       1.872 -11.310   3.337  0.00  0.00    +0.027 C 
ENDBRANCH  32  35
ENDBRANCH  22  23
ENDBRANCH   2  22
TORSDOF 9
