REMARK  Name = ZINC36063531
REMARK  10 active torsions:
REMARK  status: ('A' for Active; 'I' for Inactive)
REMARK    1  A    between atoms: C_1  and  C_2
REMARK    2  A    between atoms: C_5  and  C_37
REMARK    3  A    between atoms: C_6  and  C_8
REMARK    4  A    between atoms: C_10  and  C_27
REMARK    5  A    between atoms: C_11  and  C_26
REMARK    6  A    between atoms: C_15  and  C_18
REMARK    7  A    between atoms: C_19  and  N_21
REMARK    8  A    between atoms: C_27  and  O_29
REMARK    9  A    between atoms: O_29  and  C_30
REMARK   10  A    between atoms: C_30  and  C_31
REMARK                            x       y       z     vdW  Elec       q    Type
REMARK                         _______ _______ _______ _____ _____    ______ ____
ROOT
ATOM      1  C   UNL     1       0.055  -2.853   2.684  0.00  0.00    +0.150 C 
ATOM      2  C   UNL     1      -1.274  -3.517   2.966  0.00  0.00    +0.083 C 
ATOM      3  C   UNL     1      -1.954  -3.138   4.108  0.00  0.00    +0.053 C 
ATOM      4  N   UNL     1      -1.447  -2.223   4.917  0.00  0.00    -0.230 NA
ATOM      5  C   UNL     1      -0.297  -1.607   4.730  0.00  0.00    +0.166 C 
ATOM      6  N   UNL     1       0.526  -1.838   3.664  0.00  0.00    -0.267 N 
ATOM      7  C   UNL     1       1.698  -1.111   3.609  0.00  0.00    +0.048 C 
ATOM      8  C   UNL     1       1.938  -0.233   4.608  0.00  0.00    +0.072 C 
ATOM      9  S   UNL     1       0.497  -0.437   5.633  0.00  0.00    -0.060 S 
ATOM     10  C   UNL     1      -3.282  -3.772   4.433  0.00  0.00    +0.066 C 
ENDROOT
BRANCH   1  16
ATOM     11  C   UNL     1      -1.693   0.825  -0.224  0.00  0.00    +0.044 C 
ATOM     12  C   UNL     1      -0.873  -0.428  -0.056  0.00  0.00    -0.050 A 
ATOM     13  C   UNL     1      -0.205  -0.967  -1.140  0.00  0.00    +0.003 A 
ATOM     14  C   UNL     1       0.547  -2.116  -0.986  0.00  0.00    +0.004 A 
ATOM     15  C   UNL     1       0.631  -2.727   0.252  0.00  0.00    -0.045 A 
ATOM     16  C   UNL     1      -0.036  -2.187   1.335  0.00  0.00    -0.019 A 
ATOM     17  C   UNL     1      -0.785  -1.035   1.182  0.00  0.00    +0.009 A 
ATOM     18  C   UNL     1       1.451  -3.980   0.419  0.00  0.00    +0.044 C 
ENDBRANCH   1  16
BRANCH   7  19
ATOM     19  C   UNL     1       2.651  -1.285   2.504  0.00  0.00    +0.091 C 
ATOM     20  C   UNL     1       3.837  -0.647   2.530  0.00  0.00    +0.241 C 
ATOM     21  O   UNL     1       4.198   0.067   3.624  0.00  0.00    -0.271 OA
BRANCH  20  22
ATOM     22  N   UNL     1       4.687  -0.721   1.440  0.00  0.00    -0.298 N 
ATOM     23  C   UNL     1       4.419  -1.451   0.193  0.00  0.00    +0.108 C 
ATOM     24  C   UNL     1       5.653  -1.272  -0.718  0.00  0.00    +0.020 C 
ATOM     25  C   UNL     1       6.780  -0.922   0.290  0.00  0.00    +0.020 C 
ATOM     26  C   UNL     1       6.008  -0.075   1.335  0.00  0.00    +0.108 C 
ENDBRANCH  20  22
ENDBRANCH   7  19
BRANCH   2  27
ATOM     27  C   UNL     1      -1.798  -4.484   2.099  0.00  0.00    +0.339 C 
ATOM     28  O   UNL     1      -2.909  -4.943   2.299  0.00  0.00    -0.245 OA
BRANCH  27  29
ATOM     29  O   UNL     1      -1.072  -4.907   1.041  0.00  0.00    -0.457 OA
BRANCH  29  30
ATOM     30  C   UNL     1      -1.709  -5.813   0.138  0.00  0.00    +0.268 C 
BRANCH  30  31
ATOM     31  C   UNL     1      -0.717  -6.267  -0.901  0.00  0.00    -0.010 A 
ATOM     32  C   UNL     1      -0.497  -5.499  -2.029  0.00  0.00    +0.007 A 
ATOM     33  C   UNL     1       0.414  -5.916  -2.982  0.00  0.00    +0.000 A 
ATOM     34  C   UNL     1       1.104  -7.101  -2.807  0.00  0.00    +0.000 A 
ATOM     35  C   UNL     1       0.885  -7.868  -1.679  0.00  0.00    +0.000 A 
ATOM     36  C   UNL     1      -0.022  -7.449  -0.724  0.00  0.00    +0.007 A 
ENDBRANCH  30  31
ENDBRANCH  29  30
ENDBRANCH  27  29
ENDBRANCH   2  27
TORSDOF 7
