REMARK  Name = ZINC38632712
REMARK  10 active torsions:
REMARK  status: ('A' for Active; 'I' for Inactive)
REMARK    1  A    between atoms: C_1  and  C_2
REMARK    2  A    between atoms: C_2  and  O_3
REMARK    3  A    between atoms: O_3  and  C_4
REMARK    4  A    between atoms: C_7  and  S_11
REMARK    5  A    between atoms: C_9  and  C_10
REMARK    6  A    between atoms: S_11  and  N_14
REMARK    7  A    between atoms: N_14  and  C_15
REMARK    8  A    between atoms: C_15  and  C_16
REMARK    9  A    between atoms: C_16  and  C_18
REMARK   10  A    between atoms: C_16  and  N_23
REMARK                            x       y       z     vdW  Elec       q    Type
REMARK                         _______ _______ _______ _____ _____    ______ ____
ROOT
ATOM      1  C   UNL     1      -3.125  -6.416   2.439  0.00  0.00    +0.132 C 
ENDROOT
BRANCH   1   2
ATOM      2  N   UNL     1      -1.932  -6.789   1.677  0.00  0.00    -0.188 NA
ATOM      3  H   UNL     1      -1.266  -7.372   2.073  0.00  0.00    +0.148 HD
BRANCH   2   4
ATOM      4  S   UNL     1      -1.720  -6.217   0.137  0.00  0.00    +0.058 S 
ATOM      5  O   UNL     1      -2.939  -6.451  -0.555  0.00  0.00    -0.153 OA
ATOM      6  O   UNL     1      -0.475  -6.728  -0.319  0.00  0.00    -0.153 OA
BRANCH   4  10
ATOM      7  C   UNL     1      -1.245  -1.723   0.434  0.00  0.00    +0.123 A 
ATOM      8  C   UNL     1      -0.130  -2.546   0.502  0.00  0.00    +0.048 A 
ATOM      9  C   UNL     1      -0.277  -3.916   0.411  0.00  0.00    +0.032 A 
ATOM     10  C   UNL     1      -1.535  -4.468   0.253  0.00  0.00    +0.106 A 
ATOM     11  C   UNL     1      -2.648  -3.651   0.184  0.00  0.00    +0.035 A 
ATOM     12  C   UNL     1      -2.506  -2.280   0.280  0.00  0.00    -0.007 A 
ATOM     13  C   UNL     1      -3.720  -1.389   0.211  0.00  0.00    +0.047 C 
BRANCH   7  14
ATOM     14  O   UNL     1      -1.102  -0.374   0.523  0.00  0.00    -0.492 OA
BRANCH  14  16
ATOM     15  C   UNL     1       0.187   1.656   0.763  0.00  0.00    +0.048 C 
ATOM     16  C   UNL     1       0.226   0.128   0.681  0.00  0.00    +0.225 C 
ENDBRANCH  14  16
ENDBRANCH   7  14
ENDBRANCH   4  10
ENDBRANCH   2   4
ENDBRANCH   1   2
BRANCH   1  17
ATOM     17  C   UNL     1      -3.283  -7.358   3.634  0.00  0.00    +0.139 C 
BRANCH  17  18
ATOM     18  N   UNL     1      -3.291  -8.749   3.163  0.00  0.00    -0.287 NA
ATOM     19  C   UNL     1      -4.393  -8.979   2.215  0.00  0.00    +0.090 C 
ATOM     20  C   UNL     1      -4.141 -10.300   1.488  0.00  0.00    +0.051 C 
ATOM     21  C   UNL     1      -3.849 -11.389   2.488  0.00  0.00    -0.042 A 
ATOM     22  C   UNL     1      -3.946 -12.710   2.075  0.00  0.00    +0.004 A 
ATOM     23  C   UNL     1      -3.684 -13.738   2.958  0.00  0.00    +0.000 A 
ATOM     24  C   UNL     1      -3.322 -13.450   4.261  0.00  0.00    +0.000 A 
ATOM     25  C   UNL     1      -3.226 -12.136   4.673  0.00  0.00    +0.005 A 
ATOM     26  C   UNL     1      -3.492 -11.102   3.788  0.00  0.00    -0.030 A 
ATOM     27  C   UNL     1      -3.385  -9.685   4.288  0.00  0.00    +0.120 C 
ENDBRANCH  17  18
BRANCH  17  28
ATOM     28  C   UNL     1      -4.580  -7.060   4.342  0.00  0.00    +0.123 A 
ATOM     29  C   UNL     1      -4.715  -6.326   5.461  0.00  0.00    +0.046 A 
ATOM     30  C   UNL     1      -6.093  -6.305   5.773  0.00  0.00    +0.041 A 
ATOM     31  C   UNL     1      -6.718  -7.027   4.826  0.00  0.00    +0.195 A 
ATOM     32  O   UNL     1      -5.797  -7.477   3.959  0.00  0.00    -0.466 OA
ENDBRANCH  17  28
ENDBRANCH   1  17
TORSDOF 8
