REMARK  Name = ZINC05156726
REMARK  4 active torsions:
REMARK  status: ('A' for Active; 'I' for Inactive)
REMARK    1  A    between atoms: C_1  and  C_2
REMARK    2  A    between atoms: C_2  and  C_4
REMARK    3  A    between atoms: C_2  and  N_10
REMARK    4  A    between atoms: C_13  and  C_16
REMARK                            x       y       z     vdW  Elec       q    Type
REMARK                         _______ _______ _______ _____ _____    ______ ____
ROOT
ATOM      1  N   UNL     1       0.711  -0.489   1.189  0.00  0.00    -0.317 N 
ATOM      2  C   UNL     1       0.033  -0.637   2.388  0.00  0.00    +0.159 A 
ATOM      3  N   UNL     1       0.486  -1.050   3.558  0.00  0.00    -0.225 NA
ATOM      4  C   UNL     1      -0.317  -1.131   4.617  0.00  0.00    +0.080 A 
ATOM      5  C   UNL     1      -1.631  -0.781   4.488  0.00  0.00    +0.076 A 
ATOM      6  S   UNL     1      -1.684  -0.314   2.763  0.00  0.00    -0.060 S 
ATOM      7  H   UNL     1       1.654  -0.707   1.135  0.00  0.00    +0.149 HD
ENDROOT
BRANCH   4   8
ATOM      8  C   UNL     1       0.210  -1.597   5.923  0.00  0.00    +0.003 A 
ATOM      9  C   UNL     1      -0.638  -1.685   7.026  0.00  0.00    +0.014 A 
ATOM     10  C   UNL     1      -0.149  -2.119   8.242  0.00  0.00    +0.048 A 
ATOM     11  C   UNL     1       1.185  -2.468   8.369  0.00  0.00    +0.142 A 
ATOM     12  C   UNL     1       2.038  -2.381   7.269  0.00  0.00    +0.076 A 
ATOM     13  C   UNL     1       1.552  -1.952   6.047  0.00  0.00    +0.037 A 
ATOM     14  N   UNL     1       3.386  -2.737   7.417  0.00  0.00    -0.280 N 
ATOM     15  C   UNL     1       3.761  -3.445   8.505  0.00  0.00    +0.255 C 
ATOM     16  O   UNL     1       4.927  -3.738   8.669  0.00  0.00    -0.272 OA
ATOM     17  C   UNL     1       2.725  -3.869   9.514  0.00  0.00    +0.325 C 
ATOM     18  O   UNL     1       1.676  -2.898   9.563  0.00  0.00    -0.481 OA
ATOM     19  H   UNL     1       4.040  -2.479   6.748  0.00  0.00    +0.155 HD
ENDBRANCH   4   8
BRANCH   1  21
ATOM     20  C   UNL     1      -0.019   1.526   0.010  0.00  0.00    +0.033 C 
ATOM     21  C   UNL     1       0.002  -0.004   0.002  0.00  0.00    +0.099 C 
BRANCH  21  22
ATOM     22  C   UNL     1       0.707  -0.490  -1.238  0.00  0.00    -0.028 A 
ATOM     23  C   UNL     1       2.089  -0.511  -1.284  0.00  0.00    +0.005 A 
ATOM     24  C   UNL     1       2.736  -0.957  -2.421  0.00  0.00    +0.000 A 
ATOM     25  C   UNL     1       2.002  -1.382  -3.512  0.00  0.00    +0.000 A 
ATOM     26  C   UNL     1       0.620  -1.362  -3.466  0.00  0.00    +0.000 A 
ATOM     27  C   UNL     1      -0.027  -0.920  -2.327  0.00  0.00    +0.005 A 
ENDBRANCH  21  22
ENDBRANCH   1  21
TORSDOF 3
