REMARK  Name = ZINC09049820
REMARK  17 active torsions:
REMARK  status: ('A' for Active; 'I' for Inactive)
REMARK    1  A    between atoms: C_1  and  C_2
REMARK    2  A    between atoms: C_2  and  C_3
REMARK    3  A    between atoms: C_3  and  C_5
REMARK    4  A    between atoms: C_3  and  N_66
REMARK    5  A    between atoms: C_8  and  S_17
REMARK    6  A    between atoms: N_9  and  C_10
REMARK    7  A    between atoms: C_10  and  C_11
REMARK    8  A    between atoms: S_17  and  C_18
REMARK    9  A    between atoms: C_18  and  C_20
REMARK   10  A    between atoms: C_18  and  C_21
REMARK   11  A    between atoms: C_21  and  C_23
REMARK   12  A    between atoms: C_24  and  C_33
REMARK   13  A    between atoms: C_25  and  C_30
REMARK   14  A    between atoms: C_26  and  C_29
REMARK   15  A    between atoms: C_30  and  C_32
REMARK   16  A    between atoms: C_34  and  N_66
REMARK   17  A    between atoms: C_35  and  N_66
REMARK                            x       y       z     vdW  Elec       q    Type
REMARK                         _______ _______ _______ _____ _____    ______ ____
ROOT
ATOM      1  C   UNL     1       4.176   1.640   8.269  0.00  0.00    +0.121 A 
ATOM      2  N   UNL     1       3.149   2.424   8.096  0.00  0.00    -0.135 NA
ATOM      3  N   UNL     1       2.525   2.103   7.019  0.00  0.00    -0.123 NA
ATOM      4  C   UNL     1       3.125   1.088   6.442  0.00  0.00    +0.193 A 
ATOM      5  N   UNL     1       4.194   0.757   7.225  0.00  0.00    -0.303 N 
ENDROOT
BRANCH   1   6
ATOM      6  C   UNL     1       5.157   1.692   9.412  0.00  0.00    +0.000 C 
BRANCH   6   9
ATOM      7  C   UNL     1       3.384   2.571  10.806  0.00  0.00    -0.096 C 
ATOM      8  C   UNL     1       3.879   0.202  10.828  0.00  0.00    -0.096 C 
ATOM      9  N   UNL     1       4.454   1.557  10.705  0.00  0.00    +0.383 N 
ATOM     10  H   UNL     1       5.127   1.705  11.467  0.00  0.00    -0.082 HD
ENDBRANCH   6   9
BRANCH   6  12
ATOM     11  C   UNL     1       6.942   3.057  10.504  0.00  0.00    +0.002 C 
ATOM     12  C   UNL     1       5.896   3.032   9.388  0.00  0.00    -0.011 C 
ENDBRANCH   6  12
ENDBRANCH   1   6
BRANCH   5  13
ATOM     13  C   UNL     1       5.161  -0.318   6.993  0.00  0.00    +0.160 C 
BRANCH  13  14
ATOM     14  C   UNL     1       6.312   0.209   6.175  0.00  0.00    -0.028 A 
ATOM     15  C   UNL     1       6.266   0.144   4.795  0.00  0.00    +0.005 A 
ATOM     16  C   UNL     1       7.319   0.633   4.044  0.00  0.00    +0.000 A 
ATOM     17  C   UNL     1       8.423   1.176   4.674  0.00  0.00    +0.000 A 
ATOM     18  C   UNL     1       8.472   1.236   6.055  0.00  0.00    +0.000 A 
ATOM     19  C   UNL     1       7.416   0.752   6.805  0.00  0.00    +0.005 A 
ENDBRANCH  13  14
ENDBRANCH   5  13
BRANCH   4  20
ATOM     20  S   UNL     1       2.639   0.298   4.944  0.00  0.00    -0.075 S 
BRANCH  20  21
ATOM     21  C   UNL     1       1.176   1.280   4.531  0.00  0.00    +0.124 C 
ATOM     22  C   UNL     1       1.596   2.721   4.236  0.00  0.00    +0.028 C 
BRANCH  21  23
ATOM     23  C   UNL     1       0.504   0.694   3.316  0.00  0.00    +0.192 C 
ATOM     24  O   UNL     1       1.148   0.037   2.524  0.00  0.00    -0.289 OA
BRANCH  23  25
ATOM     25  C   UNL     1      -0.879   0.909   3.099  0.00  0.00    +0.087 A 
ATOM     26  C   UNL     1      -1.613   0.433   2.036  0.00  0.00    -0.012 A 
ATOM     27  C   UNL     1      -2.938   0.890   2.218  0.00  0.00    +0.041 A 
ATOM     28  C   UNL     1      -2.959   1.621   3.396  0.00  0.00    +0.024 A 
ATOM     29  N   UNL     1      -1.724   1.632   3.916  0.00  0.00    -0.355 N 
ATOM     30  H   UNL     1      -1.465   2.078   4.737  0.00  0.00    +0.166 HD
ATOM     31  C   UNL     1      -4.168   2.298   3.990  0.00  0.00    +0.064 C 
ATOM     32  C   UNL     1      -1.101  -0.408   0.894  0.00  0.00    +0.047 C 
BRANCH  27  33
ATOM     33  C   UNL     1      -4.078   0.636   1.330  0.00  0.00    +0.162 C 
ATOM     34  O   UNL     1      -4.821  -0.298   1.549  0.00  0.00    -0.292 OA
ATOM     35  C   UNL     1      -4.324   1.534   0.145  0.00  0.00    +0.091 C 
ENDBRANCH  27  33
ENDBRANCH  23  25
ENDBRANCH  21  23
ENDBRANCH  20  21
ENDBRANCH   4  20
TORSDOF 10
