REMARK  Name = ZINC41586672
REMARK  10 active torsions:
REMARK  status: ('A' for Active; 'I' for Inactive)
REMARK    1  A    between atoms: C_1  and  C_2
REMARK    2  A    between atoms: C_2  and  O_3
REMARK    3  A    between atoms: O_3  and  C_4
REMARK    4  A    between atoms: C_4  and  C_6
REMARK    5  A    between atoms: N_11  and  C_13
REMARK    6  A    between atoms: C_13  and  C_14
REMARK    7  A    between atoms: C_15  and  O_34
REMARK    8  A    between atoms: C_21  and  C_33
REMARK    9  A    between atoms: C_22  and  O_25
REMARK   10  A    between atoms: O_25  and  C_26
REMARK                            x       y       z     vdW  Elec       q    Type
REMARK                         _______ _______ _______ _____ _____    ______ ____
ROOT
ATOM      1  C   UNL     1       3.112  -6.513   4.639  0.00  0.00    +0.020 A 
ATOM      2  C   UNL     1       4.488  -6.626   4.528  0.00  0.00    +0.122 A 
ATOM      3  C   UNL     1       5.251  -7.083   5.601  0.00  0.00    +0.046 A 
ATOM      4  C   UNL     1       4.650  -7.427   6.779  0.00  0.00    +0.019 A 
ATOM      5  C   UNL     1       3.265  -7.318   6.906  0.00  0.00    +0.068 A 
ATOM      6  C   UNL     1       2.488  -6.853   5.831  0.00  0.00    +0.144 A 
ATOM      7  O   UNL     1       1.151  -6.748   5.967  0.00  0.00    -0.456 OA
ATOM      8  C   UNL     1       0.517  -7.068   7.103  0.00  0.00    +0.148 A 
ATOM      9  C   UNL     1       1.165  -7.519   8.196  0.00  0.00    +0.213 A 
ATOM     10  C   UNL     1       2.579  -7.679   8.159  0.00  0.00    +0.235 A 
ATOM     11  O   UNL     1       3.198  -8.085   9.128  0.00  0.00    -0.283 OA
ATOM     12  C   UNL     1      -0.981  -6.918   7.162  0.00  0.00    +0.090 C 
ENDROOT
BRANCH   2  13
ATOM     13  O   UNL     1       5.099  -6.288   3.364  0.00  0.00    -0.506 OA
ATOM     14  H   UNL     1       5.368  -5.361   3.315  0.00  0.00    +0.292 HD
ENDBRANCH   2  13
BRANCH   1  15
ATOM     15  C   UNL     1       2.298  -6.017   3.472  0.00  0.00    -0.036 C 
BRANCH  15  20
ATOM     16  C   UNL     1       1.448  -2.532   2.370  0.00  0.00    +0.081 C 
ATOM     17  C   UNL     1       0.683  -2.076   3.616  0.00  0.00    +0.011 C 
ATOM     18  C   UNL     1       1.361  -2.658   4.860  0.00  0.00    -0.018 C 
ATOM     19  C   UNL     1       1.416  -4.183   4.738  0.00  0.00    -0.078 C 
ATOM     20  N   UNL     1       2.182  -4.555   3.542  0.00  0.00    +0.383 N 
ATOM     21  C   UNL     1       1.500  -4.061   2.340  0.00  0.00    -0.064 C 
ATOM     22  H   UNL     1       3.104  -4.148   3.595  0.00  0.00    -0.081 HD
BRANCH  16  23
ATOM     23  C   UNL     1       0.745  -2.028   1.136  0.00  0.00    +0.308 C 
ATOM     24  O   UNL     1       0.329  -2.812   0.315  0.00  0.00    -0.251 OA
BRANCH  23  25
ATOM     25  O   UNL     1       0.580  -0.709   0.948  0.00  0.00    -0.465 OA
BRANCH  25  27
ATOM     26  C   UNL     1      -0.188   1.224  -0.282  0.00  0.00    +0.048 C 
ATOM     27  C   UNL     1      -0.095  -0.303  -0.244  0.00  0.00    +0.229 C 
ENDBRANCH  25  27
ENDBRANCH  23  25
ENDBRANCH  16  23
ENDBRANCH  15  20
ENDBRANCH   1  15
BRANCH   9  28
ATOM     28  O   UNL     1       0.469  -7.829   9.325  0.00  0.00    -0.448 OA
BRANCH  28  29
ATOM     29  C   UNL     1       0.663  -7.057  10.426  0.00  0.00    +0.143 A 
ATOM     30  C   UNL     1       1.457  -5.922  10.348  0.00  0.00    +0.047 A 
ATOM     31  C   UNL     1       1.652  -5.138  11.468  0.00  0.00    +0.004 A 
ATOM     32  C   UNL     1       1.057  -5.484  12.668  0.00  0.00    +0.001 A 
ATOM     33  C   UNL     1       0.266  -6.615  12.749  0.00  0.00    +0.019 A 
ATOM     34  C   UNL     1       0.063  -7.399  11.630  0.00  0.00    +0.060 A 
ATOM     35 BR   UNL     1      -1.026  -8.942  11.740  0.00  0.00    -0.046 Br
ENDBRANCH  28  29
ENDBRANCH   9  28
TORSDOF 8
