REMARK  Name = ZINC36156898
REMARK  11 active torsions:
REMARK  status: ('A' for Active; 'I' for Inactive)
REMARK    1  A    between atoms: C_1  and  C_2
REMARK    2  A    between atoms: C_7  and  O_8
REMARK    3  A    between atoms: O_8  and  C_9
REMARK    4  A    between atoms: C_9  and  C_10
REMARK    5  A    between atoms: C_10  and  C_12
REMARK    6  A    between atoms: C_10  and  O_37
REMARK    7  A    between atoms: C_12  and  N_13
REMARK    8  A    between atoms: N_13  and  C_14
REMARK    9  A    between atoms: N_13  and  C_21
REMARK   10  A    between atoms: C_14  and  C_15
REMARK   11  A    between atoms: C_21  and  C_22
REMARK                            x       y       z     vdW  Elec       q    Type
REMARK                         _______ _______ _______ _____ _____    ______ ____
ROOT
ATOM      1  N   UNL     1      -0.017   0.268   6.994  0.00  0.00    +0.389 N 
ATOM      2  H   UNL     1      -0.849   0.834   6.914  0.00  0.00    -0.081 HD
ENDROOT
BRANCH   1   3
ATOM      3  C   UNL     1       0.113  -0.582   5.803  0.00  0.00    -0.043 C 
BRANCH   3   4
ATOM      4  C   UNL     1      -0.155   0.253   4.549  0.00  0.00    +0.135 C 
BRANCH   4   5
ATOM      5  O   UNL     1       0.889   1.215   4.385  0.00  0.00    -0.390 OA
ATOM      6  H   UNL     1       1.748   0.829   4.165  0.00  0.00    +0.210 HD
ENDBRANCH   4   5
BRANCH   4   7
ATOM      7  C   UNL     1      -0.201  -0.665   3.326  0.00  0.00    +0.258 C 
BRANCH   7   8
ATOM      8  O   UNL     1      -0.567   0.096   2.173  0.00  0.00    -0.489 OA
BRANCH   8  15
ATOM      9  C   UNL     1      -1.288   1.583  -0.118  0.00  0.00    +0.047 C 
ATOM     10  C   UNL     1      -1.003   0.103  -0.166  0.00  0.00    -0.009 A 
ATOM     11  C   UNL     1      -1.085  -0.578  -1.365  0.00  0.00    +0.007 A 
ATOM     12  C   UNL     1      -0.824  -1.935  -1.408  0.00  0.00    +0.000 A 
ATOM     13  C   UNL     1      -0.480  -2.613  -0.253  0.00  0.00    +0.004 A 
ATOM     14  C   UNL     1      -0.397  -1.936   0.948  0.00  0.00    +0.046 A 
ATOM     15  C   UNL     1      -0.653  -0.573   0.994  0.00  0.00    +0.124 A 
ENDBRANCH   8  15
ENDBRANCH   7   8
ENDBRANCH   4   7
ENDBRANCH   3   4
ENDBRANCH   1   3
BRANCH   1  16
ATOM     16  C   UNL     1       1.159   1.140   7.105  0.00  0.00    -0.042 C 
BRANCH  16  17
ATOM     17  C   UNL     1       2.385   0.300   7.358  0.00  0.00    -0.064 A 
ATOM     18  C   UNL     1       2.777   0.023   8.654  0.00  0.00    +0.002 A 
ATOM     19  C   UNL     1       3.901  -0.748   8.886  0.00  0.00    +0.000 A 
ATOM     20  C   UNL     1       4.633  -1.240   7.821  0.00  0.00    +0.000 A 
ATOM     21  C   UNL     1       4.241  -0.963   6.525  0.00  0.00    +0.000 A 
ATOM     22  C   UNL     1       3.114  -0.197   6.293  0.00  0.00    +0.002 A 
ENDBRANCH  16  17
ENDBRANCH   1  16
BRANCH   1  23
ATOM     23  C   UNL     1      -0.114  -0.578   8.191  0.00  0.00    -0.003 C 
BRANCH  23  24
ATOM     24  C   UNL     1      -0.371   0.286   9.398  0.00  0.00    +0.094 A 
ATOM     25  N   UNL     1      -0.490  -0.293  10.620  0.00  0.00    -0.312 N 
ATOM     26  H   UNL     1      -0.408  -1.256  10.700  0.00  0.00    +0.170 HD
ATOM     27  C   UNL     1      -0.719   0.442  11.725  0.00  0.00    +0.260 A 
ATOM     28  O   UNL     1      -0.823  -0.093  12.815  0.00  0.00    -0.267 OA
ATOM     29  C   UNL     1      -0.839   1.865  11.597  0.00  0.00    +0.075 A 
ATOM     30  C   UNL     1      -1.085   2.853  12.646  0.00  0.00    -0.023 A 
ATOM     31  C   UNL     1      -1.155   4.146  12.264  0.00  0.00    -0.004 A 
ATOM     32  S   UNL     1      -0.900   4.122  10.511  0.00  0.00    -0.073 S 
ATOM     33  C   UNL     1      -0.701   2.372  10.295  0.00  0.00    +0.116 A 
ATOM     34  N   UNL     1      -0.469   1.581   9.251  0.00  0.00    -0.229 NA
ATOM     35  C   UNL     1      -1.398   5.339  13.139  0.00  0.00    +0.043 C 
ATOM     36  C   UNL     1      -1.929   4.846  14.493  0.00  0.00    +0.005 C 
ATOM     37  C   UNL     1      -1.038   3.700  14.982  0.00  0.00    +0.005 C 
ATOM     38  C   UNL     1      -1.260   2.463  14.111  0.00  0.00    +0.037 C 
ENDBRANCH  23  24
ENDBRANCH   1  23
TORSDOF 10
