REMARK  Name = ZINC21359546
REMARK  3 active torsions:
REMARK  status: ('A' for Active; 'I' for Inactive)
REMARK    1  A    between atoms: C_11  and  C_29
REMARK    2  A    between atoms: N_13  and  S_16
REMARK    3  A    between atoms: S_16  and  C_19
REMARK                            x       y       z     vdW  Elec       q    Type
REMARK                         _______ _______ _______ _____ _____    ______ ____
ROOT
ATOM      1  C   UNL     1      -5.124   4.261  -5.426  0.00  0.00    +0.001 A 
ATOM      2  C   UNL     1      -4.135   5.195  -5.687  0.00  0.00    +0.002 A 
ATOM      3  C   UNL     1      -3.208   5.576  -4.732  0.00  0.00    +0.026 A 
ATOM      4  C   UNL     1      -3.309   4.974  -3.479  0.00  0.00    +0.047 A 
ATOM      5  C   UNL     1      -4.324   4.019  -3.217  0.00  0.00    +0.003 A 
ATOM      6  C   UNL     1      -5.248   3.652  -4.201  0.00  0.00    +0.010 A 
ATOM      7  C   UNL     1      -4.140   3.606  -1.841  0.00  0.00    -0.016 A 
ATOM      8  C   UNL     1      -3.079   4.292  -1.362  0.00  0.00    +0.044 A 
ATOM      9  N   UNL     1      -2.577   5.114  -2.335  0.00  0.00    -0.356 N 
ATOM     10  H   UNL     1      -1.728   5.813  -2.307  0.00  0.00    +0.166 HD
ATOM     11  C   UNL     1      -2.557   4.141   0.049  0.00  0.00    +0.156 C 
ATOM     12  N   UNL     1      -3.553   3.367   0.810  0.00  0.00    -0.163 NA
ATOM     13  C   UNL     1      -4.140   2.176   0.180  0.00  0.00    +0.115 C 
ATOM     14  C   UNL     1      -4.948   2.610  -1.049  0.00  0.00    +0.054 C 
ENDROOT
BRANCH  11  15
ATOM     15  C   UNL     1      -1.242   3.405   0.032  0.00  0.00    -0.020 A 
ATOM     16  C   UNL     1      -0.128   3.968   0.628  0.00  0.00    +0.008 A 
ATOM     17  C   UNL     1       1.079   3.295   0.614  0.00  0.00    +0.041 A 
ATOM     18  C   UNL     1       1.174   2.056   0.003  0.00  0.00    +0.158 A 
ATOM     19  C   UNL     1       0.057   1.492  -0.594  0.00  0.00    +0.159 A 
ATOM     20  C   UNL     1      -1.149   2.171  -0.584  0.00  0.00    +0.047 A 
ATOM     21  F   UNL     1       0.148   0.284  -1.191  0.00  0.00    -0.202 F 
ATOM     22  F   UNL     1       2.354   1.398  -0.011  0.00  0.00    -0.202 F 
ENDBRANCH  11  15
BRANCH  12  23
ATOM     23  S   UNL     1      -4.000   3.827   2.337  0.00  0.00    +0.062 S 
ATOM     24  O   UNL     1      -4.487   2.661   2.986  0.00  0.00    -0.153 OA
ATOM     25  O   UNL     1      -2.926   4.598   2.860  0.00  0.00    -0.153 OA
BRANCH  23  26
ATOM     26  C   UNL     1      -5.371   4.921   2.171  0.00  0.00    +0.109 A 
ATOM     27  C   UNL     1      -6.659   4.415   2.168  0.00  0.00    +0.031 A 
ATOM     28  C   UNL     1      -7.739   5.266   2.038  0.00  0.00    +0.033 A 
ATOM     29  C   UNL     1      -7.530   6.631   1.911  0.00  0.00    +0.113 A 
ATOM     30  C   UNL     1      -6.233   7.141   1.915  0.00  0.00    +0.161 A 
ATOM     31  C   UNL     1      -5.155   6.280   2.051  0.00  0.00    +0.077 A 
ATOM     32  O   UNL     1      -6.329   8.487   1.778  0.00  0.00    -0.406 OA
ATOM     33  C   UNL     1      -7.624   8.829   1.690  0.00  0.00    +0.441 A 
ATOM     34  O   UNL     1      -8.043   9.963   1.561  0.00  0.00    -0.221 OA
ATOM     35  N   UNL     1      -8.388   7.721   1.768  0.00  0.00    -0.172 NA
ENDBRANCH  23  26
ENDBRANCH  12  23
TORSDOF 3
