REMARK  Name = ZINC25054963
REMARK  9 active torsions:
REMARK  status: ('A' for Active; 'I' for Inactive)
REMARK    1  A    between atoms: C_1  and  C_2
REMARK    2  A    between atoms: C_2  and  C_4
REMARK    3  A    between atoms: C_2  and  N_14
REMARK    4  A    between atoms: C_15  and  C_17
REMARK    5  A    between atoms: C_17  and  O_18
REMARK    6  A    between atoms: O_18  and  C_19
REMARK    7  A    between atoms: C_19  and  C_21
REMARK    8  A    between atoms: C_30  and  O_31
REMARK    9  A    between atoms: O_31  and  C_32
REMARK                            x       y       z     vdW  Elec       q    Type
REMARK                         _______ _______ _______ _____ _____    ______ ____
ROOT
ATOM      1  N   UNL     1      -2.103   1.072   1.277  0.00  0.00    -0.306 N 
ATOM      2  C   UNL     1      -3.073   1.740   0.621  0.00  0.00    +0.251 C 
ATOM      3  O   UNL     1      -2.807   2.760   0.021  0.00  0.00    -0.272 OA
ATOM      4  H   UNL     1      -2.344   0.147   1.821  0.00  0.00    +0.149 HD
ENDROOT
BRANCH   1   6
ATOM      5  C   UNL     1      -0.013   1.086   0.008  0.00  0.00    +0.033 C 
ATOM      6  C   UNL     1      -0.729   1.579   1.267  0.00  0.00    +0.100 C 
BRANCH   6   7
ATOM      7  C   UNL     1       0.000   1.080   2.488  0.00  0.00    -0.027 A 
ATOM      8  C   UNL     1      -0.197  -0.214   2.932  0.00  0.00    +0.006 A 
ATOM      9  C   UNL     1       0.476  -0.665   4.049  0.00  0.00    +0.004 A 
ATOM     10  C   UNL     1       1.342   0.175   4.738  0.00  0.00    -0.044 A 
ATOM     11  C   UNL     1       1.536   1.464   4.296  0.00  0.00    -0.044 A 
ATOM     12  C   UNL     1       0.862   1.914   3.169  0.00  0.00    +0.009 A 
ATOM     13  C   UNL     1       2.467   2.426   4.988  0.00  0.00    +0.035 C 
ATOM     14  C   UNL     1       2.780   1.947   6.404  0.00  0.00    +0.005 C 
ATOM     15  C   UNL     1       3.237   0.485   6.329  0.00  0.00    +0.005 C 
ATOM     16  C   UNL     1       2.033  -0.378   5.957  0.00  0.00    +0.035 C 
ENDBRANCH   6   7
ENDBRANCH   1   6
BRANCH   2  17
ATOM     17  C   UNL     1      -4.487   1.218   0.631  0.00  0.00    +0.328 C 
BRANCH  17  18
ATOM     18  O   UNL     1      -5.336   2.107  -0.141  0.00  0.00    -0.452 OA
BRANCH  18  19
ATOM     19  C   UNL     1      -6.641   1.780  -0.232  0.00  0.00    +0.343 C 
ATOM     20  O   UNL     1      -7.056   0.781   0.320  0.00  0.00    -0.245 OA
BRANCH  19  21
ATOM     21  C   UNL     1      -7.563   2.637  -1.000  0.00  0.00    +0.101 A 
ATOM     22  C   UNL     1      -7.085   3.779  -1.623  0.00  0.00    +0.027 A 
ATOM     23  C   UNL     1      -7.966   4.586  -2.356  0.00  0.00    -0.017 A 
ATOM     24  C   UNL     1      -7.514   5.750  -3.005  0.00  0.00    +0.008 A 
ATOM     25  C   UNL     1      -8.394   6.516  -3.704  0.00  0.00    +0.001 A 
ATOM     26  C   UNL     1      -9.741   6.166  -3.789  0.00  0.00    +0.001 A 
ATOM     27  C   UNL     1     -10.215   5.048  -3.175  0.00  0.00    +0.008 A 
ATOM     28  C   UNL     1      -9.337   4.230  -2.442  0.00  0.00    -0.014 A 
ATOM     29  C   UNL     1      -9.797   3.070  -1.798  0.00  0.00    +0.055 A 
ATOM     30  C   UNL     1      -8.928   2.291  -1.092  0.00  0.00    +0.135 A 
BRANCH  30  31
ATOM     31  O   UNL     1      -9.381   1.172  -0.471  0.00  0.00    -0.494 OA
ATOM     32  C   UNL     1     -10.773   0.876  -0.602  0.00  0.00    +0.277 C 
ENDBRANCH  30  31
ENDBRANCH  19  21
ENDBRANCH  18  19
ENDBRANCH  17  18
ENDBRANCH   2  17
TORSDOF 7
