REMARK  Name = ZINC38904550
REMARK  9 active torsions:
REMARK  status: ('A' for Active; 'I' for Inactive)
REMARK    1  A    between atoms: C_1  and  C_2
REMARK    2  A    between atoms: C_2  and  C_3
REMARK    3  A    between atoms: C_3  and  C_4
REMARK    4  A    between atoms: C_4  and  C_6
REMARK    5  A    between atoms: C_4  and  N_7
REMARK    6  A    between atoms: C_8  and  C_10
REMARK    7  A    between atoms: N_15  and  C_17
REMARK    8  A    between atoms: C_17  and  C_18
REMARK    9  A    between atoms: C_20  and  C_23
REMARK                            x       y       z     vdW  Elec       q    Type
REMARK                         _______ _______ _______ _____ _____    ______ ____
ROOT
ATOM      1  C   UNL     1       2.161  -4.236   1.519  0.00  0.00    +0.058 C 
ATOM      2  C   UNL     1       1.982  -3.302   2.720  0.00  0.00    +0.009 C 
ATOM      3  C   UNL     1       2.770  -3.859   3.909  0.00  0.00    -0.018 C 
ATOM      4  C   UNL     1       2.295  -5.283   4.207  0.00  0.00    -0.078 C 
ATOM      5  N   UNL     1       2.517  -6.132   3.030  0.00  0.00    +0.386 N 
ATOM      6  C   UNL     1       1.709  -5.646   1.905  0.00  0.00    -0.065 C 
ATOM      7  H   UNL     1       3.493  -6.107   2.778  0.00  0.00    -0.081 HD
ENDROOT
BRANCH   1   9
ATOM      8  N   UNL     1       1.548  -2.511  -0.144  0.00  0.00    -0.313 N 
ATOM      9  C   UNL     1       1.328  -3.739   0.366  0.00  0.00    +0.215 C 
ATOM     10  O   UNL     1       0.460  -4.443  -0.103  0.00  0.00    -0.276 OA
ATOM     11  H   UNL     1       2.243  -1.947   0.231  0.00  0.00    +0.149 HD
BRANCH   8  12
ATOM     12  C   UNL     1       0.739  -2.027  -1.265  0.00  0.00    +0.070 C 
ATOM     13  C   UNL     1       1.343  -2.522  -2.581  0.00  0.00    +0.028 C 
BRANCH  12  14
ATOM     14  C   UNL     1       0.718  -0.497  -1.257  0.00  0.00    +0.022 C 
BRANCH  14  16
ATOM     15  C   UNL     1      -0.019   1.526   0.010  0.00  0.00    +0.004 C 
ATOM     16  C   UNL     1       0.002  -0.004   0.002  0.00  0.00    -0.002 C 
ENDBRANCH  14  16
ENDBRANCH  12  14
ENDBRANCH   8  12
ENDBRANCH   1   9
BRANCH   5  17
ATOM     17  C   UNL     1       2.132  -7.514   3.347  0.00  0.00    +0.022 C 
BRANCH  17  18
ATOM     18  C   UNL     1       3.048  -8.059   4.412  0.00  0.00    +0.211 A 
ATOM     19  N   UNL     1       2.850  -7.985   5.697  0.00  0.00    -0.193 NA
ATOM     20  C   UNL     1       3.865  -8.575   6.354  0.00  0.00    +0.202 A 
ATOM     21  N   UNL     1       4.723  -9.033   5.476  0.00  0.00    -0.056 NA
ATOM     22  O   UNL     1       4.200  -8.707   4.196  0.00  0.00    -0.340 OA
BRANCH  20  23
ATOM     23  C   UNL     1       3.992  -8.688   7.829  0.00  0.00    +0.023 A 
ATOM     24  C   UNL     1       3.003  -8.162   8.658  0.00  0.00    +0.012 A 
ATOM     25  C   UNL     1       3.126  -8.270  10.028  0.00  0.00    +0.002 A 
ATOM     26  C   UNL     1       4.228  -8.899  10.579  0.00  0.00    +0.015 A 
ATOM     27  C   UNL     1       5.213  -9.423   9.761  0.00  0.00    +0.019 A 
ATOM     28  C   UNL     1       5.097  -9.326   8.388  0.00  0.00    +0.027 A 
ATOM     29 BR   UNL     1       6.716 -10.281  10.523  0.00  0.00    -0.050 Br
ENDBRANCH  20  23
ENDBRANCH  17  18
ENDBRANCH   5  17
TORSDOF 7
