REMARK  Name = ZINC65743083
REMARK  15 active torsions:
REMARK  status: ('A' for Active; 'I' for Inactive)
REMARK    1  A    between atoms: C_1  and  C_2
REMARK    2  A    between atoms: C_2  and  C_3
REMARK    3  A    between atoms: C_2  and  N_4
REMARK    4  A    between atoms: N_4  and  C_5
REMARK    5  A    between atoms: N_4  and  C_16
REMARK    6  A    between atoms: C_5  and  C_6
REMARK    7  A    between atoms: C_6  and  O_7
REMARK    8  A    between atoms: O_7  and  C_8
REMARK    9  A    between atoms: C_13  and  O_14
REMARK   10  A    between atoms: O_14  and  C_15
REMARK   11  A    between atoms: C_16  and  C_17
REMARK   12  A    between atoms: C_17  and  C_19
REMARK   13  A    between atoms: C_17  and  O_35
REMARK   14  A    between atoms: C_19  and  O_20
REMARK   15  A    between atoms: O_20  and  C_21
REMARK                            x       y       z     vdW  Elec       q    Type
REMARK                         _______ _______ _______ _____ _____    ______ ____
ROOT
ATOM      1  C   UNL     1      -2.804   1.426  -0.631  0.00  0.00    +0.135 C 
ENDROOT
BRANCH   1   2
ATOM      2  O   UNL     1      -1.782   2.064  -1.400  0.00  0.00    -0.390 OA
ATOM      3  H   UNL     1      -1.827   1.875  -2.347  0.00  0.00    +0.210 HD
ENDBRANCH   1   2
BRANCH   1   4
ATOM      4  C   UNL     1      -2.604  -0.090  -0.675  0.00  0.00    -0.043 C 
BRANCH   4   5
ATOM      5  N   UNL     1      -1.375  -0.443   0.047  0.00  0.00    +0.385 N 
ATOM      6  H   UNL     1      -1.399  -0.038   0.971  0.00  0.00    -0.081 HD
BRANCH   5   8
ATOM      7  C   UNL     1       1.073  -0.365   0.022  0.00  0.00    -0.014 C 
ATOM      8  C   UNL     1      -0.211   0.074  -0.685  0.00  0.00    -0.075 C 
ATOM      9  C   UNL     1      -0.221  -0.476  -2.113  0.00  0.00    -0.014 C 
ENDBRANCH   5   8
BRANCH   5  10
ATOM     10  C   UNL     1      -1.274  -1.905   0.156  0.00  0.00    -0.037 C 
BRANCH  10  11
ATOM     11  C   UNL     1      -0.458  -2.268   1.398  0.00  0.00    +0.211 C 
BRANCH  11  12
ATOM     12  O   UNL     1      -1.170  -1.866   2.571  0.00  0.00    -0.490 OA
BRANCH  12  13
ATOM     13  C   UNL     1      -0.578  -2.118   3.769  0.00  0.00    +0.162 A 
ATOM     14  C   UNL     1       0.662  -2.734   3.815  0.00  0.00    +0.049 A 
ATOM     15  C   UNL     1       1.262  -2.989   5.034  0.00  0.00    +0.004 A 
ATOM     16  C   UNL     1       0.627  -2.631   6.209  0.00  0.00    +0.004 A 
ATOM     17  C   UNL     1      -0.610  -2.017   6.170  0.00  0.00    +0.049 A 
ATOM     18  C   UNL     1      -1.215  -1.753   4.951  0.00  0.00    +0.161 A 
BRANCH  18  19
ATOM     19  O   UNL     1      -2.430  -1.143   4.911  0.00  0.00    -0.491 OA
ATOM     20  C   UNL     1      -3.024  -0.797   6.164  0.00  0.00    +0.277 C 
ENDBRANCH  18  19
ENDBRANCH  12  13
ENDBRANCH  11  12
ENDBRANCH  10  11
ENDBRANCH   5  10
ENDBRANCH   4   5
ENDBRANCH   1   4
BRANCH   1  21
ATOM     21  C   UNL     1      -4.175   1.778  -1.212  0.00  0.00    +0.258 C 
BRANCH  21  22
ATOM     22  O   UNL     1      -4.410   3.179  -1.065  0.00  0.00    -0.489 OA
BRANCH  22  23
ATOM     23  C   UNL     1      -5.591   3.659  -1.534  0.00  0.00    +0.130 A 
ATOM     24  C   UNL     1      -6.507   2.802  -2.117  0.00  0.00    +0.046 A 
ATOM     25  C   UNL     1      -7.712   3.291  -2.595  0.00  0.00    +0.006 A 
ATOM     26  C   UNL     1      -8.014   4.633  -2.497  0.00  0.00    +0.026 A 
ATOM     27  C   UNL     1      -7.106   5.513  -1.914  0.00  0.00    +0.051 A 
ATOM     28  C   UNL     1      -5.889   5.020  -1.423  0.00  0.00    +0.049 A 
ATOM     29  C   UNL     1      -5.162   6.176  -0.868  0.00  0.00    +0.011 A 
ATOM     30  C   UNL     1      -3.920   6.323  -0.255  0.00  0.00    +0.011 A 
ATOM     31  C   UNL     1      -3.509   7.569   0.168  0.00  0.00    +0.001 A 
ATOM     32  C   UNL     1      -4.327   8.673  -0.014  0.00  0.00    +0.002 A 
ATOM     33  C   UNL     1      -5.558   8.542  -0.618  0.00  0.00    +0.026 A 
ATOM     34  C   UNL     1      -5.991   7.293  -1.053  0.00  0.00    +0.048 A 
ATOM     35  N   UNL     1      -7.147   6.877  -1.690  0.00  0.00    -0.354 N 
ATOM     36  H   UNL     1      -7.885   7.458  -1.934  0.00  0.00    +0.166 HD
ENDBRANCH  22  23
ENDBRANCH  21  22
ENDBRANCH   1  21
TORSDOF 12
