REMARK  Name = ZINC17178073
REMARK  7 active torsions:
REMARK  status: ('A' for Active; 'I' for Inactive)
REMARK    1  A    between atoms: C_4  and  C_7
REMARK    2  A    between atoms: C_8  and  C_9
REMARK    3  A    between atoms: C_9  and  S_10
REMARK    4  A    between atoms: S_10  and  C_11
REMARK    5  A    between atoms: N_25  and  C_26
REMARK    6  A    between atoms: C_29  and  O_32
REMARK    7  A    between atoms: O_32  and  C_33
REMARK                            x       y       z     vdW  Elec       q    Type
REMARK                         _______ _______ _______ _____ _____    ______ ____
ROOT
ATOM      1  C   UNL     1       2.545  -0.486   6.089  0.00  0.00    +0.177 A 
ATOM      2  N   UNL     1       3.087  -0.861   7.226  0.00  0.00    -0.221 NA
ATOM      3  C   UNL     1       2.613  -0.415   8.400  0.00  0.00    +0.104 A 
ATOM      4  C   UNL     1       2.993  -0.646   9.801  0.00  0.00    +0.026 A 
ATOM      5  C   UNL     1       3.985  -1.414  10.413  0.00  0.00    +0.012 A 
ATOM      6  C   UNL     1       4.093  -1.426  11.775  0.00  0.00    +0.001 A 
ATOM      7  C   UNL     1       3.221  -0.680  12.556  0.00  0.00    +0.002 A 
ATOM      8  C   UNL     1       2.235   0.084  11.973  0.00  0.00    +0.026 A 
ATOM      9  C   UNL     1       2.107   0.112  10.586  0.00  0.00    +0.049 A 
ATOM     10  N   UNL     1       1.236   0.769   9.743  0.00  0.00    -0.349 N 
ATOM     11  H   UNL     1       0.523   1.359  10.032  0.00  0.00    +0.166 HD
ATOM     12  C   UNL     1       1.528   0.461   8.424  0.00  0.00    +0.132 A 
ATOM     13  C   UNL     1       0.960   0.861   7.197  0.00  0.00    +0.283 A 
ATOM     14  O   UNL     1       0.013   1.629   7.171  0.00  0.00    -0.265 OA
ATOM     15  N   UNL     1       1.481   0.371   6.052  0.00  0.00    -0.254 N 
ENDROOT
BRANCH  15  16
ATOM     16  C   UNL     1       0.932   0.748   4.818  0.00  0.00    +0.052 A 
ATOM     17  C   UNL     1      -0.096   0.001   4.258  0.00  0.00    +0.030 A 
ATOM     18  C   UNL     1      -0.636   0.372   3.043  0.00  0.00    +0.048 A 
ATOM     19  C   UNL     1      -0.152   1.491   2.381  0.00  0.00    +0.130 A 
ATOM     20  C   UNL     1       0.879   2.235   2.938  0.00  0.00    +0.048 A 
ATOM     21  C   UNL     1       1.416   1.868   4.156  0.00  0.00    +0.030 A 
BRANCH  19  22
ATOM     22  O   UNL     1      -0.683   1.856   1.185  0.00  0.00    -0.406 OA
BRANCH  22  23
ATOM     23  C   UNL     1      -0.137   3.019   0.559  0.00  0.00    +0.575 C 
ATOM     24  F   UNL     1       1.227   2.822   0.320  0.00  0.00    -0.133 F 
ATOM     25  F   UNL     1      -0.308   4.124   1.400  0.00  0.00    -0.133 F 
ATOM     26  F   UNL     1      -0.795   3.249  -0.654  0.00  0.00    -0.133 F 
ENDBRANCH  22  23
ENDBRANCH  19  22
ENDBRANCH  15  16
BRANCH   1  27
ATOM     27  S   UNL     1       3.206  -1.101   4.576  0.00  0.00    -0.083 S 
BRANCH  27  28
ATOM     28  C   UNL     1       4.540  -2.143   5.217  0.00  0.00    +0.104 C 
BRANCH  28  30
ATOM     29  C   UNL     1       6.537  -2.491   3.832  0.00  0.00    +0.004 C 
ATOM     30  C   UNL     1       5.267  -2.792   4.068  0.00  0.00    -0.015 C 
BRANCH  29  34
ATOM     31  C   UNL     1       8.586  -4.319   0.593  0.00  0.00    +0.000 A 
ATOM     32  C   UNL     1       9.246  -3.410   1.399  0.00  0.00    +0.001 A 
ATOM     33  C   UNL     1       8.586  -2.812   2.454  0.00  0.00    +0.008 A 
ATOM     34  C   UNL     1       7.250  -3.127   2.704  0.00  0.00    -0.025 A 
ATOM     35  C   UNL     1       6.592  -4.049   1.890  0.00  0.00    +0.008 A 
ATOM     36  C   UNL     1       7.262  -4.636   0.836  0.00  0.00    +0.001 A 
ENDBRANCH  29  34
ENDBRANCH  28  30
ENDBRANCH  27  28
ENDBRANCH   1  27
TORSDOF 7
