REMARK  Name = ZINC21803172
REMARK  7 active torsions:
REMARK  status: ('A' for Active; 'I' for Inactive)
REMARK    1  A    between atoms: C_1  and  C_2
REMARK    2  A    between atoms: C_5  and  C_8
REMARK    3  A    between atoms: C_8  and  C_9
REMARK    4  A    between atoms: C_10  and  C_35
REMARK    5  A    between atoms: C_17  and  C_34
REMARK    6  A    between atoms: C_18  and  C_20
REMARK    7  A    between atoms: N_25  and  C_28
REMARK                            x       y       z     vdW  Elec       q    Type
REMARK                         _______ _______ _______ _____ _____    ______ ____
ROOT
ATOM      1  C   UNL     1       1.908  -3.690  -0.108  0.00  0.00    +0.043 A 
ATOM      2  C   UNL     1       2.747  -3.733   0.947  0.00  0.00    +0.039 A 
ATOM      3  N   UNL     1       3.934  -4.267   0.534  0.00  0.00    -0.292 N 
ATOM      4  N   UNL     1       3.826  -4.567  -0.831  0.00  0.00    -0.194 N 
ATOM      5  C   UNL     1       2.585  -4.221  -1.230  0.00  0.00    +0.277 A 
ATOM      6  O   UNL     1       2.131  -4.342  -2.353  0.00  0.00    -0.265 OA
ATOM      7  C   UNL     1       4.813  -5.123  -1.624  0.00  0.00    +0.196 A 
ATOM      8  N   UNL     1       4.758  -5.415  -2.911  0.00  0.00    -0.226 NA
ATOM      9  C   UNL     1       5.780  -5.943  -3.536  0.00  0.00    +0.060 A 
ATOM     10  C   UNL     1       6.916  -6.175  -2.774  0.00  0.00    +0.098 A 
ATOM     11  S   UNL     1       6.370  -5.580  -1.181  0.00  0.00    -0.043 S 
ATOM     12  C   UNL     1       5.726  -6.280  -5.004  0.00  0.00    +0.067 C 
ATOM     13  C   UNL     1       2.429  -3.269   2.345  0.00  0.00    +0.065 C 
ATOM     14  H   UNL     1       4.716  -4.414   1.089  0.00  0.00    +0.187 HD
ENDROOT
BRANCH  10  15
ATOM     15  C   UNL     1       8.205  -6.745  -3.167  0.00  0.00    +0.255 C 
ATOM     16  O   UNL     1       8.448  -6.946  -4.343  0.00  0.00    -0.269 OA
ATOM     17  N   UNL     1       9.123  -7.047  -2.228  0.00  0.00    -0.294 N 
ATOM     18  C   UNL     1       8.768  -7.029  -0.802  0.00  0.00    +0.127 C 
ATOM     19  C   UNL     1       9.110  -8.396  -0.194  0.00  0.00    +0.124 C 
ATOM     20  N   UNL     1      10.484  -8.749  -0.578  0.00  0.00    -0.327 N 
ATOM     21  C   UNL     1      10.839  -8.767  -2.004  0.00  0.00    +0.124 C 
ATOM     22  C   UNL     1      10.496  -7.406  -2.611  0.00  0.00    +0.127 C 
BRANCH  20  23
ATOM     23  C   UNL     1      11.435  -9.062   0.396  0.00  0.00    +0.030 A 
ATOM     24  C   UNL     1      11.055  -9.188   1.726  0.00  0.00    +0.023 A 
ATOM     25  C   UNL     1      11.998  -9.498   2.686  0.00  0.00    +0.002 A 
ATOM     26  C   UNL     1      13.320  -9.683   2.325  0.00  0.00    +0.000 A 
ATOM     27  C   UNL     1      13.702  -9.559   1.001  0.00  0.00    +0.002 A 
ATOM     28  C   UNL     1      12.763  -9.255   0.035  0.00  0.00    +0.023 A 
ENDBRANCH  20  23
ENDBRANCH  10  15
BRANCH   1  29
ATOM     29  C   UNL     1       0.493  -3.171  -0.093  0.00  0.00    +0.077 C 
BRANCH  29  34
ATOM     30  C   UNL     1       0.446   2.359  -1.769  0.00  0.00    +0.044 C 
ATOM     31  C   UNL     1       0.459   0.917  -1.332  0.00  0.00    -0.050 A 
ATOM     32  C   UNL     1       0.326  -0.091  -2.269  0.00  0.00    +0.003 A 
ATOM     33  C   UNL     1       0.337  -1.413  -1.868  0.00  0.00    +0.004 A 
ATOM     34  C   UNL     1       0.481  -1.729  -0.530  0.00  0.00    -0.043 A 
ATOM     35  C   UNL     1       0.615  -0.722   0.407  0.00  0.00    +0.004 A 
ATOM     36  C   UNL     1       0.608   0.601   0.006  0.00  0.00    +0.003 A 
ENDBRANCH  29  34
ENDBRANCH   1  29
TORSDOF 4
