REMARK  Name = ZINC63363056
REMARK  6 active torsions:
REMARK  status: ('A' for Active; 'I' for Inactive)
REMARK    1  A    between atoms: C_1  and  C_2
REMARK    2  A    between atoms: C_2  and  C_3
REMARK    3  A    between atoms: C_6  and  C_9
REMARK    4  A    between atoms: N_16  and  C_31
REMARK    5  A    between atoms: C_19  and  C_30
REMARK    6  A    between atoms: C_31  and  C_32
REMARK                            x       y       z     vdW  Elec       q    Type
REMARK                         _______ _______ _______ _____ _____    ______ ____
ROOT
ATOM      1  C   UNL     1      -5.510  -1.885   0.234  0.00  0.00    +0.065 C 
ATOM      2  C   UNL     1      -5.468  -3.270  -0.417  0.00  0.00    +0.121 C 
ATOM      3  N   UNL     1      -6.746  -3.696  -0.958  0.00  0.00    -0.283 N 
ATOM      4  C   UNL     1      -6.877  -5.027  -1.275  0.00  0.00    +0.234 C 
ATOM      5  O   UNL     1      -6.021  -5.836  -0.987  0.00  0.00    -0.274 OA
ATOM      6  C   UNL     1      -8.141  -5.435  -2.002  0.00  0.00    +0.204 C 
ATOM      7  N   UNL     1      -8.419  -4.441  -3.056  0.00  0.00    -0.286 N 
ATOM      8  C   UNL     1      -8.328  -3.126  -2.693  0.00  0.00    +0.242 C 
ATOM      9  O   UNL     1      -8.570  -2.222  -3.464  0.00  0.00    -0.273 OA
ATOM     10  C   UNL     1      -7.906  -2.878  -1.268  0.00  0.00    +0.135 C 
ATOM     11  C   UNL     1      -7.844  -1.431  -0.893  0.00  0.00    +0.139 C 
ATOM     12  C   UNL     1      -6.397  -1.036  -0.642  0.00  0.00    -0.027 C 
ATOM     13  C   UNL     1      -6.185   0.075  -1.330  0.00  0.00    -0.000 A 
ATOM     14  C   UNL     1      -5.025   0.978  -1.409  0.00  0.00    +0.010 A 
ATOM     15  C   UNL     1      -5.145   2.037  -2.253  0.00  0.00    +0.001 A 
ATOM     16  C   UNL     1      -6.290   2.286  -3.017  0.00  0.00    +0.002 A 
ATOM     17  C   UNL     1      -7.406   1.514  -3.000  0.00  0.00    +0.026 A 
ATOM     18  C   UNL     1      -7.403   0.375  -2.144  0.00  0.00    +0.043 A 
ATOM     19  N   UNL     1      -8.315  -0.511  -1.928  0.00  0.00    -0.375 N 
ATOM     20  C   UNL     1      -9.040  -3.450  -0.414  0.00  0.00    +0.044 C 
ATOM     21  H   UNL     1      -9.175  -0.550  -2.375  0.00  0.00    +0.160 HD
ENDROOT
BRANCH   1  25
ATOM     22  C   UNL     1      -1.580  -0.220   0.400  0.00  0.00    -0.048 A 
ATOM     23  C   UNL     1      -2.304  -0.399   1.564  0.00  0.00    +0.004 A 
ATOM     24  C   UNL     1      -3.576  -0.938   1.510  0.00  0.00    +0.004 A 
ATOM     25  C   UNL     1      -4.124  -1.297   0.293  0.00  0.00    -0.039 A 
ATOM     26  C   UNL     1      -3.400  -1.117  -0.871  0.00  0.00    +0.004 A 
ATOM     27  C   UNL     1      -2.129  -0.574  -0.818  0.00  0.00    +0.004 A 
BRANCH  22  29
ATOM     28  C   UNL     1      -0.279   1.891   0.344  0.00  0.00    +0.009 C 
ATOM     29  C   UNL     1      -0.193   0.367   0.459  0.00  0.00    +0.032 C 
ENDBRANCH  22  29
ENDBRANCH   1  25
BRANCH   7  30
ATOM     30  C   UNL     1      -8.772  -4.842  -4.420  0.00  0.00    +0.145 C 
BRANCH  30  31
ATOM     31  C   UNL     1      -7.537  -4.827  -5.284  0.00  0.00    -0.012 A 
ATOM     32  C   UNL     1      -7.258  -3.726  -6.071  0.00  0.00    +0.006 A 
ATOM     33  C   UNL     1      -6.126  -3.713  -6.864  0.00  0.00    +0.000 A 
ATOM     34  C   UNL     1      -5.272  -4.800  -6.869  0.00  0.00    +0.001 A 
ATOM     35  C   UNL     1      -5.550  -5.901  -6.082  0.00  0.00    +0.020 A 
ATOM     36  C   UNL     1      -6.681  -5.913  -5.284  0.00  0.00    +0.046 A 
ATOM     37 CL   UNL     1      -7.027  -7.294  -4.290  0.00  0.00    -0.083 Cl
ENDBRANCH  30  31
ENDBRANCH   7  30
TORSDOF 4
