REMARK  Name = ZINC29546523
REMARK  10 active torsions:
REMARK  status: ('A' for Active; 'I' for Inactive)
REMARK    1  A    between atoms: C_1  and  S_2
REMARK    2  A    between atoms: S_2  and  N_5
REMARK    3  A    between atoms: C_13  and  C_15
REMARK    4  A    between atoms: C_15  and  C_17
REMARK    5  A    between atoms: C_15  and  N_26
REMARK    6  A    between atoms: C_17  and  O_18
REMARK    7  A    between atoms: O_18  and  C_19
REMARK    8  A    between atoms: C_19  and  C_20
REMARK    9  A    between atoms: N_26  and  C_27
REMARK   10  A    between atoms: C_27  and  C_28
REMARK                            x       y       z     vdW  Elec       q    Type
REMARK                         _______ _______ _______ _____ _____    ______ ____
ROOT
ATOM      1  N   UNL     1      12.335  -2.291  -2.318  0.00  0.00    -0.206 N 
ATOM      2  C   UNL     1      10.990  -1.715  -2.227  0.00  0.00    +0.143 C 
ATOM      3  C   UNL     1      10.268  -2.557  -1.167  0.00  0.00    +0.018 C 
ATOM      4  C   UNL     1       9.845  -1.679   0.007  0.00  0.00    +0.032 C 
ATOM      5  C   UNL     1       8.860  -0.612  -0.483  0.00  0.00    +0.108 C 
ATOM      6  N   UNL     1       7.753  -1.278  -1.185  0.00  0.00    -0.303 N 
ATOM      7  C   UNL     1       8.066  -2.203  -2.282  0.00  0.00    +0.108 C 
ATOM      8  C   UNL     1       9.056  -3.253  -1.781  0.00  0.00    +0.032 C 
ATOM      9  C   UNL     1       6.475  -1.048  -0.823  0.00  0.00    +0.204 C 
ATOM     10  O   UNL     1       6.230  -0.286   0.088  0.00  0.00    -0.277 OA
ATOM     11  C   UNL     1      11.287  -3.576  -0.721  0.00  0.00    -0.017 A 
ATOM     12  C   UNL     1      12.459  -3.362  -1.431  0.00  0.00    +0.055 A 
ATOM     13  C   UNL     1      13.557  -4.190  -1.192  0.00  0.00    +0.025 A 
ATOM     14  C   UNL     1      13.475  -5.204  -0.261  0.00  0.00    +0.002 A 
ATOM     15  C   UNL     1      12.302  -5.409   0.442  0.00  0.00    +0.000 A 
ATOM     16  C   UNL     1      11.209  -4.594   0.210  0.00  0.00    +0.006 A 
ENDROOT
BRANCH   1  18
ATOM     17  C   UNL     1      14.425  -0.500  -2.363  0.00  0.00    +0.218 C 
ATOM     18  S   UNL     1      13.532  -1.751  -3.327  0.00  0.00    +0.043 S 
ATOM     19  O   UNL     1      14.362  -2.884  -3.545  0.00  0.00    -0.155 OA
ATOM     20  O   UNL     1      12.845  -1.137  -4.409  0.00  0.00    -0.155 OA
ENDBRANCH   1  18
BRANCH   9  21
ATOM     21  C   UNL     1       5.351  -1.738  -1.552  0.00  0.00    +0.043 C 
BRANCH  21  22
ATOM     22  N   UNL     1       4.117  -0.955  -1.403  0.00  0.00    +0.391 N 
ATOM     23  H   UNL     1       3.247  -1.620  -1.499  0.00  0.00    -0.084 HD
ATOM     24  H   UNL     1       4.105  -0.475  -0.413  0.00  0.00    -0.084 HD
BRANCH  22  25
ATOM     25  C   UNL     1       4.029   0.089  -2.433  0.00  0.00    -0.046 C 
BRANCH  25  26
ATOM     26  C   UNL     1       2.711   0.809  -2.307  0.00  0.00    -0.064 A 
ATOM     27  C   UNL     1       2.607   1.924  -1.497  0.00  0.00    +0.002 A 
ATOM     28  C   UNL     1       1.398   2.584  -1.382  0.00  0.00    +0.000 A 
ATOM     29  C   UNL     1       0.293   2.129  -2.077  0.00  0.00    +0.000 A 
ATOM     30  C   UNL     1       0.397   1.014  -2.888  0.00  0.00    +0.000 A 
ATOM     31  C   UNL     1       1.606   0.354  -3.003  0.00  0.00    +0.002 A 
ENDBRANCH  25  26
ENDBRANCH  22  25
ENDBRANCH  21  22
BRANCH  21  32
ATOM     32  C   UNL     1       5.143  -3.135  -0.962  0.00  0.00    +0.153 C 
BRANCH  32  33
ATOM     33  O   UNL     1       4.157  -3.832  -1.727  0.00  0.00    -0.376 OA
BRANCH  33  34
ATOM     34  C   UNL     1       3.886  -5.154  -1.257  0.00  0.00    +0.195 C 
BRANCH  34  35
ATOM     35  C   UNL     1       2.838  -5.793  -2.132  0.00  0.00    -0.022 A 
ATOM     36  C   UNL     1       1.499  -5.660  -1.815  0.00  0.00    +0.006 A 
ATOM     37  C   UNL     1       0.537  -6.242  -2.620  0.00  0.00    +0.000 A 
ATOM     38  C   UNL     1       0.916  -6.965  -3.736  0.00  0.00    +0.000 A 
ATOM     39  C   UNL     1       2.255  -7.102  -4.050  0.00  0.00    +0.000 A 
ATOM     40  C   UNL     1       3.216  -6.516  -3.248  0.00  0.00    +0.006 A 
ENDBRANCH  34  35
ENDBRANCH  33  34
ENDBRANCH  32  33
ENDBRANCH  21  32
ENDBRANCH   9  21
TORSDOF 9
