REMARK  Name = ZINC00086493
REMARK  5 active torsions:
REMARK  status: ('A' for Active; 'I' for Inactive)
REMARK    1  A    between atoms: C_1  and  C_2
REMARK    2  A    between atoms: C_5  and  C_8
REMARK    3  A    between atoms: C_8  and  C_10
REMARK    4  A    between atoms: C_8  and  N_21
REMARK    5  A    between atoms: C_19  and  O_20
REMARK                            x       y       z     vdW  Elec       q    Type
REMARK                         _______ _______ _______ _____ _____    ______ ____
ROOT
ATOM      1  C   UNL     1       0.038  -4.266  -0.032  0.00  0.00    +0.136 C 
ENDROOT
BRANCH   1   2
ATOM      2  C   UNL     1       1.474  -4.708   0.089  0.00  0.00    +0.021 A 
ATOM      3  C   UNL     1       1.937  -5.206   1.304  0.00  0.00    +0.010 A 
ATOM      4  C   UNL     1       3.229  -5.614   1.446  0.00  0.00    +0.010 A 
ATOM      5  C   UNL     1       4.109  -5.532   0.355  0.00  0.00    +0.004 A 
ATOM      6  C   UNL     1       5.451  -5.944   0.464  0.00  0.00    +0.011 A 
ATOM      7  C   UNL     1       6.250  -5.837  -0.638  0.00  0.00    +0.020 A 
ATOM      8  C   UNL     1       5.729  -5.330  -1.827  0.00  0.00    +0.111 A 
ATOM      9  N   UNL     1       4.479  -4.947  -1.924  0.00  0.00    -0.251 NA
ATOM     10  C   UNL     1       3.645  -5.026  -0.883  0.00  0.00    +0.113 A 
ATOM     11  C   UNL     1       2.299  -4.619  -0.995  0.00  0.00    +0.148 A 
BRANCH  11  12
ATOM     12  O   UNL     1       1.828  -4.135  -2.174  0.00  0.00    -0.504 OA
ATOM     13  H   UNL     1       1.922  -3.178  -2.272  0.00  0.00    +0.292 HD
ENDBRANCH  11  12
ENDBRANCH   1   2
BRANCH   1  14
ATOM     14  N   UNL     1      -0.777  -4.979   0.954  0.00  0.00    -0.320 N 
ATOM     15  C   UNL     1      -1.232  -6.264   0.681  0.00  0.00    +0.097 A 
ATOM     16  C   UNL     1      -0.973  -6.838  -0.560  0.00  0.00    +0.041 A 
ATOM     17  C   UNL     1      -1.431  -8.117  -0.818  0.00  0.00    +0.005 A 
ATOM     18  C   UNL     1      -2.137  -8.782   0.176  0.00  0.00    +0.018 A 
ATOM     19  C   UNL     1      -2.358  -8.152   1.384  0.00  0.00    +0.084 A 
ATOM     20  N   UNL     1      -1.904  -6.932   1.605  0.00  0.00    -0.350 N 
ATOM     21  H   UNL     1      -1.000  -4.555   1.797  0.00  0.00    +0.148 HD
ATOM     22  H   UNL     1      -2.070  -6.514   2.464  0.00  0.00    +0.166 HD
ENDBRANCH   1  14
BRANCH   1  27
ATOM     23  C   UNL     1      -0.317   1.421   0.929  0.00  0.00    +0.044 C 
ATOM     24  C   UNL     1      -0.225  -0.062   0.678  0.00  0.00    -0.050 A 
ATOM     25  C   UNL     1      -0.363  -0.556  -0.605  0.00  0.00    +0.004 A 
ATOM     26  C   UNL     1      -0.278  -1.916  -0.835  0.00  0.00    +0.006 A 
ATOM     27  C   UNL     1      -0.054  -2.783   0.218  0.00  0.00    -0.023 A 
ATOM     28  C   UNL     1       0.086  -2.288   1.502  0.00  0.00    +0.006 A 
ATOM     29  C   UNL     1       0.005  -0.928   1.731  0.00  0.00    +0.004 A 
ENDBRANCH   1  27
TORSDOF 4
