REMARK  Name = ZINC02531361
REMARK  10 active torsions:
REMARK  status: ('A' for Active; 'I' for Inactive)
REMARK    1  A    between atoms: C_1  and  O_2
REMARK    2  A    between atoms: O_2  and  C_3
REMARK    3  A    between atoms: C_6  and  C_11
REMARK    4  A    between atoms: C_8  and  O_9
REMARK    5  A    between atoms: O_9  and  C_10
REMARK    6  A    between atoms: N_13  and  N_14
REMARK    7  A    between atoms: C_15  and  C_16
REMARK    8  A    between atoms: C_21  and  O_22
REMARK    9  A    between atoms: O_22  and  C_23
REMARK   10  A    between atoms: C_23  and  C_25
REMARK                            x       y       z     vdW  Elec       q    Type
REMARK                         _______ _______ _______ _____ _____    ______ ____
ROOT
ATOM      1  N   UNL     1       6.108   2.290  -0.047  0.00  0.00    -0.187 NA
ATOM      2  C   UNL     1       7.248   1.672   0.024  0.00  0.00    +0.142 C 
ENDROOT
BRANCH   2   3
ATOM      3  C   UNL     1       7.294   0.201  -0.051  0.00  0.00    +0.038 A 
ATOM      4  C   UNL     1       8.521  -0.465  -0.027  0.00  0.00    +0.028 A 
ATOM      5  C   UNL     1       8.557  -1.843  -0.098  0.00  0.00    +0.019 A 
ATOM      6  C   UNL     1       7.381  -2.568  -0.194  0.00  0.00    +0.019 A 
ATOM      7  C   UNL     1       6.160  -1.920  -0.213  0.00  0.00    +0.048 A 
ATOM      8  C   UNL     1       6.106  -0.537  -0.148  0.00  0.00    +0.141 A 
ATOM      9 BR   UNL     1      10.219  -2.744  -0.065  0.00  0.00    -0.050 Br
BRANCH   8  10
ATOM     10  O   UNL     1       4.907   0.100  -0.172  0.00  0.00    -0.422 OA
BRANCH  10  11
ATOM     11  C   UNL     1       4.454   0.506  -1.374  0.00  0.00    +0.344 C 
ATOM     12  O   UNL     1       5.152   0.380  -2.361  0.00  0.00    -0.245 OA
BRANCH  11  13
ATOM     13  C   UNL     1       3.110   1.106  -1.493  0.00  0.00    +0.059 A 
ATOM     14  C   UNL     1       2.672   1.610  -2.720  0.00  0.00    +0.015 A 
ATOM     15  C   UNL     1       1.415   2.168  -2.823  0.00  0.00    +0.001 A 
ATOM     16  C   UNL     1       0.588   2.229  -1.716  0.00  0.00    +0.000 A 
ATOM     17  C   UNL     1       1.015   1.731  -0.497  0.00  0.00    +0.001 A 
ATOM     18  C   UNL     1       2.270   1.170  -0.379  0.00  0.00    +0.015 A 
ENDBRANCH  11  13
ENDBRANCH  10  11
ENDBRANCH   8  10
ENDBRANCH   2   3
BRANCH   1  21
ATOM     19  C   UNL     1       4.889   4.335  -0.079  0.00  0.00    +0.263 C 
ATOM     20  O   UNL     1       3.857   3.708   0.069  0.00  0.00    -0.268 OA
ATOM     21  N   UNL     1       6.072   3.690  -0.092  0.00  0.00    -0.203 N 
ATOM     22  H   UNL     1       6.899   4.195  -0.132  0.00  0.00    +0.178 HD
BRANCH  19  26
ATOM     23  C   UNL     1       4.769   8.556  -0.552  0.00  0.00    +0.162 A 
ATOM     24  C   UNL     1       5.987   7.890  -0.566  0.00  0.00    +0.050 A 
ATOM     25  C   UNL     1       6.030   6.522  -0.407  0.00  0.00    +0.017 A 
ATOM     26  C   UNL     1       4.845   5.800  -0.243  0.00  0.00    +0.042 A 
ATOM     27  C   UNL     1       3.618   6.470  -0.230  0.00  0.00    +0.062 A 
ATOM     28  C   UNL     1       3.583   7.842  -0.384  0.00  0.00    +0.162 A 
BRANCH  23  30
ATOM     29  C   UNL     1       5.984  10.573  -0.871  0.00  0.00    +0.277 C 
ATOM     30  O   UNL     1       4.732   9.905  -0.704  0.00  0.00    -0.491 OA
ENDBRANCH  23  30
BRANCH  28  31
ATOM     31  O   UNL     1       2.391   8.497  -0.372  0.00  0.00    -0.491 OA
ATOM     32  C   UNL     1       1.216   7.703  -0.196  0.00  0.00    +0.277 C 
ENDBRANCH  28  31
ENDBRANCH  19  26
ENDBRANCH   1  21
TORSDOF 8
