REMARK  Name = ZINC08845564
REMARK  10 active torsions:
REMARK  status: ('A' for Active; 'I' for Inactive)
REMARK    1  A    between atoms: C_1  and  N_60
REMARK    2  A    between atoms: C_2  and  N_60
REMARK    3  A    between atoms: C_3  and  C_4
REMARK    4  A    between atoms: C_3  and  N_60
REMARK    5  A    between atoms: C_4  and  N_5
REMARK    6  A    between atoms: C_8  and  O_34
REMARK    7  A    between atoms: C_9  and  C_23
REMARK    8  A    between atoms: N_17  and  C_20
REMARK    9  A    between atoms: C_20  and  C_21
REMARK   10  A    between atoms: C_23  and  C_25
REMARK                            x       y       z     vdW  Elec       q    Type
REMARK                         _______ _______ _______ _____ _____    ______ ____
ROOT
ATOM      1  N   UNL     1      -0.754   3.308   1.288  0.00  0.00    -0.275 N 
ATOM      2  C   UNL     1      -1.482   4.042   0.424  0.00  0.00    +0.283 C 
ATOM      3  O   UNL     1      -2.269   3.590  -0.385  0.00  0.00    -0.267 OA
ATOM      4  C   UNL     1      -1.182   5.477   0.604  0.00  0.00    +0.189 C 
ATOM      5  C   UNL     1      -0.262   5.619   1.590  0.00  0.00    +0.086 C 
ATOM      6  C   UNL     1       0.052   4.232   2.081  0.00  0.00    +0.174 C 
ATOM      7  C   UNL     1       1.521   3.929   1.956  0.00  0.00    +0.011 A 
ATOM      8  C   UNL     1       2.389   3.889   0.887  0.00  0.00    +0.008 A 
ATOM      9  C   UNL     1       3.720   3.569   1.089  0.00  0.00    +0.000 A 
ATOM     10  C   UNL     1       4.175   3.290   2.365  0.00  0.00    +0.002 A 
ATOM     11  C   UNL     1       3.309   3.329   3.437  0.00  0.00    +0.024 A 
ATOM     12  C   UNL     1       1.967   3.651   3.243  0.00  0.00    +0.043 A 
ATOM     13  N   UNL     1       0.913   3.755   4.152  0.00  0.00    -0.265 N 
ATOM     14  C   UNL     1      -0.244   4.093   3.553  0.00  0.00    +0.253 C 
ATOM     15  O   UNL     1      -1.318   4.254   4.093  0.00  0.00    -0.272 OA
ENDROOT
BRANCH   5  16
ATOM     16  C   UNL     1       0.310   6.877   2.083  0.00  0.00    +0.231 C 
ATOM     17  O   UNL     1       1.286   6.857   2.812  0.00  0.00    -0.283 OA
BRANCH  16  18
ATOM     18  C   UNL     1      -0.295   8.159   1.699  0.00  0.00    +0.176 A 
ATOM     19  C   UNL     1       0.222   9.386   1.985  0.00  0.00    +0.061 A 
ATOM     20  C   UNL     1      -0.705  10.358   1.410  0.00  0.00    +0.021 A 
ATOM     21  C   UNL     1      -0.744  11.755   1.359  0.00  0.00    +0.011 A 
ATOM     22  C   UNL     1      -1.783  12.380   0.732  0.00  0.00    +0.001 A 
ATOM     23  C   UNL     1      -2.801  11.639   0.145  0.00  0.00    +0.004 A 
ATOM     24  C   UNL     1      -2.782  10.261   0.185  0.00  0.00    +0.047 A 
ATOM     25  C   UNL     1      -1.734   9.602   0.818  0.00  0.00    +0.136 A 
ATOM     26  O   UNL     1      -1.449   8.300   1.014  0.00  0.00    -0.452 OA
ENDBRANCH  16  18
ENDBRANCH   5  16
BRANCH   4  27
ATOM     27  O   UNL     1      -1.737   6.490  -0.102  0.00  0.00    -0.502 OA
ATOM     28  H   UNL     1      -1.364   7.362   0.216  0.00  0.00    +0.292 HD
ENDBRANCH   4  27
BRANCH   1  29
ATOM     29  C   UNL     1      -0.773   1.848   1.414  0.00  0.00    +0.091 C 
BRANCH  29  30
ATOM     30  C   UNL     1       0.280   1.242   0.484  0.00  0.00    -0.060 C 
BRANCH  30  33
ATOM     31  C   UNL     1      -1.005  -0.776   0.114  0.00  0.00    -0.097 C 
ATOM     32  C   UNL     1       1.408  -0.824  -0.082  0.00  0.00    -0.097 C 
ATOM     33  N   UNL     1       0.263  -0.227   0.639  0.00  0.00    +0.377 N 
ATOM     34  H   UNL     1       0.340  -0.459   1.636  0.00  0.00    -0.083 HD
ENDBRANCH  30  33
ENDBRANCH  29  30
ENDBRANCH   1  29
BRANCH  13  35
ATOM     35  C   UNL     1       1.050   3.523   5.593  0.00  0.00    +0.140 C 
BRANCH  35  36
ATOM     36  C   UNL     1       0.811   2.066   5.892  0.00  0.00    -0.015 C 
ATOM     37  C   UNL     1       1.714   1.373   6.540  0.00  0.00    +0.005 C 
ENDBRANCH  35  36
ENDBRANCH  13  35
TORSDOF 8
