REMARK  Name = ZINC01320301
REMARK  11 active torsions:
REMARK  status: ('A' for Active; 'I' for Inactive)
REMARK    1  A    between atoms: C_1  and  C_2
REMARK    2  A    between atoms: C_4  and  C_24
REMARK    3  A    between atoms: C_6  and  C_23
REMARK    4  A    between atoms: C_7  and  C_8
REMARK    5  A    between atoms: C_8  and  C_10
REMARK    6  A    between atoms: C_10  and  C_11
REMARK    7  A    between atoms: C_11  and  O_22
REMARK    8  A    between atoms: N_18  and  C_21
REMARK    9  A    between atoms: C_24  and  C_25
REMARK   10  A    between atoms: C_24  and  C_26
REMARK   11  A    between atoms: C_24  and  C_27
REMARK                            x       y       z     vdW  Elec       q    Type
REMARK                         _______ _______ _______ _____ _____    ______ ____
ROOT
ATOM      1  C   UNL     1       4.256   4.828  -1.349  0.00  0.00    +0.167 C 
ATOM      2  O   UNL     1       3.736   5.385  -0.405  0.00  0.00    -0.292 OA
ENDROOT
BRANCH   1   9
ATOM      3  C   UNL     1       2.691   5.902  -3.534  0.00  0.00    +0.044 C 
ATOM      4  C   UNL     1       4.176   6.146  -3.458  0.00  0.00    -0.039 A 
ATOM      5  C   UNL     1       4.804   6.892  -4.433  0.00  0.00    +0.008 A 
ATOM      6  C   UNL     1       6.169   7.113  -4.368  0.00  0.00    -0.041 A 
ATOM      7  C   UNL     1       6.913   6.592  -3.323  0.00  0.00    +0.008 A 
ATOM      8  C   UNL     1       6.298   5.849  -2.338  0.00  0.00    -0.039 A 
ATOM      9  C   UNL     1       4.920   5.621  -2.396  0.00  0.00    +0.023 A 
ATOM     10  C   UNL     1       7.110   5.282  -1.202  0.00  0.00    +0.044 C 
BRANCH   6  11
ATOM     11  C   UNL     1       6.849   7.925  -5.440  0.00  0.00    -0.013 C 
ATOM     12  C   UNL     1       7.912   7.068  -6.131  0.00  0.00    +0.015 C 
ATOM     13  C   UNL     1       5.812   8.380  -6.470  0.00  0.00    +0.015 C 
ATOM     14  C   UNL     1       7.513   9.150  -4.809  0.00  0.00    +0.015 C 
ENDBRANCH   6  11
ENDBRANCH   1   9
BRANCH   1  15
ATOM     15  C   UNL     1       4.222   3.325  -1.450  0.00  0.00    +0.129 C 
BRANCH  15  16
ATOM     16  C   UNL     1       3.613   2.742  -0.173  0.00  0.00    +0.175 C 
ATOM     17  C   UNL     1       3.679   1.232  -0.197  0.00  0.00    +0.015 A 
ATOM     18  C   UNL     1       3.142   0.284  -1.039  0.00  0.00    +0.009 A 
ATOM     19  C   UNL     1       3.379  -1.059  -0.806  0.00  0.00    +0.000 A 
ATOM     20  C   UNL     1       4.158  -1.444   0.269  0.00  0.00    +0.002 A 
ATOM     21  C   UNL     1       4.694  -0.497   1.117  0.00  0.00    +0.024 A 
ATOM     22  C   UNL     1       4.460   0.858   0.889  0.00  0.00    +0.042 A 
ATOM     23  N   UNL     1       4.887   1.988   1.588  0.00  0.00    -0.271 N 
ATOM     24  C   UNL     1       4.438   3.128   1.036  0.00  0.00    +0.256 C 
ATOM     25  O   UNL     1       4.654   4.254   1.432  0.00  0.00    -0.272 OA
ATOM     26  C   UNL     1       5.728   1.937   2.786  0.00  0.00    +0.138 C 
BRANCH  16  27
ATOM     27  O   UNL     1       2.262   3.182  -0.018  0.00  0.00    -0.374 OA
ATOM     28  H   UNL     1       2.161   4.143   0.003  0.00  0.00    +0.211 HD
ENDBRANCH  16  27
ENDBRANCH  15  16
ENDBRANCH   1  15
TORSDOF 5
