REMARK  Name = ZINC21236497
REMARK  10 active torsions:
REMARK  status: ('A' for Active; 'I' for Inactive)
REMARK    1  A    between atoms: C_1  and  C_2
REMARK    2  A    between atoms: C_9  and  C_16
REMARK    3  A    between atoms: C_11  and  O_12
REMARK    4  A    between atoms: C_16  and  O_17
REMARK    5  A    between atoms: O_17  and  C_18
REMARK    6  A    between atoms: C_18  and  C_20
REMARK    7  A    between atoms: C_20  and  C_21
REMARK    8  A    between atoms: C_20  and  C_22
REMARK    9  A    between atoms: C_20  and  O_23
REMARK   10  A    between atoms: O_23  and  C_24
REMARK                            x       y       z     vdW  Elec       q    Type
REMARK                         _______ _______ _______ _____ _____    ______ ____
ROOT
ATOM      1  C   UNL     1      -1.871   0.633  -3.997  0.00  0.00    +0.109 C 
ATOM      2  C   UNL     1      -1.762  -0.851  -3.757  0.00  0.00    +0.214 C 
ATOM      3  O   UNL     1      -2.308  -1.629  -4.510  0.00  0.00    -0.276 OA
ATOM      4  N   UNL     1      -1.058  -1.313  -2.705  0.00  0.00    -0.286 N 
ATOM      5  C   UNL     1      -1.009  -2.683  -2.446  0.00  0.00    +0.037 A 
ATOM      6  C   UNL     1      -0.989  -3.138  -1.127  0.00  0.00    +0.024 A 
ATOM      7  C   UNL     1      -0.948  -4.474  -0.858  0.00  0.00    +0.014 A 
ATOM      8  C   UNL     1      -0.914  -5.396  -1.911  0.00  0.00    +0.024 A 
ATOM      9  C   UNL     1      -0.864  -6.836  -1.651  0.00  0.00    +0.007 A 
ATOM     10  C   UNL     1      -0.834  -7.680  -2.716  0.00  0.00    +0.095 A 
ATOM     11  C   UNL     1      -0.851  -7.158  -4.025  0.00  0.00    +0.285 A 
ATOM     12  O   UNL     1      -0.897  -5.836  -4.257  0.00  0.00    -0.425 OA
ATOM     13  C   UNL     1      -0.929  -4.944  -3.244  0.00  0.00    +0.141 A 
ATOM     14  C   UNL     1      -0.977  -3.582  -3.501  0.00  0.00    +0.070 A 
ATOM     15  H   UNL     1      -0.521  -0.610  -2.051  0.00  0.00    +0.155 HD
ENDROOT
BRANCH  11  16
ATOM     16  O   UNL     1      -0.823  -7.925  -4.971  0.00  0.00    -0.480 OA
ATOM     17  H   UNL     1      -0.836  -7.533  -5.998  0.00  0.00    +0.295 HD
ENDBRANCH  11  16
BRANCH   9  18
ATOM     18  C   UNL     1      -0.847  -7.368  -0.241  0.00  0.00    +0.268 C 
BRANCH  18  19
ATOM     19  O   UNL     1      -0.796  -8.819  -0.272  0.00  0.00    -0.457 OA
BRANCH  19  20
ATOM     20  C   UNL     1      -0.774  -9.452   0.911  0.00  0.00    +0.351 C 
ATOM     21  O   UNL     1      -0.797  -8.816   1.938  0.00  0.00    -0.246 OA
BRANCH  20  22
ATOM     22  C   UNL     1      -0.722 -10.958   0.959  0.00  0.00    +0.200 C 
ATOM     23  C   UNL     1      -1.951 -11.534   0.253  0.00  0.00    +0.067 C 
ATOM     24  C   UNL     1       0.546 -11.446   0.255  0.00  0.00    +0.067 C 
BRANCH  22  25
ATOM     25  O   UNL     1      -0.708 -11.391   2.320  0.00  0.00    -0.475 OA
BRANCH  25  26
ATOM     26  C   UNL     1      -1.784 -11.065   3.083  0.00  0.00    +0.122 A 
ATOM     27  C   UNL     1      -2.770 -10.232   2.573  0.00  0.00    +0.047 A 
ATOM     28  C   UNL     1      -3.866  -9.906   3.348  0.00  0.00    +0.023 A 
ATOM     29  C   UNL     1      -3.976 -10.400   4.636  0.00  0.00    +0.041 A 
ATOM     30  C   UNL     1      -2.991 -11.227   5.148  0.00  0.00    +0.023 A 
ATOM     31  C   UNL     1      -1.896 -11.560   4.374  0.00  0.00    +0.047 A 
ATOM     32 CL   UNL     1      -5.351  -9.984   5.610  0.00  0.00    -0.084 Cl
ENDBRANCH  25  26
ENDBRANCH  22  25
ENDBRANCH  20  22
ENDBRANCH  19  20
ENDBRANCH  18  19
ENDBRANCH   9  18
TORSDOF 7
