REMARK  Name = ZINC39661749
REMARK  8 active torsions:
REMARK  status: ('A' for Active; 'I' for Inactive)
REMARK    1  A    between atoms: C_3  and  O_37
REMARK    2  A    between atoms: C_4  and  O_36
REMARK    3  A    between atoms: C_6  and  C_7
REMARK    4  A    between atoms: C_7  and  C_8
REMARK    5  A    between atoms: C_8  and  N_9
REMARK    6  A    between atoms: C_10  and  C_12
REMARK    7  A    between atoms: C_23  and  C_25
REMARK    8  A    between atoms: C_28  and  C_32
REMARK                            x       y       z     vdW  Elec       q    Type
REMARK                         _______ _______ _______ _____ _____    ______ ____
ROOT
ATOM      1  C   UNL     1      -4.526  -2.535  -2.906  0.00  0.00    +0.100 C 
ATOM      2  C   UNL     1      -5.623  -1.941  -1.995  0.00  0.00    +0.121 C 
ATOM      3  N   UNL     1      -6.559  -1.268  -2.927  0.00  0.00    -0.296 N 
ATOM      4  C   UNL     1      -6.638  -2.181  -4.093  0.00  0.00    +0.115 C 
ATOM      5  C   UNL     1      -5.197  -2.695  -4.281  0.00  0.00    -0.004 C 
ATOM      6  C   UNL     1      -5.209  -4.163  -4.695  0.00  0.00    -0.010 C 
ATOM      7  C   UNL     1      -5.829  -4.290  -6.090  0.00  0.00    -0.082 C 
ATOM      8  N   UNL     1      -5.048  -3.497  -7.048  0.00  0.00    +0.379 N 
ATOM      9  C   UNL     1      -5.119  -2.074  -6.694  0.00  0.00    -0.082 C 
ATOM     10  C   UNL     1      -4.470  -1.854  -5.325  0.00  0.00    -0.010 C 
ATOM     11  C   UNL     1      -7.196  -0.093  -2.753  0.00  0.00    +0.249 C 
ATOM     12  O   UNL     1      -8.010   0.284  -3.574  0.00  0.00    -0.270 OA
ATOM     13  H   UNL     1      -4.086  -3.800  -7.028  0.00  0.00    -0.086 HD
ATOM     14  H   UNL     1      -5.421  -3.631  -7.976  0.00  0.00    -0.086 HD
ENDROOT
BRANCH  11  15
ATOM     15  C   UNL     1      -6.904   0.737  -1.567  0.00  0.00    +0.072 A 
ATOM     16  C   UNL     1      -6.614   0.132  -0.342  0.00  0.00    +0.016 A 
ATOM     17  C   UNL     1      -6.342   0.912   0.762  0.00  0.00    +0.013 A 
ATOM     18  C   UNL     1      -6.355   2.293   0.659  0.00  0.00    +0.058 A 
ATOM     19  C   UNL     1      -6.641   2.901  -0.549  0.00  0.00    +0.051 A 
ATOM     20  C   UNL     1      -6.910   2.131  -1.666  0.00  0.00    +0.136 A 
ATOM     21  F   UNL     1      -7.184   2.725  -2.848  0.00  0.00    -0.205 F 
BRANCH  18  22
ATOM     22  C   UNL     1      -6.057   3.138   1.871  0.00  0.00    +0.418 C 
ATOM     23  F   UNL     1      -4.682   3.388   1.938  0.00  0.00    -0.166 F 
ATOM     24  F   UNL     1      -6.748   4.350   1.776  0.00  0.00    -0.166 F 
ATOM     25  F   UNL     1      -6.464   2.458   3.025  0.00  0.00    -0.166 F 
ENDBRANCH  18  22
ENDBRANCH  11  15
BRANCH   1  27
ATOM     26  N   UNL     1      -2.119  -2.073  -3.244  0.00  0.00    -0.315 N 
ATOM     27  C   UNL     1      -3.354  -1.592  -3.001  0.00  0.00    +0.218 C 
ATOM     28  O   UNL     1      -3.523  -0.399  -2.858  0.00  0.00    -0.275 OA
ATOM     29  H   UNL     1      -1.984  -3.027  -3.358  0.00  0.00    +0.149 HD
BRANCH  26  30
ATOM     30  C   UNL     1      -0.981  -1.156  -3.336  0.00  0.00    +0.109 C 
BRANCH  30  31
ATOM     31  C   UNL     1       0.295  -1.953  -3.617  0.00  0.00    +0.054 C 
BRANCH  31  37
ATOM     32  C   UNL     1       2.190  -0.692  -2.577  0.00  0.00    +0.007 A 
ATOM     33  C   UNL     1       3.265   0.173  -2.659  0.00  0.00    +0.049 A 
ATOM     34  C   UNL     1       3.620   0.724  -3.880  0.00  0.00    +0.158 A 
ATOM     35  C   UNL     1       2.891   0.404  -5.022  0.00  0.00    +0.158 A 
ATOM     36  C   UNL     1       1.815  -0.463  -4.933  0.00  0.00    +0.052 A 
ATOM     37  C   UNL     1       1.466  -1.010  -3.712  0.00  0.00    -0.042 A 
BRANCH  35  38
ATOM     38  O   UNL     1       3.235   0.943  -6.222  0.00  0.00    -0.503 OA
ATOM     39  H   UNL     1       3.873   0.415  -6.722  0.00  0.00    +0.292 HD
ENDBRANCH  35  38
BRANCH  34  40
ATOM     40  O   UNL     1       4.677   1.575  -3.962  0.00  0.00    -0.503 OA
ATOM     41  H   UNL     1       5.522   1.138  -4.137  0.00  0.00    +0.292 HD
ENDBRANCH  34  40
ENDBRANCH  31  37
ENDBRANCH  30  31
ENDBRANCH  26  30
ENDBRANCH   1  27
TORSDOF 8
