REMARK  Name = ZINC59059128
REMARK  13 active torsions:
REMARK  status: ('A' for Active; 'I' for Inactive)
REMARK    1  A    between atoms: C_1  and  C_2
REMARK    2  A    between atoms: C_2  and  O_3
REMARK    3  A    between atoms: O_3  and  C_4
REMARK    4  A    between atoms: C_10  and  C_32
REMARK    5  A    between atoms: C_12  and  C_30
REMARK    6  A    between atoms: C_12  and  C_31
REMARK    7  A    between atoms: N_13  and  C_14
REMARK    8  A    between atoms: C_16  and  O_27
REMARK    9  A    between atoms: C_21  and  C_25
REMARK   10  A    between atoms: C_21  and  C_26
REMARK   11  A    between atoms: C_23  and  C_24
REMARK   12  A    between atoms: O_27  and  C_28
REMARK   13  A    between atoms: C_28  and  C_29
REMARK                            x       y       z     vdW  Elec       q    Type
REMARK                         _______ _______ _______ _____ _____    ______ ____
ROOT
ATOM      1  C   UNL     1       0.182  -6.839   1.266  0.00  0.00    +0.058 A 
ATOM      2  C   UNL     1       0.300  -7.356  -0.019  0.00  0.00    +0.071 A 
ATOM      3  C   UNL     1      -0.655  -8.234  -0.511  0.00  0.00    +0.123 A 
ATOM      4  C   UNL     1      -1.739  -8.592   0.277  0.00  0.00    +0.055 A 
ATOM      5  C   UNL     1      -1.867  -8.064   1.557  0.00  0.00    +0.002 A 
ATOM      6  C   UNL     1      -0.892  -7.203   2.064  0.00  0.00    +0.041 A 
ATOM      7  N   UNL     1      -0.988  -6.735   3.374  0.00  0.00    -0.396 NA
ATOM      8  C   UNL     1      -2.376  -6.463   3.744  0.00  0.00    +0.030 C 
ATOM      9  C   UNL     1      -3.250  -7.662   3.484  0.00  0.00    +0.000 C 
ATOM     10  C   UNL     1      -3.018  -8.417   2.418  0.00  0.00    -0.043 C 
ATOM     11  C   UNL     1      -3.889  -9.607   2.106  0.00  0.00    +0.044 C 
ATOM     12  C   UNL     1      -2.440  -6.109   5.231  0.00  0.00    +0.034 C 
ATOM     13  C   UNL     1      -2.892  -5.278   2.925  0.00  0.00    +0.034 C 
ATOM     14  H   UNL     1      -0.609  -7.429   4.001  0.00  0.00    +0.124 HD
ATOM     15  H   UNL     1      -0.451  -5.885   3.461  0.00  0.00    +0.124 HD
ENDROOT
BRANCH   1  25
ATOM     16  C   UNL     1       0.802  -1.825   1.306  0.00  0.00    +0.121 A 
ATOM     17  C   UNL     1       0.257  -2.670   0.347  0.00  0.00    +0.047 A 
ATOM     18  C   UNL     1       0.362  -4.042   0.483  0.00  0.00    +0.027 A 
ATOM     19  C   UNL     1       1.013  -4.576   1.580  0.00  0.00    +0.042 A 
ATOM     20  C   UNL     1       1.563  -3.727   2.554  0.00  0.00    +0.002 A 
ATOM     21  C   UNL     1       1.461  -2.348   2.407  0.00  0.00    +0.055 A 
ATOM     22  C   UNL     1       2.243  -4.331   3.717  0.00  0.00    -0.043 C 
ATOM     23  C   UNL     1       2.598  -5.609   3.681  0.00  0.00    +0.002 C 
ATOM     24  C   UNL     1       2.333  -6.457   2.466  0.00  0.00    +0.053 C 
ATOM     25  N   UNL     1       1.149  -5.957   1.755  0.00  0.00    -0.289 N 
ATOM     26  C   UNL     1       2.093  -7.904   2.898  0.00  0.00    +0.036 C 
ATOM     27  C   UNL     1       3.545  -6.401   1.534  0.00  0.00    +0.036 C 
ATOM     28  C   UNL     1       2.534  -3.498   4.939  0.00  0.00    +0.044 C 
BRANCH  16  29
ATOM     29  O   UNL     1       0.693  -0.477   1.160  0.00  0.00    -0.492 OA
BRANCH  29  31
ATOM     30  C   UNL     1      -0.019   1.526   0.010  0.00  0.00    +0.048 C 
ATOM     31  C   UNL     1       0.002  -0.004   0.002  0.00  0.00    +0.225 C 
ENDBRANCH  29  31
ENDBRANCH  16  29
ENDBRANCH   1  25
BRANCH   3  32
ATOM     32  O   UNL     1      -0.528  -8.743  -1.764  0.00  0.00    -0.492 OA
BRANCH  32  33
ATOM     33  C   UNL     1      -1.548  -9.641  -2.206  0.00  0.00    +0.225 C 
ATOM     34  C   UNL     1      -1.236 -10.106  -3.630  0.00  0.00    +0.048 C 
ENDBRANCH  32  33
ENDBRANCH   3  32
TORSDOF 5
