REMARK  Name = ZINC10353027
REMARK  8 active torsions:
REMARK  status: ('A' for Active; 'I' for Inactive)
REMARK    1  A    between atoms: C_1  and  C_2
REMARK    2  A    between atoms: C_8  and  C_10
REMARK    3  A    between atoms: C_11  and  C_33
REMARK    4  A    between atoms: N_12  and  C_27
REMARK    5  A    between atoms: C_16  and  C_18
REMARK    6  A    between atoms: C_21  and  O_26
REMARK    7  A    between atoms: C_22  and  O_24
REMARK    8  A    between atoms: O_24  and  C_25
REMARK                            x       y       z     vdW  Elec       q    Type
REMARK                         _______ _______ _______ _____ _____    ______ ____
ROOT
ATOM      1  C   UNL     1       0.009   4.182   0.624  0.00  0.00    +0.056 C 
ATOM      2  C   UNL     1       1.119   3.463   0.349  0.00  0.00    +0.025 C 
ATOM      3  N   UNL     1       1.049   2.306  -0.374  0.00  0.00    -0.255 N 
ATOM      4  C   UNL     1      -0.093   1.802  -0.859  0.00  0.00    +0.142 C 
ATOM      5  S   UNL     1      -0.041   0.341  -1.751  0.00  0.00    -0.018 S 
ATOM      6  N   UNL     1      -1.282   2.409  -0.672  0.00  0.00    -0.315 N 
ATOM      7  C   UNL     1      -1.315   3.662   0.102  0.00  0.00    +0.139 C 
ATOM      8  C   UNL     1       2.456   3.945   0.850  0.00  0.00    +0.062 C 
ATOM      9  H   UNL     1      -2.097   2.028  -1.035  0.00  0.00    +0.149 HD
ENDROOT
BRANCH   1  17
ATOM     10  C   UNL     1      -0.076  10.089   4.154  0.00  0.00    +0.089 C 
ATOM     11  C   UNL     1       0.079   8.592   4.086  0.00  0.00    +0.136 A 
ATOM     12  C   UNL     1       0.020   7.822   2.976  0.00  0.00    +0.091 A 
ATOM     13  C   UNL     1       0.227   6.503   3.461  0.00  0.00    +0.168 A 
ATOM     14  N   UNL     1       0.376   6.610   4.756  0.00  0.00    -0.063 NA
ATOM     15  O   UNL     1       0.302   7.762   5.116  0.00  0.00    -0.358 OA
ATOM     16  N   UNL     1       0.258   5.330   2.709  0.00  0.00    -0.264 N 
ATOM     17  C   UNL     1       0.080   5.380   1.374  0.00  0.00    +0.249 C 
ATOM     18  O   UNL     1      -0.019   6.457   0.814  0.00  0.00    -0.270 OA
ATOM     19  H   UNL     1       0.408   4.478   3.147  0.00  0.00    +0.157 HD
ENDBRANCH   1  17
BRANCH   7  20
ATOM     20  C   UNL     1      -2.232   3.461   1.280  0.00  0.00    -0.019 A 
ATOM     21  C   UNL     1      -2.053   2.375   2.117  0.00  0.00    +0.009 A 
ATOM     22  C   UNL     1      -2.891   2.186   3.200  0.00  0.00    +0.049 A 
ATOM     23  C   UNL     1      -3.914   3.087   3.449  0.00  0.00    +0.158 A 
ATOM     24  C   UNL     1      -4.095   4.180   2.607  0.00  0.00    +0.162 A 
ATOM     25  C   UNL     1      -3.247   4.366   1.526  0.00  0.00    +0.055 A 
BRANCH  24  26
ATOM     26  O   UNL     1      -5.097   5.067   2.847  0.00  0.00    -0.491 OA
ATOM     27  C   UNL     1      -5.223   6.165   1.941  0.00  0.00    +0.277 C 
ENDBRANCH  24  26
BRANCH  23  28
ATOM     28  O   UNL     1      -4.739   2.904   4.514  0.00  0.00    -0.503 OA
ATOM     29  H   UNL     1      -4.434   3.330   5.326  0.00  0.00    +0.292 HD
ENDBRANCH  23  28
ENDBRANCH   7  20
BRANCH   3  30
ATOM     30  C   UNL     1       2.237   1.609  -0.623  0.00  0.00    +0.040 A 
ATOM     31  C   UNL     1       2.660   0.618   0.254  0.00  0.00    +0.024 A 
ATOM     32  C   UNL     1       3.830  -0.071   0.002  0.00  0.00    +0.002 A 
ATOM     33  C   UNL     1       4.586   0.231  -1.115  0.00  0.00    +0.000 A 
ATOM     34  C   UNL     1       4.171   1.221  -1.987  0.00  0.00    +0.002 A 
ATOM     35  C   UNL     1       2.999   1.910  -1.745  0.00  0.00    +0.024 A 
ENDBRANCH   3  30
TORSDOF 5
