REMARK  Name = ZINC25500462
REMARK  7 active torsions:
REMARK  status: ('A' for Active; 'I' for Inactive)
REMARK    1  A    between atoms: C_1  and  C_2
REMARK    2  A    between atoms: C_2  and  O_3
REMARK    3  A    between atoms: O_3  and  C_4
REMARK    4  A    between atoms: C_9  and  N_10
REMARK    5  A    between atoms: N_13  and  C_16
REMARK    6  A    between atoms: C_16  and  C_17
REMARK    7  A    between atoms: C_22  and  C_27
REMARK                            x       y       z     vdW  Elec       q    Type
REMARK                         _______ _______ _______ _____ _____    ______ ____
ROOT
ATOM      1  C   UNL     1      -6.540   0.878   0.107  0.00  0.00    -0.003 C 
ENDROOT
BRANCH   1   2
ATOM      2  C   UNL     1      -7.376   0.382   1.259  0.00  0.00    +0.095 A 
ATOM      3  N   UNL     1      -8.609   0.913   1.466  0.00  0.00    -0.197 NA
ATOM      4  C   UNL     1      -9.389   0.495   2.480  0.00  0.00    +0.282 A 
ATOM      5  O   UNL     1     -10.495   0.979   2.650  0.00  0.00    -0.265 OA
ATOM      6  C   UNL     1      -8.898  -0.521   3.360  0.00  0.00    +0.080 A 
ATOM      7  C   UNL     1      -9.543  -1.130   4.518  0.00  0.00    +0.010 A 
ATOM      8  C   UNL     1      -8.874  -2.088   5.207  0.00  0.00    +0.057 A 
ATOM      9  S   UNL     1      -7.329  -2.225   4.329  0.00  0.00    -0.078 S 
ATOM     10  C   UNL     1      -7.612  -1.007   3.071  0.00  0.00    +0.092 A 
ATOM     11  N   UNL     1      -6.901  -0.547   2.045  0.00  0.00    -0.339 N 
ATOM     12  H   UNL     1      -5.898  -0.961   1.862  0.00  0.00    +0.167 HD
BRANCH   7  13
ATOM     13  C   UNL     1     -10.898  -0.711   4.932  0.00  0.00    +0.021 A 
ATOM     14  C   UNL     1     -11.995  -1.485   5.205  0.00  0.00    +0.016 A 
ATOM     15  C   UNL     1     -13.166  -0.864   5.582  0.00  0.00    +0.008 A 
ATOM     16  C   UNL     1     -13.201   0.490   5.660  0.00  0.00    +0.046 A 
ATOM     17  S   UNL     1     -11.535   0.935   5.200  0.00  0.00    -0.097 S 
ENDBRANCH   7  13
ENDBRANCH   1   2
BRANCH   1  21
ATOM     18  N   UNL     1      -2.417  -0.039   0.024  0.00  0.00    -0.331 N 
ATOM     19  C   UNL     1      -3.160  -0.319   1.261  0.00  0.00    +0.086 C 
ATOM     20  C   UNL     1      -4.452   0.502   1.274  0.00  0.00    -0.059 C 
ATOM     21  N   UNL     1      -5.256   0.164   0.092  0.00  0.00    +0.386 N 
ATOM     22  C   UNL     1      -4.513   0.444  -1.145  0.00  0.00    -0.059 C 
ATOM     23  C   UNL     1      -3.222  -0.377  -1.158  0.00  0.00    +0.086 C 
ATOM     24  H   UNL     1      -5.470  -0.914   0.123  0.00  0.00    -0.081 HD
BRANCH  18  30
ATOM     25  C   UNL     1       0.002  -0.004   0.002  0.00  0.00    +0.141 A 
ATOM     26  C   UNL     1       1.210  -0.682  -0.019  0.00  0.00    +0.047 A 
ATOM     27  C   UNL     1       1.227  -2.065  -0.021  0.00  0.00    +0.004 A 
ATOM     28  C   UNL     1       0.041  -2.775  -0.013  0.00  0.00    +0.002 A 
ATOM     29  C   UNL     1      -1.169  -2.106   0.002  0.00  0.00    +0.027 A 
ATOM     30  C   UNL     1      -1.194  -0.719   0.010  0.00  0.00    +0.072 A 
BRANCH  25  31
ATOM     31  O   UNL     1      -0.016   1.356   0.009  0.00  0.00    -0.490 OA
BRANCH  31  33
ATOM     32  C   UNL     1       1.027   3.536   0.011  0.00  0.00    +0.048 C 
ATOM     33  C   UNL     1       1.248   2.022   0.001  0.00  0.00    +0.226 C 
ENDBRANCH  31  33
ENDBRANCH  25  31
ENDBRANCH  18  30
ENDBRANCH   1  21
TORSDOF 6
