REMARK  Name = ZINC02108806
REMARK  4 active torsions:
REMARK  status: ('A' for Active; 'I' for Inactive)
REMARK    1  A    between atoms: C_11  and  C_31
REMARK    2  A    between atoms: N_19  and  C_23
REMARK    3  A    between atoms: C_23  and  C_24
REMARK    4  A    between atoms: C_24  and  C_25
REMARK                            x       y       z     vdW  Elec       q    Type
REMARK                         _______ _______ _______ _____ _____    ______ ____
ROOT
ATOM      1  C   UNL     1      -6.652  -7.519   4.327  0.00  0.00    +0.001 A 
ATOM      2  C   UNL     1      -6.471  -8.729   4.975  0.00  0.00    +0.002 A 
ATOM      3  C   UNL     1      -5.216  -9.277   5.180  0.00  0.00    +0.026 A 
ATOM      4  C   UNL     1      -4.126  -8.552   4.702  0.00  0.00    +0.047 A 
ATOM      5  C   UNL     1      -4.318  -7.312   4.040  0.00  0.00    +0.003 A 
ATOM      6  C   UNL     1      -5.597  -6.782   3.847  0.00  0.00    +0.010 A 
ATOM      7  C   UNL     1      -2.995  -6.839   3.684  0.00  0.00    -0.015 A 
ATOM      8  C   UNL     1      -2.114  -7.765   4.120  0.00  0.00    +0.046 A 
ATOM      9  N   UNL     1      -2.782  -8.793   4.732  0.00  0.00    -0.356 N 
ATOM     10  H   UNL     1      -2.364  -9.574   5.126  0.00  0.00    +0.166 HD
ATOM     11  C   UNL     1      -0.618  -7.644   3.939  0.00  0.00    +0.154 C 
ATOM     12  N   UNL     1      -0.337  -6.264   3.492  0.00  0.00    -0.276 N 
ATOM     13  C   UNL     1      -1.183  -5.701   2.441  0.00  0.00    +0.167 C 
ATOM     14  C   UNL     1      -2.619  -5.567   2.968  0.00  0.00    +0.069 C 
ATOM     15  C   UNL     1      -0.696  -4.364   1.982  0.00  0.00    +0.237 C 
ATOM     16  O   UNL     1      -1.268  -3.841   1.050  0.00  0.00    -0.274 OA
ATOM     17  N   UNL     1       0.331  -3.715   2.528  0.00  0.00    -0.291 N 
ATOM     18  C   UNL     1       1.105  -4.223   3.648  0.00  0.00    +0.203 C 
ATOM     19  C   UNL     1       0.666  -5.591   4.059  0.00  0.00    +0.234 C 
ATOM     20  O   UNL     1       1.262  -6.125   4.971  0.00  0.00    -0.274 OA
ENDROOT
BRANCH  11  21
ATOM     21  C   UNL     1       0.079  -7.911   5.249  0.00  0.00    -0.021 A 
ATOM     22  C   UNL     1       1.118  -8.820   5.305  0.00  0.00    +0.007 A 
ATOM     23  C   UNL     1       1.762  -9.062   6.505  0.00  0.00    +0.015 A 
ATOM     24  C   UNL     1       1.358  -8.400   7.651  0.00  0.00    +0.018 A 
ATOM     25  C   UNL     1       0.315  -7.493   7.594  0.00  0.00    +0.015 A 
ATOM     26  C   UNL     1      -0.324  -7.249   6.394  0.00  0.00    +0.007 A 
ATOM     27 BR   UNL     1       2.233  -8.734   9.293  0.00  0.00    -0.050 Br
ENDBRANCH  11  21
BRANCH  17  28
ATOM     28  C   UNL     1       0.696  -2.410   1.972  0.00  0.00    +0.112 C 
BRANCH  28  29
ATOM     29  C   UNL     1       1.728  -2.600   0.859  0.00  0.00    +0.049 C 
BRANCH  29  30
ATOM     30  C   UNL     1       2.104  -1.258   0.287  0.00  0.00    -0.072 C 
ATOM     31  C   UNL     1       3.158  -0.671   0.757  0.00  0.00    -0.028 C 
ATOM     32  C   UNL     1       3.649   0.670   0.296  0.00  0.00    +0.027 C 
ATOM     33  C   UNL     1       3.015   1.030  -1.049  0.00  0.00    +0.004 C 
ATOM     34  C   UNL     1       1.500   0.816  -0.943  0.00  0.00    +0.005 C 
ATOM     35  C   UNL     1       1.233  -0.684  -0.792  0.00  0.00    +0.030 C 
ENDBRANCH  29  30
ENDBRANCH  28  29
ENDBRANCH  17  28
TORSDOF 4
