REMARK  Name = ZINC09087554
REMARK  5 active torsions:
REMARK  status: ('A' for Active; 'I' for Inactive)
REMARK    1  A    between atoms: C_1  and  C_2
REMARK    2  A    between atoms: C_2  and  C_4
REMARK    3  A    between atoms: C_6  and  C_34
REMARK    4  A    between atoms: C_16  and  N_20
REMARK    5  A    between atoms: C_21  and  C_23
REMARK                            x       y       z     vdW  Elec       q    Type
REMARK                         _______ _______ _______ _____ _____    ______ ____
ROOT
ATOM      1  C   UNL     1       7.136   1.110   0.780  0.00  0.00    +0.149 C 
ATOM      2  C   UNL     1       7.890   2.390   1.242  0.00  0.00    +0.073 C 
ATOM      3  C   UNL     1       6.788   3.460   1.389  0.00  0.00    +0.127 C 
ATOM      4  C   UNL     1       5.491   2.734   1.065  0.00  0.00    +0.119 C 
ATOM      5  N   UNL     1       5.920   1.639   0.152  0.00  0.00    -0.311 N 
ATOM      6  C   UNL     1       4.862   0.787  -0.061  0.00  0.00    +0.040 A 
ATOM      7  C   UNL     1       4.973  -0.590  -0.046  0.00  0.00    +0.024 A 
ATOM      8  C   UNL     1       3.856  -1.377  -0.259  0.00  0.00    +0.004 A 
ATOM      9  C   UNL     1       2.620  -0.800  -0.484  0.00  0.00    +0.024 A 
ATOM     10  C   UNL     1       2.487   0.582  -0.513  0.00  0.00    +0.042 A 
ATOM     11  C   UNL     1       3.606   1.386  -0.299  0.00  0.00    +0.017 A 
ATOM     12  C   UNL     1       3.516   2.864  -0.320  0.00  0.00    +0.009 C 
ATOM     13  C   UNL     1       4.453   3.552   0.360  0.00  0.00    -0.003 C 
ATOM     14  C   UNL     1       6.781   4.027   2.784  0.00  0.00    +0.180 C 
ATOM     15  O   UNL     1       6.612   3.410   3.814  0.00  0.00    -0.291 OA
ATOM     16  C   UNL     1       7.017   5.466   2.656  0.00  0.00    +0.029 A 
ATOM     17  C   UNL     1       7.099   6.440   3.656  0.00  0.00    +0.012 A 
ATOM     18  C   UNL     1       7.333   7.747   3.247  0.00  0.00    +0.001 A 
ATOM     19  C   UNL     1       7.482   8.082   1.916  0.00  0.00    +0.001 A 
ATOM     20  C   UNL     1       7.405   7.135   0.904  0.00  0.00    +0.012 A 
ATOM     21  C   UNL     1       7.168   5.811   1.288  0.00  0.00    +0.029 A 
ATOM     22  C   UNL     1       7.037   4.614   0.455  0.00  0.00    +0.180 C 
ATOM     23  O   UNL     1       7.115   4.562  -0.754  0.00  0.00    -0.291 OA
ENDROOT
BRANCH   2  24
ATOM     24  C   UNL     1       8.570   2.150   2.566  0.00  0.00    -0.005 A 
ATOM     25  C   UNL     1       7.846   1.658   3.635  0.00  0.00    +0.007 A 
ATOM     26  C   UNL     1       8.470   1.432   4.848  0.00  0.00    +0.000 A 
ATOM     27  C   UNL     1       9.816   1.710   4.996  0.00  0.00    +0.003 A 
ATOM     28  C   UNL     1      10.541   2.207   3.929  0.00  0.00    +0.038 A 
ATOM     29  C   UNL     1       9.918   2.428   2.713  0.00  0.00    +0.127 A 
ATOM     30  F   UNL     1      10.625   2.915   1.669  0.00  0.00    -0.205 F 
ENDBRANCH   2  24
BRANCH  10  31
ATOM     31  N   UNL     1       1.239   1.164  -0.749  0.00  0.00    -0.285 N 
ATOM     32  C   UNL     1       0.291   0.476  -1.416  0.00  0.00    +0.214 C 
ATOM     33  O   UNL     1       0.551  -0.606  -1.897  0.00  0.00    -0.276 OA
ATOM     34  C   UNL     1      -1.092   1.056  -1.571  0.00  0.00    +0.109 C 
ATOM     35  H   UNL     1       1.054   2.062  -0.432  0.00  0.00    +0.155 HD
ENDBRANCH  10  31
BRANCH   1  37
ATOM     36  C   UNL     1       7.787  -0.763   2.478  0.00  0.00    +0.088 C 
ATOM     37  C   UNL     1       6.789   0.243   1.962  0.00  0.00    +0.151 C 
ATOM     38  O   UNL     1       5.712   0.353   2.497  0.00  0.00    -0.296 OA
ENDBRANCH   1  37
TORSDOF 3
