REMARK  Name = ZINC21235777
REMARK  7 active torsions:
REMARK  status: ('A' for Active; 'I' for Inactive)
REMARK    1  A    between atoms: C_1  and  C_2
REMARK    2  A    between atoms: C_2  and  O_3
REMARK    3  A    between atoms: O_3  and  C_4
REMARK    4  A    between atoms: C_5  and  O_31
REMARK    5  A    between atoms: C_7  and  C_11
REMARK    6  A    between atoms: C_22  and  C_25
REMARK    7  A    between atoms: O_31  and  C_32
REMARK                            x       y       z     vdW  Elec       q    Type
REMARK                         _______ _______ _______ _____ _____    ______ ____
ROOT
ATOM      1  C   UNL     1       1.095   3.750  -0.006  0.00  0.00    +0.063 C 
ATOM      2  C   UNL     1       2.246   4.315  -0.839  0.00  0.00    +0.109 C 
ATOM      3  C   UNL     1       3.533   3.656  -0.415  0.00  0.00    +0.218 C 
ATOM      4  O   UNL     1       4.570   4.283  -0.440  0.00  0.00    -0.275 OA
ATOM      5  N   UNL     1       3.534   2.374  -0.011  0.00  0.00    -0.289 N 
ATOM      6  C   UNL     1       2.380   1.632   0.003  0.00  0.00    +0.018 C 
ATOM      7  C   UNL     1       1.176   2.241   0.003  0.00  0.00    +0.020 C 
ATOM      8  C   UNL     1      -0.018   1.501   0.010  0.00  0.00    +0.162 C 
ATOM      9  O   UNL     1      -1.084   2.085   0.018  0.00  0.00    -0.292 OA
ATOM     10  C   UNL     1       0.002  -0.004   0.002  0.00  0.00    +0.088 C 
ATOM     11  C   UNL     1       1.279  -0.480  -0.699  0.00  0.00    +0.032 C 
ATOM     12  C   UNL     1       2.486   0.128   0.020  0.00  0.00    +0.059 C 
ATOM     13  H   UNL     1       4.472   1.901   0.317  0.00  0.00    +0.155 HD
ENDROOT
BRANCH   1  17
ATOM     14  C   UNL     1       1.385   5.215   4.002  0.00  0.00    +0.176 A 
ATOM     15  C   UNL     1       0.252   5.487   3.242  0.00  0.00    +0.163 A 
ATOM     16  C   UNL     1       0.164   5.015   1.942  0.00  0.00    +0.053 A 
ATOM     17  C   UNL     1       1.196   4.267   1.406  0.00  0.00    -0.035 A 
ATOM     18  C   UNL     1       2.321   3.996   2.161  0.00  0.00    +0.023 A 
ATOM     19  C   UNL     1       2.418   4.468   3.458  0.00  0.00    +0.063 A 
ATOM     20 BR   UNL     1       3.960   4.096   4.487  0.00  0.00    -0.046 Br
BRANCH  15  21
ATOM     21  O   UNL     1      -0.765   6.218   3.772  0.00  0.00    -0.491 OA
ATOM     22  C   UNL     1      -1.897   6.458   2.933  0.00  0.00    +0.277 C 
ENDBRANCH  15  21
BRANCH  14  23
ATOM     23  O   UNL     1       1.478   5.680   5.277  0.00  0.00    -0.487 OA
BRANCH  23  25
ATOM     24  C   UNL     1       2.086   7.320   6.945  0.00  0.00    +0.048 C 
ATOM     25  C   UNL     1       2.068   6.969   5.456  0.00  0.00    +0.226 C 
ENDBRANCH  23  25
ENDBRANCH  14  23
ENDBRANCH   1  17
BRANCH  11  26
ATOM     26  C   UNL     1       1.359  -1.984  -0.638  0.00  0.00    -0.044 A 
ATOM     27  C   UNL     1       1.399  -2.625   0.586  0.00  0.00    +0.004 A 
ATOM     28  C   UNL     1       1.467  -4.005   0.642  0.00  0.00    +0.000 A 
ATOM     29  C   UNL     1       1.506  -4.742  -0.526  0.00  0.00    +0.000 A 
ATOM     30  C   UNL     1       1.471  -4.101  -1.750  0.00  0.00    +0.000 A 
ATOM     31  C   UNL     1       1.398  -2.722  -1.806  0.00  0.00    +0.004 A 
ENDBRANCH  11  26
TORSDOF 5
