REMARK  Name = ZINC21664187
REMARK  8 active torsions:
REMARK  status: ('A' for Active; 'I' for Inactive)
REMARK    1  A    between atoms: C_1  and  N_2
REMARK    2  A    between atoms: N_2  and  C_3
REMARK    3  A    between atoms: N_2  and  C_29
REMARK    4  A    between atoms: C_3  and  C_4
REMARK    5  A    between atoms: C_4  and  C_5
REMARK    6  A    between atoms: C_5  and  N_6
REMARK    7  A    between atoms: C_7  and  C_9
REMARK    8  A    between atoms: C_29  and  C_30
REMARK                            x       y       z     vdW  Elec       q    Type
REMARK                         _______ _______ _______ _____ _____    ______ ____
ROOT
ATOM      1  C   UNL     1      -1.330   1.944   0.019  0.00  0.00    +0.078 C 
ATOM      2  C   UNL     1      -1.419   2.815   1.276  0.00  0.00    +0.032 C 
ATOM      3  C   UNL     1      -2.782   3.510   1.312  0.00  0.00    +0.108 C 
ATOM      4  N   UNL     1      -3.849   2.502   1.314  0.00  0.00    -0.308 N 
ATOM      5  C   UNL     1      -3.812   1.686   0.094  0.00  0.00    +0.108 C 
ATOM      6  C   UNL     1      -2.481   0.935   0.022  0.00  0.00    +0.032 C 
ATOM      7  C   UNL     1      -5.090   3.094   1.477  0.00  0.00    +0.184 A 
ATOM      8  N   UNL     1      -5.384   4.357   1.632  0.00  0.00    -0.139 NA
ATOM      9  N   UNL     1      -6.700   4.782   1.784  0.00  0.00    -0.169 N 
ATOM     10  C   UNL     1      -7.139   6.062   1.955  0.00  0.00    +0.279 A 
ATOM     11  O   UNL     1      -6.336   6.981   1.984  0.00  0.00    -0.265 OA
ATOM     12  C   UNL     1      -8.508   6.327   2.096  0.00  0.00    +0.040 A 
ATOM     13  C   UNL     1      -9.402   5.287   2.058  0.00  0.00    +0.053 A 
ATOM     14  N   UNL     1      -8.938   4.046   1.890  0.00  0.00    -0.226 NA
ATOM     15  C   UNL     1      -7.659   3.809   1.762  0.00  0.00    +0.201 A 
ATOM     16  S   UNL     1      -6.702   2.328   1.523  0.00  0.00    -0.013 S 
ATOM     17  C   UNL     1     -10.888   5.481   2.191  0.00  0.00    +0.056 C 
ATOM     18  C   UNL     1     -11.197   6.852   2.790  0.00  0.00    +0.006 C 
ATOM     19  C   UNL     1     -10.430   7.913   1.992  0.00  0.00    +0.005 C 
ATOM     20  C   UNL     1      -8.939   7.757   2.290  0.00  0.00    +0.042 C 
ENDROOT
BRANCH   1  22
ATOM     21  N   UNL     1       1.143   1.898   0.001  0.00  0.00    -0.315 N 
ATOM     22  C   UNL     1      -0.014   1.209   0.009  0.00  0.00    +0.216 C 
ATOM     23  O   UNL     1       0.002  -0.004   0.002  0.00  0.00    -0.276 OA
ATOM     24  H   UNL     1       1.129   2.998   0.007  0.00  0.00    +0.149 HD
BRANCH  21  25
ATOM     25  C   UNL     1       2.422   1.183  -0.015  0.00  0.00    +0.102 C 
BRANCH  25  26
ATOM     26  C   UNL     1       3.571   2.193  -0.020  0.00  0.00    +0.000 C 
BRANCH  26  27
ATOM     27  C   UNL     1       4.907   1.446  -0.037  0.00  0.00    -0.077 C 
BRANCH  27  29
ATOM     28  C   UNL     1       6.050   3.175   1.215  0.00  0.00    -0.096 C 
ATOM     29  N   UNL     1       6.010   2.416  -0.042  0.00  0.00    +0.381 N 
ATOM     30  H   UNL     1       5.830   3.128  -0.862  0.00  0.00    -0.082 HD
BRANCH  29  31
ATOM     31  C   UNL     1       7.295   1.750  -0.296  0.00  0.00    -0.043 C 
BRANCH  31  32
ATOM     32  C   UNL     1       8.359   2.789  -0.538  0.00  0.00    -0.064 A 
ATOM     33  C   UNL     1       8.608   3.238  -1.822  0.00  0.00    +0.002 A 
ATOM     34  C   UNL     1       9.581   4.194  -2.043  0.00  0.00    +0.000 A 
ATOM     35  C   UNL     1      10.313   4.694  -0.982  0.00  0.00    +0.000 A 
ATOM     36  C   UNL     1      10.069   4.241   0.301  0.00  0.00    +0.000 A 
ATOM     37  C   UNL     1       9.091   3.288   0.523  0.00  0.00    +0.002 A 
ENDBRANCH  31  32
ENDBRANCH  29  31
ENDBRANCH  27  29
ENDBRANCH  26  27
ENDBRANCH  25  26
ENDBRANCH  21  25
ENDBRANCH   1  22
TORSDOF 7
