REMARK  Name = ZINC39638553
REMARK  8 active torsions:
REMARK  status: ('A' for Active; 'I' for Inactive)
REMARK    1  A    between atoms: C_1  and  C_2
REMARK    2  A    between atoms: C_2  and  O_3
REMARK    3  A    between atoms: O_3  and  C_4
REMARK    4  A    between atoms: C_9  and  C_10
REMARK    5  A    between atoms: C_10  and  N_11
REMARK    6  A    between atoms: C_12  and  C_14
REMARK    7  A    between atoms: C_25  and  C_27
REMARK    8  A    between atoms: C_33  and  C_35
REMARK                            x       y       z     vdW  Elec       q    Type
REMARK                         _______ _______ _______ _____ _____    ______ ____
ROOT
ATOM      1  C   UNL     1      -5.551   0.325  -2.947  0.00  0.00    +0.100 C 
ATOM      2  C   UNL     1      -4.426   1.285  -3.397  0.00  0.00    +0.121 C 
ATOM      3  N   UNL     1      -5.122   2.335  -4.178  0.00  0.00    -0.299 N 
ATOM      4  C   UNL     1      -6.380   2.577  -3.432  0.00  0.00    +0.115 C 
ATOM      5  C   UNL     1      -6.830   1.177  -2.970  0.00  0.00    -0.004 C 
ATOM      6  C   UNL     1      -7.440   1.254  -1.574  0.00  0.00    -0.010 C 
ATOM      7  C   UNL     1      -8.742   2.057  -1.633  0.00  0.00    -0.082 C 
ATOM      8  N   UNL     1      -9.677   1.410  -2.562  0.00  0.00    +0.379 N 
ATOM      9  C   UNL     1      -9.122   1.423  -3.921  0.00  0.00    -0.082 C 
ATOM     10  C   UNL     1      -7.836   0.593  -3.958  0.00  0.00    -0.010 C 
ATOM     11  C   UNL     1      -4.705   2.934  -5.311  0.00  0.00    +0.236 C 
ATOM     12  O   UNL     1      -5.393   3.784  -5.836  0.00  0.00    -0.274 OA
ATOM     13  H   UNL     1      -9.829   0.455  -2.272  0.00  0.00    -0.086 HD
ATOM     14  H   UNL     1     -10.555   1.906  -2.554  0.00  0.00    -0.086 HD
ENDROOT
BRANCH  11  15
ATOM     15  C   UNL     1      -3.384   2.549  -5.925  0.00  0.00    +0.162 C 
ATOM     16  C   UNL     1      -2.232   3.262  -5.185  0.00  0.00    +0.033 C 
ATOM     17  C   UNL     1      -1.254   3.625  -6.333  0.00  0.00    +0.021 C 
ATOM     18  C   UNL     1      -2.234   3.951  -7.486  0.00  0.00    +0.109 C 
ATOM     19  N   UNL     1      -3.339   2.983  -7.329  0.00  0.00    -0.283 N 
ATOM     20  C   UNL     1      -4.168   2.566  -8.307  0.00  0.00    +0.320 C 
ATOM     21  O   UNL     1      -5.043   1.764  -8.059  0.00  0.00    -0.266 OA
BRANCH  20  22
ATOM     22  C   UNL     1      -4.007   3.097  -9.708  0.00  0.00    +0.470 C 
ATOM     23  F   UNL     1      -4.975   2.522 -10.539  0.00  0.00    -0.162 F 
ATOM     24  F   UNL     1      -4.165   4.487  -9.701  0.00  0.00    -0.162 F 
ATOM     25  F   UNL     1      -2.732   2.774 -10.185  0.00  0.00    -0.162 F 
ENDBRANCH  20  22
ENDBRANCH  11  15
BRANCH   1  27
ATOM     26  N   UNL     1      -5.742  -1.388  -1.173  0.00  0.00    -0.311 N 
ATOM     27  C   UNL     1      -5.282  -0.180  -1.552  0.00  0.00    +0.218 C 
ATOM     28  O   UNL     1      -4.651   0.502  -0.772  0.00  0.00    -0.275 OA
ATOM     29  H   UNL     1      -6.246  -1.933  -1.798  0.00  0.00    +0.149 HD
BRANCH  26  30
ATOM     30  C   UNL     1      -5.481  -1.879   0.182  0.00  0.00    +0.143 C 
BRANCH  30  36
ATOM     31  C   UNL     1      -5.447  -4.365  -0.144  0.00  0.00    +0.125 A 
ATOM     32  C   UNL     1      -6.015  -5.621   0.017  0.00  0.00    +0.046 A 
ATOM     33  C   UNL     1      -7.229  -5.751   0.663  0.00  0.00    +0.004 A 
ATOM     34  C   UNL     1      -7.878  -4.631   1.150  0.00  0.00    +0.001 A 
ATOM     35  C   UNL     1      -7.314  -3.379   0.991  0.00  0.00    +0.009 A 
ATOM     36  C   UNL     1      -6.097  -3.244   0.350  0.00  0.00    +0.011 A 
BRANCH  31  37
ATOM     37  O   UNL     1      -4.253  -4.234  -0.779  0.00  0.00    -0.492 OA
BRANCH  37  39
ATOM     38  C   UNL     1      -2.314  -5.088  -1.942  0.00  0.00    +0.048 C 
ATOM     39  C   UNL     1      -3.640  -5.432  -1.262  0.00  0.00    +0.225 C 
ENDBRANCH  37  39
ENDBRANCH  31  37
ENDBRANCH  30  36
ENDBRANCH  26  30
ENDBRANCH   1  27
TORSDOF 7
