REMARK  Name = ZINC23896884
REMARK  6 active torsions:
REMARK  status: ('A' for Active; 'I' for Inactive)
REMARK    1  A    between atoms: C_1  and  C_2
REMARK    2  A    between atoms: C_2  and  C_4
REMARK    3  A    between atoms: C_2  and  S_11
REMARK    4  A    between atoms: S_11  and  C_12
REMARK    5  A    between atoms: C_15  and  C_18
REMARK    6  A    between atoms: N_16  and  N_17
REMARK                            x       y       z     vdW  Elec       q    Type
REMARK                         _______ _______ _______ _____ _____    ______ ____
ROOT
ATOM      1  C   UNL     1      -0.659   3.561   0.108  0.00  0.00    +0.209 A 
ATOM      2  N   UNL     1       0.641   3.495  -0.071  0.00  0.00    -0.121 NA
ATOM      3  N   UNL     1       1.016   2.267  -0.131  0.00  0.00    -0.127 NA
ATOM      4  C   UNL     1      -0.021   1.474   0.007  0.00  0.00    +0.183 A 
ATOM      5  N   UNL     1      -1.127   2.278   0.159  0.00  0.00    -0.224 N 
ENDROOT
BRANCH   4   6
ATOM      6  C   UNL     1      -0.004  -0.004  -0.006  0.00  0.00    +0.035 A 
ATOM      7  C   UNL     1      -0.929  -0.709  -0.778  0.00  0.00    +0.013 A 
ATOM      8  C   UNL     1      -0.908  -2.088  -0.785  0.00  0.00    +0.001 A 
ATOM      9  C   UNL     1       0.027  -2.774  -0.030  0.00  0.00    +0.001 A 
ATOM     10  C   UNL     1       0.947  -2.082   0.738  0.00  0.00    +0.016 A 
ATOM     11  C   UNL     1       0.940  -0.701   0.750  0.00  0.00    +0.029 A 
ATOM     12 BR   UNL     1       2.204   0.243   1.794  0.00  0.00    -0.050 Br
ENDBRANCH   4   6
BRANCH   5  13
ATOM     13  N   UNL     1      -2.422   1.878   0.327  0.00  0.00    -0.295 N 
ATOM     14  H   UNL     1      -2.667   0.806   0.350  0.00  0.00    +0.163 HD
ATOM     15  H   UNL     1      -3.219   2.627   0.440  0.00  0.00    +0.163 HD
ENDBRANCH   5  13
BRANCH   1  16
ATOM     16  S   UNL     1      -1.622   5.030   0.250  0.00  0.00    -0.077 S 
BRANCH  16  18
ATOM     17  C   UNL     1       0.284   6.193  -1.325  0.00  0.00    +0.024 C 
ATOM     18  C   UNL     1      -0.320   6.276   0.079  0.00  0.00    +0.081 C 
BRANCH  18  19
ATOM     19  C   UNL     1      -0.906   7.647   0.293  0.00  0.00    -0.034 A 
ATOM     20  C   UNL     1      -1.912   8.106  -0.537  0.00  0.00    +0.007 A 
ATOM     21  C   UNL     1      -2.454   9.362  -0.339  0.00  0.00    +0.038 A 
ATOM     22  C   UNL     1      -1.982  10.165   0.685  0.00  0.00    +0.123 A 
ATOM     23  C   UNL     1      -0.970   9.707   1.512  0.00  0.00    +0.038 A 
ATOM     24  C   UNL     1      -0.434   8.449   1.315  0.00  0.00    +0.007 A 
ATOM     25  F   UNL     1      -2.507  11.395   0.876  0.00  0.00    -0.205 F 
ENDBRANCH  18  19
ENDBRANCH  16  18
ENDBRANCH   1  16
TORSDOF 5
