REMARK  Name = ZINC01700706
REMARK  4 active torsions:
REMARK  status: ('A' for Active; 'I' for Inactive)
REMARK    1  A    between atoms: C_2  and  C_9
REMARK    2  A    between atoms: N_10  and  N_11
REMARK    3  A    between atoms: N_14  and  N_17
REMARK    4  A    between atoms: C_18  and  C_19
REMARK                            x       y       z     vdW  Elec       q    Type
REMARK                         _______ _______ _______ _____ _____    ______ ____
ROOT
ATOM      1  N   UNL     1       2.289   5.620  -0.101  0.00  0.00    -0.252 N 
ATOM      2  C   UNL     1       1.019   6.360  -0.092  0.00  0.00    +0.146 C 
ATOM      3  C   UNL     1       1.068   7.403   1.031  0.00  0.00    +0.146 C 
ATOM      4  N   UNL     1       2.326   8.155   0.919  0.00  0.00    -0.252 N 
ATOM      5  C   UNL     1       3.595   7.415   0.911  0.00  0.00    +0.146 C 
ATOM      6  C   UNL     1       3.547   6.372  -0.207  0.00  0.00    +0.146 C 
ENDROOT
BRANCH   1   8
ATOM      7  C   UNL     1       1.183   3.562  -0.018  0.00  0.00    +0.138 C 
ATOM      8  N   UNL     1       2.300   4.222  -0.003  0.00  0.00    -0.192 NA
BRANCH   7  10
ATOM      9  C   UNL     1      -0.002   1.373  -0.042  0.00  0.00    +0.011 A 
ATOM     10  C   UNL     1       1.199   2.087  -0.026  0.00  0.00    -0.004 A 
ATOM     11  C   UNL     1       2.414   1.398  -0.017  0.00  0.00    +0.031 A 
ATOM     12  C   UNL     1       2.421   0.018  -0.024  0.00  0.00    +0.060 A 
ATOM     13  C   UNL     1       1.226  -0.684  -0.040  0.00  0.00    +0.059 A 
ATOM     14  C   UNL     1       0.019  -0.006  -0.049  0.00  0.00    +0.022 A 
ATOM     15 CL   UNL     1       1.243  -2.420  -0.050  0.00  0.00    -0.082 Cl
ATOM     16 CL   UNL     1       3.930  -0.841  -0.013  0.00  0.00    -0.082 Cl
ENDBRANCH   7  10
ENDBRANCH   1   8
BRANCH   4  17
ATOM     17  N   UNL     1       2.314   9.553   0.822  0.00  0.00    -0.192 NA
ATOM     18  C   UNL     1       1.197  10.202   0.938  0.00  0.00    +0.138 C 
BRANCH  18  19
ATOM     19  C   UNL     1       1.199  11.677   0.945  0.00  0.00    -0.004 A 
ATOM     20  C   UNL     1       2.401  12.378   0.821  0.00  0.00    +0.031 A 
ATOM     21  C   UNL     1       2.396  13.758   0.828  0.00  0.00    +0.060 A 
ATOM     22  C   UNL     1       1.200  14.448   0.958  0.00  0.00    +0.059 A 
ATOM     23  C   UNL     1       0.006  13.758   1.082  0.00  0.00    +0.022 A 
ATOM     24  C   UNL     1      -0.002  12.379   1.069  0.00  0.00    +0.011 A 
ATOM     25 CL   UNL     1       1.201  16.184   0.967  0.00  0.00    -0.082 Cl
ATOM     26 CL   UNL     1       3.888  14.631   0.674  0.00  0.00    -0.082 Cl
ENDBRANCH  18  19
ENDBRANCH   4  17
TORSDOF 4
