REMARK  Name = ZINC42867217
REMARK  6 active torsions:
REMARK  status: ('A' for Active; 'I' for Inactive)
REMARK    1  A    between atoms: C_1  and  C_2
REMARK    2  A    between atoms: C_5  and  N_23
REMARK    3  A    between atoms: C_7  and  C_8
REMARK    4  A    between atoms: N_12  and  C_13
REMARK    5  A    between atoms: C_13  and  C_14
REMARK    6  A    between atoms: C_20  and  C_22
REMARK                            x       y       z     vdW  Elec       q    Type
REMARK                         _______ _______ _______ _____ _____    ______ ____
ROOT
ATOM      1  C   UNL     1       0.021   0.153   2.671  0.00  0.00    +0.182 A 
ATOM      2  N   UNL     1       0.070   1.441   2.941  0.00  0.00    -0.108 NA
ATOM      3  N   UNL     1       0.026   1.635   4.210  0.00  0.00    -0.023 NA
ATOM      4  N   UNL     1      -0.053   0.510   4.834  0.00  0.00    -0.044 NA
ATOM      5  N   UNL     1      -0.066  -0.499   3.856  0.00  0.00    -0.225 N 
ENDROOT
BRANCH   1  12
ATOM      6  C   UNL     1       2.046   0.955   0.771  0.00  0.00    +0.044 C 
ATOM      7  C   UNL     1       1.021  -0.086   0.401  0.00  0.00    -0.040 A 
ATOM      8  C   UNL     1       1.048  -0.667  -0.850  0.00  0.00    +0.006 A 
ATOM      9  C   UNL     1       0.110  -1.622  -1.194  0.00  0.00    +0.023 A 
ATOM     10  C   UNL     1      -0.867  -2.002  -0.282  0.00  0.00    +0.025 A 
ATOM     11  C   UNL     1      -0.902  -1.423   0.978  0.00  0.00    +0.034 A 
ATOM     12  C   UNL     1       0.048  -0.465   1.326  0.00  0.00    +0.025 A 
BRANCH  10  13
ATOM     13  N   UNL     1      -1.815  -2.967  -0.634  0.00  0.00    -0.358 N 
ATOM     14  H   UNL     1      -1.790  -3.371  -1.515  0.00  0.00    +0.142 HD
ATOM     15  H   UNL     1      -2.497  -3.232   0.003  0.00  0.00    +0.142 HD
ENDBRANCH  10  13
ENDBRANCH   1  12
BRANCH   5  16
ATOM     16  C   UNL     1      -0.151  -1.946   4.071  0.00  0.00    +0.151 C 
BRANCH  16  17
ATOM     17  C   UNL     1       1.245  -2.502   4.360  0.00  0.00    +0.013 C 
ATOM     18  C   UNL     1       2.127  -2.335   3.120  0.00  0.00    +0.005 C 
ATOM     19  C   UNL     1       3.522  -2.890   3.408  0.00  0.00    +0.000 C 
ATOM     20  C   UNL     1       3.417  -4.375   3.763  0.00  0.00    +0.000 C 
ATOM     21  C   UNL     1       2.536  -4.542   5.003  0.00  0.00    +0.003 C 
ATOM     22  C   UNL     1       1.140  -3.986   4.714  0.00  0.00    -0.009 C 
ATOM     23  C   UNL     1       0.520  -4.748   3.541  0.00  0.00    +0.008 C 
ENDBRANCH  16  17
ENDBRANCH   5  16
TORSDOF 4
