REMARK  Name = ZINC05081411
REMARK  7 active torsions:
REMARK  status: ('A' for Active; 'I' for Inactive)
REMARK    1  A    between atoms: C_1  and  C_2
REMARK    2  A    between atoms: C_2  and  C_4
REMARK    3  A    between atoms: C_2  and  S_10
REMARK    4  A    between atoms: S_10  and  C_11
REMARK    5  A    between atoms: C_16  and  N_20
REMARK    6  A    between atoms: C_17  and  N_19
REMARK    7  A    between atoms: C_21  and  C_23
REMARK                            x       y       z     vdW  Elec       q    Type
REMARK                         _______ _______ _______ _____ _____    ______ ____
ROOT
ATOM      1  C   UNL     1       0.969   3.733   1.423  0.00  0.00    +0.171 A 
ATOM      2  N   UNL     1       1.405   5.023   1.455  0.00  0.00    -0.300 N 
ATOM      3  H   UNL     1       0.747   5.774   1.404  0.00  0.00    +0.171 HD
ATOM      4  C   UNL     1       2.724   5.290   1.557  0.00  0.00    +0.275 A 
ATOM      5  O   UNL     1       3.124   6.444   1.588  0.00  0.00    -0.266 OA
ATOM      6  C   UNL     1       3.627   4.220   1.627  0.00  0.00    +0.139 A 
ATOM      7  C   UNL     1       3.128   2.922   1.590  0.00  0.00    +0.146 A 
ATOM      8  N   UNL     1       1.809   2.722   1.493  0.00  0.00    -0.207 NA
ENDROOT
BRANCH   6   9
ATOM      9  N   UNL     1       5.012   4.454   1.734  0.00  0.00    -0.274 N 
ATOM     10  C   UNL     1       5.654   5.150   0.774  0.00  0.00    +0.251 C 
ATOM     11  O   UNL     1       5.024   5.649  -0.139  0.00  0.00    -0.270 OA
ATOM     12  H   UNL     1       5.504   4.114   2.497  0.00  0.00    +0.155 HD
BRANCH  10  13
ATOM     13  C   UNL     1       7.121   5.307   0.832  0.00  0.00    +0.072 A 
ATOM     14  C   UNL     1       7.847   4.740   1.881  0.00  0.00    +0.016 A 
ATOM     15  C   UNL     1       9.217   4.886   1.926  0.00  0.00    +0.001 A 
ATOM     16  C   UNL     1       9.874   5.601   0.940  0.00  0.00    +0.003 A 
ATOM     17  C   UNL     1       9.164   6.170  -0.100  0.00  0.00    +0.039 A 
ATOM     18  C   UNL     1       7.790   6.028  -0.162  0.00  0.00    +0.135 A 
ATOM     19  F   UNL     1       7.096   6.586  -1.178  0.00  0.00    -0.205 F 
ENDBRANCH  10  13
ENDBRANCH   6   9
BRANCH   7  20
ATOM     20  N   UNL     1       3.991   1.843   1.657  0.00  0.00    -0.341 N 
ATOM     21  H   UNL     1       4.947   1.990   1.730  0.00  0.00    +0.144 HD
ATOM     22  H   UNL     1       3.640   0.939   1.630  0.00  0.00    +0.144 HD
ENDBRANCH   7  20
BRANCH   1  23
ATOM     23  S   UNL     1      -0.758   3.411   1.290  0.00  0.00    -0.080 S 
BRANCH  23  25
ATOM     24  C   UNL     1      -0.029   1.096   0.036  0.00  0.00    +0.024 C 
ATOM     25  C   UNL     1      -0.742   1.601   1.292  0.00  0.00    +0.081 C 
BRANCH  25  26
ATOM     26  C   UNL     1      -2.158   1.086   1.308  0.00  0.00    -0.034 A 
ATOM     27  C   UNL     1      -3.025   1.415   0.283  0.00  0.00    +0.005 A 
ATOM     28  C   UNL     1      -4.322   0.939   0.295  0.00  0.00    +0.000 A 
ATOM     29  C   UNL     1      -4.756   0.140   1.337  0.00  0.00    +0.000 A 
ATOM     30  C   UNL     1      -3.890  -0.185   2.365  0.00  0.00    +0.000 A 
ATOM     31  C   UNL     1      -2.591   0.288   2.350  0.00  0.00    +0.005 A 
ENDBRANCH  25  26
ENDBRANCH  23  25
ENDBRANCH   1  23
TORSDOF 6
