REMARK  Name = ZINC08790039
REMARK  5 active torsions:
REMARK  status: ('A' for Active; 'I' for Inactive)
REMARK    1  A    between atoms: C_1  and  C_2
REMARK    2  A    between atoms: C_2  and  C_4
REMARK    3  A    between atoms: C_2  and  O_36
REMARK    4  A    between atoms: N_12  and  C_15
REMARK    5  A    between atoms: C_15  and  C_16
REMARK                            x       y       z     vdW  Elec       q    Type
REMARK                         _______ _______ _______ _____ _____    ______ ____
ROOT
ATOM      1  C   UNL     1       1.685   2.532  -1.360  0.00  0.00    -0.028 C 
ATOM      2  C   UNL     1       1.403   1.856  -0.001  0.00  0.00    +0.075 C 
ATOM      3  C   UNL     1       2.261   0.560  -0.016  0.00  0.00    +0.088 C 
ATOM      4  C   UNL     1       1.227  -0.543  -0.015  0.00  0.00    +0.225 C 
ATOM      5  O   UNL     1       1.469  -1.730  -0.026  0.00  0.00    -0.275 OA
ATOM      6  N   UNL     1       0.002  -0.004   0.002  0.00  0.00    -0.237 N 
ATOM      7  C   UNL     1      -0.016   1.334   0.009  0.00  0.00    +0.224 C 
ATOM      8  O   UNL     1      -1.015   2.021   0.018  0.00  0.00    -0.275 OA
ATOM      9  C   UNL     1       2.985   0.592  -1.367  0.00  0.00    +0.050 C 
ATOM     10  C   UNL     1       4.371   0.020  -1.263  0.00  0.00    -0.026 A 
ATOM     11  C   UNL     1       5.476   0.346  -0.509  0.00  0.00    +0.024 A 
ATOM     12  C   UNL     1       6.643  -0.387  -0.638  0.00  0.00    +0.041 A 
ATOM     13  C   UNL     1       6.695  -1.448  -1.526  0.00  0.00    +0.022 A 
ATOM     14  C   UNL     1       5.589  -1.778  -2.281  0.00  0.00    +0.025 A 
ATOM     15  C   UNL     1       4.411  -1.045  -2.157  0.00  0.00    +0.036 A 
ATOM     16  N   UNL     1       3.178  -1.184  -2.799  0.00  0.00    -0.286 N 
ATOM     17  C   UNL     1       2.285  -0.262  -2.389  0.00  0.00    +0.211 C 
ATOM     18  O   UNL     1       1.140  -0.144  -2.769  0.00  0.00    -0.277 OA
ATOM     19 CL   UNL     1       8.038   0.021   0.311  0.00  0.00    -0.084 Cl
ATOM     20  H   UNL     1       2.987  -1.865  -3.463  0.00  0.00    +0.155 HD
ATOM     21  N   UNL     1       2.984   1.989  -1.762  0.00  0.00    +0.396 N 
ATOM     22  H   UNL     1       3.742   2.493  -1.286  0.00  0.00    -0.083 HD
ATOM     23  H   UNL     1       3.104   2.071  -2.778  0.00  0.00    -0.083 HD
ENDROOT
BRANCH   1  25
ATOM     24  C   UNL     1       2.097   4.697  -2.538  0.00  0.00    +0.036 C 
ATOM     25  C   UNL     1       1.740   4.052  -1.197  0.00  0.00    +0.098 C 
BRANCH  25  26
ATOM     26  O   UNL     1       2.733   4.391  -0.227  0.00  0.00    -0.394 OA
ATOM     27  H   UNL     1       3.625   4.096  -0.457  0.00  0.00    +0.210 HD
ENDBRANCH  25  26
ENDBRANCH   1  25
BRANCH   6  28
ATOM     28  C   UNL     1      -1.219  -0.813   0.011  0.00  0.00    +0.151 C 
BRANCH  28  29
ATOM     29  C   UNL     1      -1.654  -1.083  -1.406  0.00  0.00    -0.026 A 
ATOM     30  C   UNL     1      -1.191  -2.206  -2.067  0.00  0.00    +0.009 A 
ATOM     31  C   UNL     1      -1.587  -2.458  -3.367  0.00  0.00    +0.050 A 
ATOM     32  C   UNL     1      -2.449  -1.586  -4.011  0.00  0.00    +0.166 A 
ATOM     33  C   UNL     1      -2.915  -0.455  -3.345  0.00  0.00    +0.167 A 
ATOM     34  C   UNL     1      -2.519  -0.211  -2.040  0.00  0.00    +0.054 A 
ATOM     35  O   UNL     1      -3.741   0.236  -4.184  0.00  0.00    -0.453 OA
ATOM     36  C   UNL     1      -3.453  -0.263  -5.504  0.00  0.00    +0.466 C 
ATOM     37  O   UNL     1      -2.983  -1.603  -5.268  0.00  0.00    -0.453 OA
ENDBRANCH  28  29
ENDBRANCH   6  28
TORSDOF 4
