REMARK  Name = ZINC22832410
REMARK  9 active torsions:
REMARK  status: ('A' for Active; 'I' for Inactive)
REMARK    1  A    between atoms: C_1  and  C_2
REMARK    2  A    between atoms: C_2  and  C_3
REMARK    3  A    between atoms: C_3  and  C_4
REMARK    4  A    between atoms: C_4  and  C_5
REMARK    5  A    between atoms: C_8  and  N_11
REMARK    6  A    between atoms: C_15  and  C_33
REMARK    7  A    between atoms: C_16  and  N_20
REMARK    8  A    between atoms: C_21  and  C_23
REMARK    9  A    between atoms: C_25  and  N_30
REMARK                            x       y       z     vdW  Elec       q    Type
REMARK                         _______ _______ _______ _____ _____    ______ ____
ROOT
ATOM      1  N   UNL     1      -6.412   5.629   0.364  0.00  0.00    -0.149 N 
ATOM      2  N   UNL     1      -6.991   4.480   0.411  0.00  0.00    -0.147 NA
ATOM      3  C   UNL     1      -6.070   3.533   0.331  0.00  0.00    +0.114 A 
ATOM      4  C   UNL     1      -6.054   2.126   0.327  0.00  0.00    +0.037 A 
ATOM      5  C   UNL     1      -4.871   1.470   0.220  0.00  0.00    -0.027 A 
ATOM      6  C   UNL     1      -3.654   2.158   0.124  0.00  0.00    +0.039 A 
ATOM      7  C   UNL     1      -3.603   3.522   0.122  0.00  0.00    +0.055 A 
ATOM      8  C   UNL     1      -4.795   4.258   0.224  0.00  0.00    +0.115 A 
ATOM      9  N   UNL     1      -5.133   5.538   0.255  0.00  0.00    -0.147 NA
ATOM     10  C   UNL     1      -4.865  -0.037   0.211  0.00  0.00    +0.046 C 
ENDROOT
BRANCH   1  14
ATOM     11  C   UNL     1      -8.461   9.254   0.543  0.00  0.00    -0.047 A 
ATOM     12  C   UNL     1      -7.083   9.245   0.426  0.00  0.00    +0.006 A 
ATOM     13  C   UNL     1      -6.401   8.045   0.366  0.00  0.00    +0.030 A 
ATOM     14  C   UNL     1      -7.101   6.847   0.424  0.00  0.00    +0.086 A 
ATOM     15  C   UNL     1      -8.485   6.859   0.536  0.00  0.00    +0.030 A 
ATOM     16  C   UNL     1      -9.160   8.062   0.601  0.00  0.00    +0.006 A 
BRANCH  11  17
ATOM     17  C   UNL     1      -9.201  10.564   0.608  0.00  0.00    +0.035 C 
BRANCH  17  18
ATOM     18  C   UNL     1      -9.574  11.011  -0.807  0.00  0.00    +0.004 C 
BRANCH  18  20
ATOM     19  C   UNL     1     -10.699  12.787  -2.157  0.00  0.00    +0.004 C 
ATOM     20  C   UNL     1     -10.326  12.341  -0.742  0.00  0.00    -0.003 C 
ENDBRANCH  18  20
ENDBRANCH  17  18
ENDBRANCH  11  17
ENDBRANCH   1  14
BRANCH   6  21
ATOM     21  N   UNL     1      -2.464   1.430   0.021  0.00  0.00    -0.281 N 
ATOM     22  C   UNL     1      -1.384   1.983  -0.566  0.00  0.00    +0.249 C 
ATOM     23  O   UNL     1      -1.472   3.074  -1.096  0.00  0.00    -0.270 OA
ATOM     24  H   UNL     1      -2.410   0.407   0.420  0.00  0.00    +0.155 HD
BRANCH  22  25
ATOM     25  C   UNL     1      -0.094   1.264  -0.565  0.00  0.00    +0.053 A 
ATOM     26  C   UNL     1       0.011   0.011   0.043  0.00  0.00    +0.047 A 
ATOM     27  C   UNL     1       1.217  -0.657   0.036  0.00  0.00    +0.127 A 
ATOM     28  C   UNL     1       2.323  -0.089  -0.573  0.00  0.00    +0.034 A 
ATOM     29  C   UNL     1       2.228   1.151  -1.177  0.00  0.00    +0.018 A 
ATOM     30  C   UNL     1       1.026   1.831  -1.177  0.00  0.00    +0.030 A 
ATOM     31 BR   UNL     1       0.897   3.527  -2.005  0.00  0.00    -0.050 Br
BRANCH  27  32
ATOM     32  N   UNL     1       1.329  -1.985   0.680  0.00  0.00    +0.056 N 
ATOM     33  O   UNL     1       0.357  -2.486   1.215  0.00  0.00    -0.126 OA
ATOM     34  O   UNL     1       2.394  -2.577   0.674  0.00  0.00    -0.126 OA
ENDBRANCH  27  32
ENDBRANCH  22  25
ENDBRANCH   6  21
TORSDOF 7
