REMARK  Name = ZINC02108545
REMARK  9 active torsions:
REMARK  status: ('A' for Active; 'I' for Inactive)
REMARK    1  A    between atoms: C_1  and  C_2
REMARK    2  A    between atoms: C_6  and  O_28
REMARK    3  A    between atoms: C_12  and  C_13
REMARK    4  A    between atoms: C_13  and  C_14
REMARK    5  A    between atoms: C_19  and  O_27
REMARK    6  A    between atoms: O_28  and  C_29
REMARK    7  A    between atoms: C_29  and  C_30
REMARK    8  A    between atoms: C_33  and  O_36
REMARK    9  A    between atoms: O_36  and  C_37
REMARK                            x       y       z     vdW  Elec       q    Type
REMARK                         _______ _______ _______ _____ _____    ______ ____
ROOT
ATOM      1  C   UNL     1      -7.409   5.502   0.966  0.00  0.00    +0.045 C 
ATOM      2  C   UNL     1      -6.577   5.034   2.132  0.00  0.00    -0.029 A 
ATOM      3  C   UNL     1      -5.311   4.328   1.918  0.00  0.00    +0.021 A 
ATOM      4  C   UNL     1      -4.841   4.069   0.625  0.00  0.00    +0.015 A 
ATOM      5  C   UNL     1      -3.656   3.415   0.454  0.00  0.00    +0.046 A 
ATOM      6  C   UNL     1      -2.916   2.993   1.557  0.00  0.00    +0.125 A 
ATOM      7  C   UNL     1      -3.367   3.240   2.843  0.00  0.00    +0.092 A 
ATOM      8  C   UNL     1      -4.567   3.909   3.036  0.00  0.00    +0.143 A 
ATOM      9  O   UNL     1      -5.025   4.161   4.281  0.00  0.00    -0.422 OA
ATOM     10  C   UNL     1      -6.183   4.808   4.484  0.00  0.00    +0.341 A 
ATOM     11  O   UNL     1      -6.556   5.013   5.625  0.00  0.00    -0.245 OA
ATOM     12  C   UNL     1      -6.980   5.255   3.410  0.00  0.00    +0.049 A 
ENDROOT
BRANCH  12  13
ATOM     13  C   UNL     1      -8.275   5.977   3.679  0.00  0.00    +0.138 C 
BRANCH  13  14
ATOM     14  C   UNL     1      -9.399   4.976   3.766  0.00  0.00    +0.220 C 
ATOM     15  O   UNL     1      -9.170   3.794   3.623  0.00  0.00    -0.275 OA
ATOM     16  N   UNL     1     -10.658   5.395   4.002  0.00  0.00    -0.301 N 
ATOM     17  C   UNL     1     -10.951   6.824   4.178  0.00  0.00    +0.110 C 
ATOM     18  C   UNL     1     -11.698   7.015   5.501  0.00  0.00    +0.054 C 
ATOM     19  C   UNL     1     -12.937   6.115   5.518  0.00  0.00    +0.072 C 
ATOM     20  C   UNL     1     -13.692   6.323   6.834  0.00  0.00    +0.035 C 
ATOM     21  C   UNL     1     -12.771   5.979   8.007  0.00  0.00    +0.003 C 
ATOM     22  C   UNL     1     -12.329   4.518   7.898  0.00  0.00    +0.001 C 
ATOM     23  C   UNL     1     -11.582   4.306   6.580  0.00  0.00    +0.008 C 
ATOM     24  C   UNL     1     -12.506   4.651   5.411  0.00  0.00    +0.038 C 
ATOM     25  C   UNL     1     -11.765   4.433   4.083  0.00  0.00    +0.114 C 
BRANCH  19  26
ATOM     26  O   UNL     1     -13.785   6.447   4.417  0.00  0.00    -0.388 OA
ATOM     27  H   UNL     1     -14.097   7.362   4.422  0.00  0.00    +0.210 HD
ENDBRANCH  19  26
ENDBRANCH  13  14
ENDBRANCH  12  13
BRANCH   6  28
ATOM     28  O   UNL     1      -1.742   2.338   1.370  0.00  0.00    -0.487 OA
BRANCH  28  29
ATOM     29  C   UNL     1      -1.333   2.113   0.020  0.00  0.00    +0.264 C 
BRANCH  29  30
ATOM     30  C   UNL     1      -0.017   1.378   0.010  0.00  0.00    -0.010 A 
ATOM     31  C   UNL     1       1.170   2.088   0.002  0.00  0.00    +0.010 A 
ATOM     32  C   UNL     1       2.377   1.417  -0.013  0.00  0.00    +0.046 A 
ATOM     33  C   UNL     1       2.399   0.030  -0.021  0.00  0.00    +0.120 A 
ATOM     34  C   UNL     1       1.207  -0.680  -0.013  0.00  0.00    +0.046 A 
ATOM     35  C   UNL     1       0.002  -0.004   0.002  0.00  0.00    +0.010 A 
BRANCH  33  36
ATOM     36  O   UNL     1       3.586  -0.632  -0.035  0.00  0.00    -0.495 OA
ATOM     37  C   UNL     1       4.772   0.164  -0.042  0.00  0.00    +0.277 C 
ENDBRANCH  33  36
ENDBRANCH  29  30
ENDBRANCH  28  29
ENDBRANCH   6  28
TORSDOF 7
