REMARK  Name = ZINC66037993
REMARK  10 active torsions:
REMARK  status: ('A' for Active; 'I' for Inactive)
REMARK    1  A    between atoms: C_1  and  C_2
REMARK    2  A    between atoms: C_2  and  C_3
REMARK    3  A    between atoms: C_3  and  C_4
REMARK    4  A    between atoms: C_3  and  N_5
REMARK    5  A    between atoms: C_6  and  C_8
REMARK    6  A    between atoms: C_8  and  C_9
REMARK    7  A    between atoms: C_8  and  N_10
REMARK    8  A    between atoms: N_13  and  C_14
REMARK    9  A    between atoms: N_17  and  C_20
REMARK   10  A    between atoms: C_20  and  C_21
REMARK                            x       y       z     vdW  Elec       q    Type
REMARK                         _______ _______ _______ _____ _____    ______ ____
ROOT
ATOM      1  N   UNL     1       4.640  -0.128   3.837  0.00  0.00    -0.288 N 
ATOM      2  C   UNL     1       5.980  -0.195   3.972  0.00  0.00    +0.300 C 
ATOM      3  O   UNL     1       6.677  -0.427   3.003  0.00  0.00    -0.253 OA
ATOM      4  N   UNL     1       6.546  -0.003   5.180  0.00  0.00    -0.297 N 
ATOM      5  H   UNL     1       4.084   0.058   4.610  0.00  0.00    +0.151 HD
ATOM      6  H   UNL     1       5.989   0.182   5.952  0.00  0.00    +0.151 HD
ENDROOT
BRANCH   4   7
ATOM      7  C   UNL     1       8.002  -0.076   5.326  0.00  0.00    +0.071 C 
ATOM      8  C   UNL     1       8.424  -1.533   5.532  0.00  0.00    +0.004 C 
ATOM      9  C   UNL     1       9.935  -1.593   5.764  0.00  0.00    -0.077 C 
ATOM     10  N   UNL     1      10.283  -0.808   6.954  0.00  0.00    +0.380 N 
ATOM     11  C   UNL     1       9.947   0.604   6.735  0.00  0.00    -0.077 C 
ATOM     12  C   UNL     1       8.436   0.749   6.541  0.00  0.00    +0.004 C 
ATOM     13  H   UNL     1       9.767  -1.156   7.748  0.00  0.00    -0.082 HD
BRANCH  10  14
ATOM     14  C   UNL     1      11.723  -0.931   7.217  0.00  0.00    -0.075 C 
BRANCH  14  15
ATOM     15  C   UNL     1      12.062  -0.237   8.537  0.00  0.00    -0.028 C 
ATOM     16  C   UNL     1      13.578  -0.251   8.746  0.00  0.00    +0.002 C 
ATOM     17  C   UNL     1      13.917   0.444  10.066  0.00  0.00    +0.000 C 
ATOM     18  C   UNL     1      13.236  -0.294  11.221  0.00  0.00    +0.000 C 
ATOM     19  C   UNL     1      11.721  -0.280  11.012  0.00  0.00    +0.000 C 
ATOM     20  C   UNL     1      11.382  -0.975   9.691  0.00  0.00    +0.002 C 
ENDBRANCH  14  15
ENDBRANCH  10  14
ENDBRANCH   4   7
BRANCH   1  21
ATOM     21  C   UNL     1       4.025  -0.336   2.524  0.00  0.00    +0.157 C 
ATOM     22  C   UNL     1       4.021   0.983   1.748  0.00  0.00    +0.038 C 
BRANCH  21  24
ATOM     23  N   UNL     1       1.842  -1.076   1.626  0.00  0.00    -0.311 N 
ATOM     24  C   UNL     1       2.608  -0.817   2.704  0.00  0.00    +0.233 C 
ATOM     25  O   UNL     1       2.157  -0.971   3.819  0.00  0.00    -0.274 OA
ATOM     26  H   UNL     1       2.203  -0.953   0.734  0.00  0.00    +0.149 HD
BRANCH  23  27
ATOM     27  C   UNL     1       0.465  -1.543   1.800  0.00  0.00    +0.070 C 
ATOM     28  C   UNL     1       0.461  -3.062   1.985  0.00  0.00    +0.028 C 
BRANCH  27  30
ATOM     29  C   UNL     1      -0.459   0.344   0.450  0.00  0.00    +0.005 C 
ATOM     30  C   UNL     1      -0.359  -1.178   0.564  0.00  0.00    +0.018 C 
ENDBRANCH  27  30
ENDBRANCH  23  27
ENDBRANCH  21  24
ENDBRANCH   1  21
TORSDOF 7
