REMARK  Name = ZINC04663677
REMARK  9 active torsions:
REMARK  status: ('A' for Active; 'I' for Inactive)
REMARK    1  A    between atoms: C_1  and  C_2
REMARK    2  A    between atoms: C_2  and  C_3
REMARK    3  A    between atoms: C_5  and  C_34
REMARK    4  A    between atoms: C_7  and  N_27
REMARK    5  A    between atoms: C_16  and  C_18
REMARK    6  A    between atoms: C_21  and  C_24
REMARK    7  A    between atoms: C_24  and  C_25
REMARK    8  A    between atoms: C_24  and  C_26
REMARK    9  A    between atoms: N_27  and  C_28
REMARK                            x       y       z     vdW  Elec       q    Type
REMARK                         _______ _______ _______ _____ _____    ______ ____
ROOT
ATOM      1  C   UNL     1       2.550  -2.511  -0.086  0.00  0.00    +0.086 C 
ATOM      2  C   UNL     1       3.656  -2.609  -1.143  0.00  0.00    +0.031 C 
ATOM      3  C   UNL     1       3.635  -1.343  -1.999  0.00  0.00    +0.107 C 
ATOM      4  C   UNL     1       2.246  -1.079  -2.516  0.00  0.00    -0.006 A 
ATOM      5  C   UNL     1       2.087  -0.264  -3.625  0.00  0.00    +0.007 A 
ATOM      6  C   UNL     1       0.825   0.001  -4.120  0.00  0.00    +0.000 A 
ATOM      7  C   UNL     1      -0.289  -0.547  -3.512  0.00  0.00    +0.002 A 
ATOM      8  C   UNL     1      -0.140  -1.362  -2.408  0.00  0.00    +0.024 A 
ATOM      9  C   UNL     1       1.130  -1.630  -1.907  0.00  0.00    +0.042 A 
ATOM     10  N   UNL     1       1.260  -2.463  -0.788  0.00  0.00    -0.264 N 
ATOM     11  C   UNL     1       0.220  -3.207  -0.363  0.00  0.00    +0.251 C 
ATOM     12  O   UNL     1       0.419  -4.275   0.182  0.00  0.00    -0.270 OA
ATOM     13  C   UNL     1       3.411  -3.831  -2.031  0.00  0.00    +0.011 C 
ENDROOT
BRANCH  11  14
ATOM     14  C   UNL     1      -1.163  -2.724  -0.559  0.00  0.00    +0.037 A 
ATOM     15  C   UNL     1      -1.482  -1.389  -0.305  0.00  0.00    +0.013 A 
ATOM     16  C   UNL     1      -2.774  -0.943  -0.497  0.00  0.00    +0.004 A 
ATOM     17  C   UNL     1      -3.755  -1.819  -0.928  0.00  0.00    -0.045 A 
ATOM     18  C   UNL     1      -3.446  -3.145  -1.175  0.00  0.00    +0.004 A 
ATOM     19  C   UNL     1      -2.158  -3.602  -0.994  0.00  0.00    +0.013 A 
BRANCH  17  20
ATOM     20  C   UNL     1      -5.165  -1.326  -1.129  0.00  0.00    +0.013 C 
ATOM     21  C   UNL     1      -5.708  -0.782   0.194  0.00  0.00    +0.012 C 
ATOM     22  C   UNL     1      -5.171  -0.214  -2.179  0.00  0.00    +0.012 C 
ENDBRANCH  17  20
ENDBRANCH  11  14
BRANCH   1  24
ATOM     23  C   UNL     1       3.914  -3.745   1.605  0.00  0.00    +0.006 C 
ATOM     24  C   UNL     1       2.596  -3.737   0.828  0.00  0.00    +0.020 C 
ENDBRANCH   1  24
BRANCH   3  25
ATOM     25  N   UNL     1       4.550  -1.509  -3.132  0.00  0.00    -0.337 N 
ATOM     26  H   UNL     1       4.764  -2.398  -3.455  0.00  0.00    +0.147 HD
BRANCH  25  27
ATOM     27  C   UNL     1       5.111  -0.388  -3.746  0.00  0.00    +0.028 A 
ATOM     28  C   UNL     1       4.800   0.886  -3.288  0.00  0.00    +0.023 A 
ATOM     29  C   UNL     1       5.361   1.993  -3.895  0.00  0.00    +0.002 A 
ATOM     30  C   UNL     1       6.224   1.834  -4.964  0.00  0.00    +0.000 A 
ATOM     31  C   UNL     1       6.532   0.567  -5.426  0.00  0.00    +0.002 A 
ATOM     32  C   UNL     1       5.978  -0.543  -4.820  0.00  0.00    +0.023 A 
ENDBRANCH  25  27
ENDBRANCH   3  25
TORSDOF 5
