REMARK  Name = ZINC02373002
REMARK  8 active torsions:
REMARK  status: ('A' for Active; 'I' for Inactive)
REMARK    1  A    between atoms: C_1  and  O_2
REMARK    2  A    between atoms: O_2  and  C_3
REMARK    3  A    between atoms: C_6  and  C_9
REMARK    4  A    between atoms: C_20  and  C_22
REMARK    5  A    between atoms: C_26  and  O_28
REMARK    6  A    between atoms: O_28  and  C_29
REMARK    7  A    between atoms: C_34  and  S_36
REMARK    8  A    between atoms: S_36  and  C_37
REMARK                            x       y       z     vdW  Elec       q    Type
REMARK                         _______ _______ _______ _____ _____    ______ ____
ROOT
ATOM      1  C   UNL     1      -4.984  -2.387   0.109  0.00  0.00    +0.159 C 
ATOM      2  C   UNL     1      -5.353  -2.791  -1.302  0.00  0.00    +0.025 C 
ATOM      3  C   UNL     1      -5.518  -4.104  -1.563  0.00  0.00    +0.058 C 
ATOM      4  C   UNL     1      -5.889  -4.484  -2.950  0.00  0.00    +0.040 A 
ATOM      5  C   UNL     1      -5.771  -5.791  -3.400  0.00  0.00    +0.013 A 
ATOM      6  C   UNL     1      -6.126  -6.101  -4.699  0.00  0.00    +0.001 A 
ATOM      7  C   UNL     1      -6.597  -5.114  -5.546  0.00  0.00    +0.004 A 
ATOM      8  C   UNL     1      -6.720  -3.809  -5.106  0.00  0.00    +0.046 A 
ATOM      9  C   UNL     1      -6.368  -3.484  -3.807  0.00  0.00    +0.131 A 
ATOM     10  O   UNL     1      -6.484  -2.213  -3.346  0.00  0.00    -0.479 OA
ATOM     11  C   UNL     1      -5.524  -1.767  -2.386  0.00  0.00    +0.234 C 
ATOM     12  N   UNL     1      -5.353  -5.045  -0.602  0.00  0.00    -0.326 N 
ATOM     13  C   UNL     1      -5.032  -4.781   0.647  0.00  0.00    +0.216 C 
ATOM     14  N   UNL     1      -4.833  -3.485   1.071  0.00  0.00    -0.209 N 
ATOM     15  N   UNL     1      -4.510  -3.550   2.429  0.00  0.00    -0.239 N 
ATOM     16  C   UNL     1      -4.524  -4.879   2.764  0.00  0.00    +0.174 C 
ATOM     17  N   UNL     1      -4.835  -5.585   1.707  0.00  0.00    -0.192 NA
ATOM     18  H   UNL     1      -5.479  -5.973  -0.851  0.00  0.00    +0.169 HD
ATOM     19  H   UNL     1      -4.316  -2.804   3.016  0.00  0.00    +0.172 HD
ENDROOT
BRANCH   1  23
ATOM     20  C   UNL     1      -1.297  -0.231  -0.044  0.00  0.00    +0.120 A 
ATOM     21  C   UNL     1      -2.496   0.452   0.095  0.00  0.00    +0.046 A 
ATOM     22  C   UNL     1      -3.687  -0.247   0.143  0.00  0.00    +0.009 A 
ATOM     23  C   UNL     1      -3.684  -1.627   0.055  0.00  0.00    -0.021 A 
ATOM     24  C   UNL     1      -2.490  -2.310  -0.082  0.00  0.00    +0.009 A 
ATOM     25  C   UNL     1      -1.297  -1.615  -0.138  0.00  0.00    +0.046 A 
BRANCH  20  27
ATOM     26  C   UNL     1      -0.201   1.877   0.011  0.00  0.00    +0.277 C 
ATOM     27  O   UNL     1      -0.125   0.454  -0.092  0.00  0.00    -0.495 OA
ENDBRANCH  20  27
ENDBRANCH   1  23
BRANCH  11  28
ATOM     28  C   UNL     1      -4.201  -1.542  -3.072  0.00  0.00    +0.000 A 
ATOM     29  C   UNL     1      -3.518  -0.355  -2.883  0.00  0.00    +0.008 A 
ATOM     30  C   UNL     1      -2.305  -0.145  -3.511  0.00  0.00    +0.004 A 
ATOM     31  C   UNL     1      -1.771  -1.122  -4.329  0.00  0.00    +0.045 A 
ATOM     32  C   UNL     1      -2.454  -2.314  -4.520  0.00  0.00    +0.120 A 
ATOM     33  C   UNL     1      -3.669  -2.525  -3.884  0.00  0.00    +0.053 A 
BRANCH  32  34
ATOM     34  O   UNL     1      -1.931  -3.277  -5.324  0.00  0.00    -0.495 OA
ATOM     35  C   UNL     1      -0.674  -2.994  -5.942  0.00  0.00    +0.277 C 
ENDBRANCH  32  34
ENDBRANCH  11  28
BRANCH  16  36
ATOM     36  S   UNL     1      -4.183  -5.532   4.365  0.00  0.00    -0.092 S 
ATOM     37  C   UNL     1      -4.362  -7.325   4.154  0.00  0.00    +0.093 C 
ENDBRANCH  16  36
TORSDOF 5
