REMARK  Name = ZINC36629330
REMARK  6 active torsions:
REMARK  status: ('A' for Active; 'I' for Inactive)
REMARK    1  A    between atoms: C_6  and  N_7
REMARK    2  A    between atoms: C_8  and  C_10
REMARK    3  A    between atoms: C_10  and  C_11
REMARK    4  A    between atoms: N_15  and  C_29
REMARK    5  A    between atoms: N_17  and  S_18
REMARK    6  A    between atoms: S_18  and  C_21
REMARK                            x       y       z     vdW  Elec       q    Type
REMARK                         _______ _______ _______ _____ _____    ______ ____
ROOT
ATOM      1  C   UNL     1      -2.224  -4.044   0.718  0.00  0.00    +0.149 C 
ATOM      2  C   UNL     1      -3.446  -4.738   0.138  0.00  0.00    +0.235 C 
ATOM      3  O   UNL     1      -4.165  -4.202  -0.677  0.00  0.00    -0.274 OA
ATOM      4  N   UNL     1      -3.675  -5.964   0.579  0.00  0.00    -0.245 N 
ATOM      5  C   UNL     1      -2.859  -6.582   1.507  0.00  0.00    +0.185 C 
ATOM      6  N   UNL     1      -2.979  -7.775   2.014  0.00  0.00    -0.106 NA
ATOM      7  S   UNL     1      -1.601  -5.358   1.847  0.00  0.00    -0.075 S 
ENDROOT
BRANCH   4   8
ATOM      8  C   UNL     1      -4.836  -6.693   0.063  0.00  0.00    +0.083 C 
ATOM      9  C   UNL     1      -4.467  -7.374  -1.256  0.00  0.00    +0.023 C 
ATOM     10  C   UNL     1      -5.680  -8.136  -1.794  0.00  0.00    +0.002 C 
ATOM     11  C   UNL     1      -6.833  -7.157  -2.030  0.00  0.00    +0.000 C 
ATOM     12  C   UNL     1      -7.202  -6.476  -0.711  0.00  0.00    +0.002 C 
ATOM     13  C   UNL     1      -5.989  -5.715  -0.173  0.00  0.00    +0.023 C 
ENDBRANCH   4   8
BRANCH   6  14
ATOM     14  S   UNL     1      -4.443  -8.549   1.977  0.00  0.00    +0.101 S 
ATOM     15  O   UNL     1      -5.385  -7.663   2.566  0.00  0.00    -0.146 OA
ATOM     16  O   UNL     1      -4.598  -9.060   0.661  0.00  0.00    -0.146 OA
BRANCH  14  17
ATOM     17  C   UNL     1      -4.323  -9.942   3.049  0.00  0.00    +0.113 A 
ATOM     18  C   UNL     1      -3.893 -11.159   2.554  0.00  0.00    +0.032 A 
ATOM     19  C   UNL     1      -3.798 -12.253   3.393  0.00  0.00    +0.040 A 
ATOM     20  C   UNL     1      -4.135 -12.129   4.730  0.00  0.00    +0.124 A 
ATOM     21  C   UNL     1      -4.566 -10.910   5.225  0.00  0.00    +0.040 A 
ATOM     22  C   UNL     1      -4.655  -9.816   4.385  0.00  0.00    +0.032 A 
ATOM     23  F   UNL     1      -4.043 -13.198   5.552  0.00  0.00    -0.205 F 
ENDBRANCH  14  17
ENDBRANCH   6  14
BRANCH   1  24
ATOM     24  C   UNL     1      -2.617  -2.786   1.494  0.00  0.00    +0.120 C 
BRANCH  24  26
ATOM     25  N   UNL     1      -1.480  -0.981   2.746  0.00  0.00    -0.285 N 
ATOM     26  C   UNL     1      -1.376  -2.115   2.025  0.00  0.00    +0.219 C 
ATOM     27  O   UNL     1      -0.285  -2.596   1.804  0.00  0.00    -0.275 OA
ATOM     28  H   UNL     1      -2.354  -0.632   2.979  0.00  0.00    +0.155 HD
BRANCH  25  34
ATOM     29  C   UNL     1       0.811  -0.318   2.358  0.00  0.00    +0.026 A 
ATOM     30  C   UNL     1       1.949   0.349   2.766  0.00  0.00    +0.040 A 
ATOM     31  C   UNL     1       1.960   1.029   3.973  0.00  0.00    +0.124 A 
ATOM     32  C   UNL     1       0.829   1.042   4.772  0.00  0.00    +0.040 A 
ATOM     33  C   UNL     1      -0.312   0.377   4.367  0.00  0.00    +0.026 A 
ATOM     34  C   UNL     1      -0.324  -0.305   3.158  0.00  0.00    +0.034 A 
ATOM     35  F   UNL     1       3.074   1.681   4.370  0.00  0.00    -0.205 F 
ENDBRANCH  25  34
ENDBRANCH  24  26
ENDBRANCH   1  24
TORSDOF 6
