REMARK  Name = ZINC46868975
REMARK  8 active torsions:
REMARK  status: ('A' for Active; 'I' for Inactive)
REMARK    1  A    between atoms: C_1  and  C_2
REMARK    2  A    between atoms: C_2  and  C_3
REMARK    3  A    between atoms: C_3  and  N_4
REMARK    4  A    between atoms: C_5  and  C_7
REMARK    5  A    between atoms: C_7  and  N_8
REMARK    6  A    between atoms: C_11  and  N_14
REMARK    7  A    between atoms: N_17  and  C_18
REMARK    8  A    between atoms: N_17  and  C_19
REMARK                            x       y       z     vdW  Elec       q    Type
REMARK                         _______ _______ _______ _____ _____    ______ ____
ROOT
ATOM      1  N   UNL     1       2.029  -4.603  -3.502  0.00  0.00    +0.385 N 
ATOM      2  C   UNL     1       3.436  -4.188  -3.457  0.00  0.00    -0.076 C 
ATOM      3  C   UNL     1       4.138  -4.608  -4.750  0.00  0.00    +0.004 C 
ATOM      4  C   UNL     1       4.058  -6.131  -4.896  0.00  0.00    +0.071 C 
ATOM      5  C   UNL     1       2.588  -6.560  -4.867  0.00  0.00    +0.004 C 
ATOM      6  C   UNL     1       1.944  -6.067  -3.569  0.00  0.00    -0.076 C 
ATOM      7  H   UNL     1       1.588  -4.204  -4.317  0.00  0.00    -0.081 HD
ENDROOT
BRANCH   4   8
ATOM      8  N   UNL     1       4.660  -6.533  -6.170  0.00  0.00    -0.297 N 
ATOM      9  C   UNL     1       5.163  -7.775  -6.314  0.00  0.00    +0.303 C 
ATOM     10  O   UNL     1       5.116  -8.562  -5.388  0.00  0.00    -0.253 OA
ATOM     11  N   UNL     1       5.717  -8.145  -7.486  0.00  0.00    -0.282 N 
ATOM     12  C   UNL     1       5.774  -7.198  -8.601  0.00  0.00    +0.134 C 
ATOM     13  H   UNL     1       4.697  -5.906  -6.908  0.00  0.00    +0.151 HD
BRANCH  11  14
ATOM     14  C   UNL     1       6.264  -9.495  -7.643  0.00  0.00    +0.108 C 
ATOM     15  C   UNL     1       7.760  -9.428  -8.015  0.00  0.00    +0.032 C 
ATOM     16  C   UNL     1       7.720  -9.458  -9.558  0.00  0.00    +0.037 C 
ATOM     17  C   UNL     1       6.434 -10.178  -9.906  0.00  0.00    -0.042 A 
ATOM     18  C   UNL     1       5.596 -10.200  -8.804  0.00  0.00    -0.024 A 
ATOM     19  C   UNL     1       4.357 -10.811  -8.890  0.00  0.00    +0.006 A 
ATOM     20  C   UNL     1       3.952 -11.400 -10.073  0.00  0.00    +0.000 A 
ATOM     21  C   UNL     1       4.787 -11.379 -11.175  0.00  0.00    +0.000 A 
ATOM     22  C   UNL     1       6.029 -10.767 -11.092  0.00  0.00    +0.004 A 
ENDBRANCH  11  14
ENDBRANCH   4   8
BRANCH   1  23
ATOM     23  C   UNL     1       1.341  -4.130  -2.293  0.00  0.00    +0.019 C 
BRANCH  23  25
ATOM     24  N   UNL     1       0.738  -1.962  -1.265  0.00  0.00    -0.317 N 
ATOM     25  C   UNL     1       1.321  -2.623  -2.285  0.00  0.00    +0.196 C 
ATOM     26  O   UNL     1       1.829  -2.004  -3.196  0.00  0.00    -0.278 OA
ATOM     27  H   UNL     1       0.332  -2.457  -0.536  0.00  0.00    +0.149 HD
BRANCH  24  28
ATOM     28  C   UNL     1       0.718  -0.497  -1.257  0.00  0.00    +0.104 C 
BRANCH  28  30
ATOM     29  C   UNL     1      -0.019   1.526   0.010  0.00  0.00    +0.005 C 
ATOM     30  C   UNL     1       0.002  -0.004   0.002  0.00  0.00    +0.015 C 
ENDBRANCH  28  30
ENDBRANCH  24  28
ENDBRANCH  23  25
ENDBRANCH   1  23
TORSDOF 6
