REMARK  Name = ZINC36647927
REMARK  11 active torsions:
REMARK  status: ('A' for Active; 'I' for Inactive)
REMARK    1  A    between atoms: C_1  and  C_2
REMARK    2  A    between atoms: C_2  and  N_3
REMARK    3  A    between atoms: N_3  and  C_4
REMARK    4  A    between atoms: N_3  and  C_6
REMARK    5  A    between atoms: C_4  and  C_5
REMARK    6  A    between atoms: C_6  and  C_7
REMARK    7  A    between atoms: C_7  and  N_8
REMARK    8  A    between atoms: C_14  and  C_18
REMARK    9  A    between atoms: C_19  and  C_21
REMARK   10  A    between atoms: N_26  and  S_28
REMARK   11  A    between atoms: S_28  and  C_31
REMARK                            x       y       z     vdW  Elec       q    Type
REMARK                         _______ _______ _______ _____ _____    ______ ____
ROOT
ATOM      1  N   UNL     1       2.467  -3.375  -0.499  0.00  0.00    -0.252 N 
ATOM      2  C   UNL     1       1.914  -4.098  -1.544  0.00  0.00    +0.168 A 
ATOM      3  N   UNL     1       1.237  -3.660  -2.580  0.00  0.00    -0.224 NA
ATOM      4  C   UNL     1       0.752  -4.487  -3.532  0.00  0.00    +0.080 A 
ATOM      5  C   UNL     1       0.012  -4.148  -4.688  0.00  0.00    +0.029 A 
ATOM      6  C   UNL     1      -0.408  -5.118  -5.560  0.00  0.00    +0.005 A 
ATOM      7  C   UNL     1      -0.126  -6.459  -5.343  0.00  0.00    -0.049 A 
ATOM      8  C   UNL     1       0.596  -6.827  -4.222  0.00  0.00    +0.020 A 
ATOM      9  C   UNL     1       1.021  -5.862  -3.343  0.00  0.00    +0.041 A 
ATOM     10  S   UNL     1       1.949  -5.862  -1.828  0.00  0.00    -0.052 S 
ATOM     11  C   UNL     1      -0.602  -7.505  -6.319  0.00  0.00    +0.044 C 
ATOM     12  C   UNL     1       3.022  -4.019   0.546  0.00  0.00    +0.226 C 
ATOM     13  O   UNL     1       3.413  -3.391   1.507  0.00  0.00    -0.275 OA
ENDROOT
BRANCH  12  14
ATOM     14  C   UNL     1       3.158  -5.520   0.521  0.00  0.00    +0.091 C 
ATOM     15  C   UNL     1       1.793  -6.161   0.781  0.00  0.00    +0.015 C 
ATOM     16  C   UNL     1       1.923  -7.684   0.723  0.00  0.00    +0.018 C 
ATOM     17  C   UNL     1       2.892  -8.152   1.813  0.00  0.00    +0.109 C 
ATOM     18  N   UNL     1       4.163  -7.431   1.657  0.00  0.00    -0.175 NA
ATOM     19  C   UNL     1       4.142  -5.963   1.608  0.00  0.00    +0.122 C 
BRANCH  18  20
ATOM     20  S   UNL     1       5.593  -8.258   1.538  0.00  0.00    +0.067 S 
ATOM     21  O   UNL     1       6.615  -7.364   1.955  0.00  0.00    -0.152 OA
ATOM     22  O   UNL     1       5.385  -9.520   2.157  0.00  0.00    -0.152 OA
BRANCH  20  23
ATOM     23  C   UNL     1       5.870  -8.577  -0.173  0.00  0.00    +0.143 A 
ATOM     24  C   UNL     1       6.528  -7.822  -1.086  0.00  0.00    +0.036 A 
ATOM     25  C   UNL     1       6.623  -8.276  -2.389  0.00  0.00    +0.010 A 
ATOM     26  C   UNL     1       6.054  -9.462  -2.714  0.00  0.00    +0.047 A 
ATOM     27  S   UNL     1       5.362  -9.980  -1.152  0.00  0.00    -0.077 S 
ENDBRANCH  20  23
ENDBRANCH  18  20
ENDBRANCH  12  14
BRANCH   1  28
ATOM     28  C   UNL     1       2.447  -1.911  -0.530  0.00  0.00    +0.097 C 
BRANCH  28  29
ATOM     29  C   UNL     1       1.227  -1.400   0.240  0.00  0.00    -0.059 C 
BRANCH  29  30
ATOM     30  N   UNL     1       1.208   0.068   0.209  0.00  0.00    +0.380 N 
ATOM     31  H   UNL     1       2.084   0.424   0.561  0.00  0.00    -0.082 HD
BRANCH  30  33
ATOM     32  C   UNL     1       1.118   2.051  -1.225  0.00  0.00    -0.017 C 
ATOM     33  C   UNL     1       1.013   0.526  -1.173  0.00  0.00    -0.082 C 
ENDBRANCH  30  33
BRANCH  30  34
ATOM     34  C   UNL     1       0.107   0.561   1.047  0.00  0.00    -0.082 C 
ATOM     35  C   UNL     1       0.375   0.195   2.508  0.00  0.00    -0.017 C 
ENDBRANCH  30  34
ENDBRANCH  29  30
ENDBRANCH  28  29
ENDBRANCH   1  28
TORSDOF 8
