REMARK  Name = ZINC12250147
REMARK  13 active torsions:
REMARK  status: ('A' for Active; 'I' for Inactive)
REMARK    1  A    between atoms: C_1  and  C_2
REMARK    2  A    between atoms: C_2  and  C_3
REMARK    3  A    between atoms: C_7  and  C_39
REMARK    4  A    between atoms: C_8  and  N_9
REMARK    5  A    between atoms: C_10  and  C_12
REMARK    6  A    between atoms: C_13  and  C_38
REMARK    7  A    between atoms: C_15  and  S_26
REMARK    8  A    between atoms: C_16  and  C_24
REMARK    9  A    between atoms: C_17  and  C_19
REMARK   10  A    between atoms: S_26  and  C_27
REMARK   11  A    between atoms: C_27  and  C_28
REMARK   12  A    between atoms: N_30  and  C_31
REMARK   13  A    between atoms: C_36  and  C_37
REMARK                            x       y       z     vdW  Elec       q    Type
REMARK                         _______ _______ _______ _____ _____    ______ ____
ROOT
ATOM      1  C   UNL     1       3.245   8.117   1.222  0.00  0.00    +0.047 C 
ATOM      2  C   UNL     1       2.581   7.085   1.767  0.00  0.00    +0.015 C 
ATOM      3  N   UNL     1       2.308   5.959   1.038  0.00  0.00    -0.312 N 
ATOM      4  C   UNL     1       3.001   5.702  -0.124  0.00  0.00    +0.080 C 
ATOM      5  C   UNL     1       3.693   6.692  -0.748  0.00  0.00    +0.072 C 
ATOM      6  C   UNL     1       3.710   8.093  -0.205  0.00  0.00    +0.134 C 
ATOM      7  C   UNL     1       2.130   7.167   3.202  0.00  0.00    +0.061 C 
ATOM      8  H   UNL     1       1.534   5.257   1.380  0.00  0.00    +0.152 HD
ENDROOT
BRANCH   6   9
ATOM      9  C   UNL     1       5.116   8.632  -0.278  0.00  0.00    +0.118 A 
ATOM     10  C   UNL     1       5.548   9.592  -1.115  0.00  0.00    +0.045 A 
ATOM     11  C   UNL     1       6.921   9.786  -0.842  0.00  0.00    +0.041 A 
ATOM     12  C   UNL     1       7.248   8.927   0.140  0.00  0.00    +0.195 A 
ATOM     13  O   UNL     1       6.151   8.230   0.477  0.00  0.00    -0.467 OA
ENDBRANCH   6   9
BRANCH   1  15
ATOM     14  N   UNL     1       4.043  10.362   1.451  0.00  0.00    -0.281 N 
ATOM     15  C   UNL     1       3.514   9.258   2.015  0.00  0.00    +0.247 C 
ATOM     16  O   UNL     1       3.268   9.243   3.208  0.00  0.00    -0.270 OA
ATOM     17  H   UNL     1       4.368  10.340   0.400  0.00  0.00    +0.155 HD
BRANCH  14  23
ATOM     18  C   UNL     1       5.391  12.213   2.217  0.00  0.00    -0.026 A 
ATOM     19  C   UNL     1       5.522  13.371   2.959  0.00  0.00    +0.005 A 
ATOM     20  C   UNL     1       4.449  13.854   3.684  0.00  0.00    +0.001 A 
ATOM     21  C   UNL     1       3.241  13.181   3.670  0.00  0.00    +0.005 A 
ATOM     22  C   UNL     1       3.102  12.026   2.926  0.00  0.00    -0.029 A 
ATOM     23  C   UNL     1       4.180  11.534   2.201  0.00  0.00    +0.040 A 
ATOM     24  C   UNL     1       1.783  11.296   2.906  0.00  0.00    +0.045 C 
BRANCH  18  26
ATOM     25  C   UNL     1       6.541  12.293   0.022  0.00  0.00    +0.009 C 
ATOM     26  C   UNL     1       6.561  11.687   1.426  0.00  0.00    +0.033 C 
ENDBRANCH  18  26
ENDBRANCH  14  23
ENDBRANCH   1  15
BRANCH   5  27
ATOM     27  C   UNL     1       4.417   6.395  -1.947  0.00  0.00    +0.098 C 
ATOM     28  N   UNL     1       4.992   6.159  -2.898  0.00  0.00    -0.191 NA
ENDBRANCH   5  27
BRANCH   4  29
ATOM     29  S   UNL     1       2.996   4.076  -0.803  0.00  0.00    -0.100 S 
BRANCH  29  30
ATOM     30  C   UNL     1       1.959   3.229   0.415  0.00  0.00    +0.171 C 
BRANCH  30  31
ATOM     31  C   UNL     1       1.811   1.780   0.029  0.00  0.00    +0.227 C 
ATOM     32  O   UNL     1       2.353   1.361  -0.972  0.00  0.00    -0.275 OA
ATOM     33  N   UNL     1       1.076   0.950   0.795  0.00  0.00    -0.285 N 
ATOM     34  H   UNL     1       0.521   1.346   1.659  0.00  0.00    +0.155 HD
BRANCH  33  35
ATOM     35  C   UNL     1       1.019  -0.415   0.492  0.00  0.00    +0.036 A 
ATOM     36  C   UNL     1       1.071  -0.837  -0.830  0.00  0.00    +0.023 A 
ATOM     37  C   UNL     1       1.020  -2.185  -1.125  0.00  0.00    +0.002 A 
ATOM     38  C   UNL     1       0.905  -3.114  -0.107  0.00  0.00    +0.000 A 
ATOM     39  C   UNL     1       0.848  -2.696   1.210  0.00  0.00    +0.005 A 
ATOM     40  C   UNL     1       0.904  -1.349   1.512  0.00  0.00    -0.029 A 
ATOM     41  C   UNL     1       0.840  -0.895   2.948  0.00  0.00    +0.045 C 
ENDBRANCH  33  35
ENDBRANCH  30  31
ENDBRANCH  29  30
ENDBRANCH   4  29
TORSDOF 9
