REMARK  Name = ZINC24759250
REMARK  7 active torsions:
REMARK  status: ('A' for Active; 'I' for Inactive)
REMARK    1  A    between atoms: C_1  and  O_2
REMARK    2  A    between atoms: O_2  and  C_3
REMARK    3  A    between atoms: C_8  and  C_9
REMARK    4  A    between atoms: C_9  and  N_10
REMARK    5  A    between atoms: N_22  and  C_25
REMARK    6  A    between atoms: C_25  and  N_26
REMARK    7  A    between atoms: C_30  and  C_32
REMARK                            x       y       z     vdW  Elec       q    Type
REMARK                         _______ _______ _______ _____ _____    ______ ____
ROOT
ATOM      1  N   UNL     1      -2.269   8.717  -5.142  0.00  0.00    -0.272 N 
ATOM      2  C   UNL     1      -2.995   9.804  -5.470  0.00  0.00    +0.263 A 
ATOM      3  O   UNL     1      -2.562  10.620  -6.261  0.00  0.00    -0.267 OA
ATOM      4  C   UNL     1      -4.323   9.989  -4.855  0.00  0.00    +0.064 A 
ATOM      5  C   UNL     1      -5.113  11.096  -5.160  0.00  0.00    +0.015 A 
ATOM      6  C   UNL     1      -6.349  11.235  -4.565  0.00  0.00    +0.001 A 
ATOM      7  C   UNL     1      -6.807  10.282  -3.669  0.00  0.00    +0.002 A 
ATOM      8  C   UNL     1      -6.033   9.181  -3.359  0.00  0.00    +0.027 A 
ATOM      9  C   UNL     1      -4.788   9.025  -3.948  0.00  0.00    +0.064 A 
ATOM     10  N   UNL     1      -3.988   7.923  -3.651  0.00  0.00    -0.257 N 
ATOM     11  C   UNL     1      -2.753   7.777  -4.241  0.00  0.00    +0.238 A 
ATOM     12  N   UNL     1      -2.213   6.674  -3.799  0.00  0.00    -0.133 NA
ATOM     13  N   UNL     1      -3.107   6.079  -2.901  0.00  0.00    -0.255 N 
ATOM     14  C   UNL     1      -4.197   6.869  -2.834  0.00  0.00    +0.182 A 
ATOM     15  S   UNL     1      -5.592   6.590  -1.881  0.00  0.00    -0.011 S 
ENDROOT
BRANCH   1  16
ATOM     16  C   UNL     1      -0.949   8.523  -5.747  0.00  0.00    +0.167 C 
BRANCH  16  22
ATOM     17  C   UNL     1      -1.494   8.372  -8.190  0.00  0.00    +0.125 A 
ATOM     18  C   UNL     1      -1.624   7.645  -9.364  0.00  0.00    +0.046 A 
ATOM     19  C   UNL     1      -1.354   6.291  -9.370  0.00  0.00    +0.004 A 
ATOM     20  C   UNL     1      -0.953   5.659  -8.207  0.00  0.00    +0.001 A 
ATOM     21  C   UNL     1      -0.818   6.382  -7.037  0.00  0.00    +0.009 A 
ATOM     22  C   UNL     1      -1.092   7.736  -7.024  0.00  0.00    +0.014 A 
BRANCH  17  24
ATOM     23  C   UNL     1      -2.168  10.293  -9.417  0.00  0.00    +0.277 C 
ATOM     24  O   UNL     1      -1.759   9.705  -8.181  0.00  0.00    -0.495 OA
ENDBRANCH  17  24
ENDBRANCH  16  22
ENDBRANCH   1  16
BRANCH  13  25
ATOM     25  C   UNL     1      -2.900   4.825  -2.173  0.00  0.00    +0.073 C 
BRANCH  25  26
ATOM     26  N   UNL     1      -2.105   5.085  -0.965  0.00  0.00    +0.397 N 
ATOM     27  C   UNL     1      -0.825   5.734  -1.305  0.00  0.00    -0.075 C 
ATOM     28  C   UNL     1      -0.761   7.059  -0.516  0.00  0.00    -0.020 C 
ATOM     29  C   UNL     1      -1.746   6.815   0.658  0.00  0.00    -0.012 C 
ATOM     30  C   UNL     1      -2.841   5.958  -0.025  0.00  0.00    -0.034 C 
ATOM     31  H   UNL     1      -1.912   4.110  -0.495  0.00  0.00    -0.078 HD
BRANCH  30  32
ATOM     32  C   UNL     1      -3.572   5.128   0.998  0.00  0.00    -0.043 A 
ATOM     33  C   UNL     1      -4.852   5.478   1.401  0.00  0.00    +0.005 A 
ATOM     34  C   UNL     1      -5.484   4.688   2.349  0.00  0.00    +0.020 A 
ATOM     35  C   UNL     1      -4.827   3.580   2.849  0.00  0.00    +0.111 A 
ATOM     36  N   UNL     1      -3.612   3.274   2.438  0.00  0.00    -0.263 NA
ATOM     37  C   UNL     1      -2.978   4.005   1.542  0.00  0.00    +0.112 A 
ENDBRANCH  30  32
ENDBRANCH  25  26
ENDBRANCH  13  25
TORSDOF 6
