REMARK  Name = ZINC00093920
REMARK  9 active torsions:
REMARK  status: ('A' for Active; 'I' for Inactive)
REMARK    1  A    between atoms: C_1  and  C_2
REMARK    2  A    between atoms: C_4  and  C_24
REMARK    3  A    between atoms: C_6  and  O_8
REMARK    4  A    between atoms: O_8  and  C_9
REMARK    5  A    between atoms: C_9  and  C_11
REMARK    6  A    between atoms: C_9  and  C_12
REMARK    7  A    between atoms: N_14  and  N_15
REMARK    8  A    between atoms: C_16  and  C_17
REMARK    9  A    between atoms: C_22  and  O_23
REMARK                            x       y       z     vdW  Elec       q    Type
REMARK                         _______ _______ _______ _____ _____    ______ ____
ROOT
ATOM      1  C   UNL     1       3.582   7.325  -0.242  0.00  0.00    +0.273 C 
ATOM      2  O   UNL     1       2.546   7.936  -0.400  0.00  0.00    -0.270 OA
ATOM      3  N   UNL     1       3.583   5.978  -0.289  0.00  0.00    -0.204 N 
ATOM      4  H   UNL     1       4.411   5.489  -0.163  0.00  0.00    +0.177 HD
ENDROOT
BRANCH   1   5
ATOM      5  C   UNL     1       4.867   8.071   0.006  0.00  0.00    +0.257 C 
ATOM      6  C   UNL     1       5.825   7.840  -1.165  0.00  0.00    +0.062 C 
BRANCH   5   7
ATOM      7  O   UNL     1       4.591   9.468   0.126  0.00  0.00    -0.480 OA
BRANCH   7  13
ATOM      8  C   UNL     1       8.819   9.771   2.547  0.00  0.00    +0.044 C 
ATOM      9  C   UNL     1       7.548  10.397   2.031  0.00  0.00    -0.047 A 
ATOM     10  C   UNL     1       7.285  11.731   2.280  0.00  0.00    +0.007 A 
ATOM     11  C   UNL     1       6.121  12.308   1.808  0.00  0.00    -0.047 A 
ATOM     12  C   UNL     1       5.217  11.553   1.087  0.00  0.00    +0.049 A 
ATOM     13  C   UNL     1       5.479  10.214   0.836  0.00  0.00    +0.122 A 
ATOM     14  C   UNL     1       6.645   9.636   1.315  0.00  0.00    +0.049 A 
ATOM     15  C   UNL     1       5.838  13.763   2.082  0.00  0.00    +0.044 C 
ENDBRANCH   7  13
ENDBRANCH   5   7
ENDBRANCH   1   5
BRANCH   3  16
ATOM     16  N   UNL     1       2.388   5.284  -0.520  0.00  0.00    -0.188 NA
ATOM     17  C   UNL     1       2.389   3.987  -0.565  0.00  0.00    +0.142 C 
BRANCH  17  18
ATOM     18  C   UNL     1       1.132   3.257  -0.807  0.00  0.00    +0.036 A 
ATOM     19  C   UNL     1       1.129   1.861  -0.856  0.00  0.00    +0.013 A 
ATOM     20  C   UNL     1      -0.051   1.184  -1.083  0.00  0.00    +0.001 A 
ATOM     21  C   UNL     1      -1.232   1.882  -1.268  0.00  0.00    +0.004 A 
ATOM     22  C   UNL     1      -1.243   3.263  -1.216  0.00  0.00    +0.046 A 
ATOM     23  C   UNL     1      -0.067   3.959  -0.989  0.00  0.00    +0.125 A 
BRANCH  23  24
ATOM     24  O   UNL     1      -0.076   5.316  -0.943  0.00  0.00    -0.506 OA
ATOM     25  H   UNL     1       0.072   5.740  -1.800  0.00  0.00    +0.292 HD
ENDBRANCH  23  24
ENDBRANCH  17  18
ENDBRANCH   3  16
TORSDOF 6
