REMARK  Name = ZINC36207805
REMARK  12 active torsions:
REMARK  status: ('A' for Active; 'I' for Inactive)
REMARK    1  A    between atoms: C_1  and  C_2
REMARK    2  A    between atoms: C_7  and  O_8
REMARK    3  A    between atoms: O_8  and  C_9
REMARK    4  A    between atoms: C_9  and  C_10
REMARK    5  A    between atoms: C_10  and  C_12
REMARK    6  A    between atoms: C_10  and  O_39
REMARK    7  A    between atoms: C_12  and  N_13
REMARK    8  A    between atoms: N_13  and  C_14
REMARK    9  A    between atoms: N_13  and  C_20
REMARK   10  A    between atoms: C_14  and  C_15
REMARK   11  A    between atoms: C_20  and  C_21
REMARK   12  A    between atoms: C_27  and  C_32
REMARK                            x       y       z     vdW  Elec       q    Type
REMARK                         _______ _______ _______ _____ _____    ______ ____
ROOT
ATOM      1  N   UNL     1      -0.045   0.192   6.841  0.00  0.00    +0.391 N 
ATOM      2  H   UNL     1       0.629   0.928   6.692  0.00  0.00    -0.080 HD
ENDROOT
BRANCH   1   3
ATOM      3  C   UNL     1       0.149  -0.861   5.835  0.00  0.00    -0.043 C 
BRANCH   3   4
ATOM      4  C   UNL     1       0.083  -0.248   4.435  0.00  0.00    +0.135 C 
BRANCH   4   5
ATOM      5  O   UNL     1       1.179   0.652   4.257  0.00  0.00    -0.390 OA
ATOM      6  H   UNL     1       2.047   0.236   4.346  0.00  0.00    +0.210 HD
ENDBRANCH   4   5
BRANCH   4   7
ATOM      7  C   UNL     1       0.161  -1.360   3.387  0.00  0.00    +0.258 C 
BRANCH   7   8
ATOM      8  O   UNL     1      -0.018  -0.800   2.084  0.00  0.00    -0.489 OA
BRANCH   8  15
ATOM      9  C   UNL     1      -0.369   0.287  -0.499  0.00  0.00    +0.047 C 
ATOM     10  C   UNL     1      -0.142  -1.184  -0.260  0.00  0.00    -0.009 A 
ATOM     11  C   UNL     1      -0.093  -2.059  -1.328  0.00  0.00    +0.007 A 
ATOM     12  C   UNL     1       0.114  -3.408  -1.109  0.00  0.00    +0.000 A 
ATOM     13  C   UNL     1       0.274  -3.885   0.179  0.00  0.00    +0.004 A 
ATOM     14  C   UNL     1       0.227  -3.014   1.250  0.00  0.00    +0.046 A 
ATOM     15  C   UNL     1       0.024  -1.659   1.033  0.00  0.00    +0.124 A 
ENDBRANCH   8  15
ENDBRANCH   7   8
ENDBRANCH   4   7
ENDBRANCH   3   4
ENDBRANCH   1   3
BRANCH   1  16
ATOM     16  C   UNL     1      -1.403   0.740   6.720  0.00  0.00    -0.002 C 
BRANCH  16  17
ATOM     17  C   UNL     1      -1.560   1.905   7.662  0.00  0.00    +0.089 A 
ATOM     18  C   UNL     1      -1.201   3.176   7.408  0.00  0.00    +0.042 A 
ATOM     19  C   UNL     1      -1.526   3.932   8.558  0.00  0.00    +0.041 A 
ATOM     20  C   UNL     1      -2.064   3.078   9.446  0.00  0.00    +0.195 A 
ATOM     21  O   UNL     1      -2.088   1.853   8.896  0.00  0.00    -0.470 OA
ENDBRANCH  16  17
ENDBRANCH   1  16
BRANCH   1  22
ATOM     22  C   UNL     1       0.137  -0.374   8.184  0.00  0.00    -0.003 C 
BRANCH  22  23
ATOM     23  C   UNL     1       1.577  -0.780   8.367  0.00  0.00    +0.094 A 
ATOM     24  N   UNL     1       1.945  -1.443   9.493  0.00  0.00    -0.312 N 
ATOM     25  H   UNL     1       1.276  -1.646  10.165  0.00  0.00    +0.170 HD
ATOM     26  C   UNL     1       3.220  -1.824   9.695  0.00  0.00    +0.260 A 
ATOM     27  O   UNL     1       3.534  -2.420  10.711  0.00  0.00    -0.267 OA
ATOM     28  C   UNL     1       4.201  -1.520   8.698  0.00  0.00    +0.080 A 
ATOM     29  C   UNL     1       5.627  -1.823   8.684  0.00  0.00    +0.006 A 
ATOM     30  C   UNL     1       6.366  -1.431   7.618  0.00  0.00    +0.056 A 
ATOM     31  S   UNL     1       5.175  -0.626   6.564  0.00  0.00    -0.076 S 
ATOM     32  C   UNL     1       3.727  -0.832   7.569  0.00  0.00    +0.116 A 
ATOM     33  N   UNL     1       2.448  -0.493   7.437  0.00  0.00    -0.229 NA
BRANCH  29  34
ATOM     34  C   UNL     1       6.256  -2.546   9.815  0.00  0.00    +0.019 A 
ATOM     35  C   UNL     1       7.208  -1.908  10.610  0.00  0.00    +0.011 A 
ATOM     36  C   UNL     1       7.790  -2.585  11.662  0.00  0.00    +0.001 A 
ATOM     37  C   UNL     1       7.433  -3.895  11.929  0.00  0.00    +0.003 A 
ATOM     38  C   UNL     1       6.490  -4.534  11.145  0.00  0.00    +0.039 A 
ATOM     39  C   UNL     1       5.895  -3.865  10.092  0.00  0.00    +0.131 A 
ATOM     40  F   UNL     1       4.970  -4.488   9.329  0.00  0.00    -0.205 F 
ENDBRANCH  29  34
ENDBRANCH  22  23
ENDBRANCH   1  22
TORSDOF 11
