REMARK  Name = ZINC13676711
REMARK  13 active torsions:
REMARK  status: ('A' for Active; 'I' for Inactive)
REMARK    1  A    between atoms: C_1  and  C_2
REMARK    2  A    between atoms: C_7  and  N_8
REMARK    3  A    between atoms: N_8  and  C_9
REMARK    4  A    between atoms: N_8  and  S_26
REMARK    5  A    between atoms: C_9  and  C_10
REMARK    6  A    between atoms: N_12  and  C_13
REMARK    7  A    between atoms: C_13  and  C_15
REMARK    8  A    between atoms: C_13  and  C_16
REMARK    9  A    between atoms: C_19  and  C_22
REMARK   10  A    between atoms: C_22  and  C_23
REMARK   11  A    between atoms: C_22  and  C_24
REMARK   12  A    between atoms: C_22  and  C_25
REMARK   13  A    between atoms: S_26  and  C_29
REMARK                            x       y       z     vdW  Elec       q    Type
REMARK                         _______ _______ _______ _____ _____    ______ ____
ROOT
ATOM      1  N   UNL     1      -0.024   0.210   2.538  0.00  0.00    -0.194 N 
ENDROOT
BRANCH   1   8
ATOM      2  C   UNL     1       0.157  -2.592   2.993  0.00  0.00    +0.046 C 
ATOM      3  C   UNL     1       0.501  -1.976   1.662  0.00  0.00    -0.028 A 
ATOM      4  C   UNL     1       0.925  -2.776   0.618  0.00  0.00    +0.005 A 
ATOM      5  C   UNL     1       1.236  -2.212  -0.605  0.00  0.00    +0.000 A 
ATOM      6  C   UNL     1       1.135  -0.845  -0.785  0.00  0.00    +0.002 A 
ATOM      7  C   UNL     1       0.717  -0.038   0.255  0.00  0.00    +0.025 A 
ATOM      8  C   UNL     1       0.398  -0.602   1.484  0.00  0.00    +0.055 A 
ENDBRANCH   1   8
BRANCH   1   9
ATOM      9  S   UNL     1      -1.641   0.434   2.814  0.00  0.00    +0.075 S 
ATOM     10  O   UNL     1      -1.780   1.725   3.393  0.00  0.00    -0.150 OA
ATOM     11  O   UNL     1      -2.313   0.060   1.619  0.00  0.00    -0.150 OA
BRANCH   9  12
ATOM     12  C   UNL     1      -2.125  -0.726   4.049  0.00  0.00    +0.109 A 
ATOM     13  C   UNL     1      -2.681  -1.937   3.679  0.00  0.00    +0.030 A 
ATOM     14  C   UNL     1      -3.056  -2.850   4.647  0.00  0.00    +0.022 A 
ATOM     15  C   UNL     1      -2.884  -2.547   5.986  0.00  0.00    +0.041 A 
ATOM     16  C   UNL     1      -2.333  -1.333   6.356  0.00  0.00    +0.022 A 
ATOM     17  C   UNL     1      -1.954  -0.423   5.387  0.00  0.00    +0.030 A 
ATOM     18 CL   UNL     1      -3.360  -3.691   7.203  0.00  0.00    -0.084 Cl
ENDBRANCH   9  12
ENDBRANCH   1   9
BRANCH   1  19
ATOM     19  C   UNL     1       0.964   0.864   3.401  0.00  0.00    +0.227 C 
BRANCH  19  20
ATOM     20  C   UNL     1       1.382   2.173   2.782  0.00  0.00    +0.233 C 
ATOM     21  O   UNL     1       0.829   2.575   1.780  0.00  0.00    -0.274 OA
ATOM     22  N   UNL     1       2.371   2.897   3.342  0.00  0.00    -0.307 N 
ATOM     23  H   UNL     1       2.813   2.576   4.143  0.00  0.00    +0.149 HD
BRANCH  22  24
ATOM     24  C   UNL     1       2.777   4.170   2.740  0.00  0.00    +0.100 C 
ATOM     25  C   UNL     1       1.868   5.289   3.251  0.00  0.00    +0.033 C 
BRANCH  24  26
ATOM     26  C   UNL     1       4.205   4.471   3.119  0.00  0.00    -0.027 A 
ATOM     27  C   UNL     1       4.650   4.208   4.401  0.00  0.00    +0.006 A 
ATOM     28  C   UNL     1       5.961   4.480   4.746  0.00  0.00    +0.004 A 
ATOM     29  C   UNL     1       6.823   5.024   3.813  0.00  0.00    -0.042 A 
ATOM     30  C   UNL     1       6.377   5.291   2.532  0.00  0.00    +0.004 A 
ATOM     31  C   UNL     1       5.067   5.015   2.185  0.00  0.00    +0.006 A 
BRANCH  29  32
ATOM     32  C   UNL     1       8.250   5.326   4.191  0.00  0.00    -0.013 C 
ATOM     33  C   UNL     1       8.521   6.821   4.010  0.00  0.00    +0.015 C 
ATOM     34  C   UNL     1       8.483   4.939   5.653  0.00  0.00    +0.015 C 
ATOM     35  C   UNL     1       9.196   4.524   3.295  0.00  0.00    +0.015 C 
ENDBRANCH  29  32
ENDBRANCH  24  26
ENDBRANCH  22  24
ENDBRANCH  19  20
ENDBRANCH   1  19
TORSDOF 8
