REMARK  Name = ZINC64338149
REMARK  16 active torsions:
REMARK  status: ('A' for Active; 'I' for Inactive)
REMARK    1  A    between atoms: C_1  and  C_2
REMARK    2  A    between atoms: C_2  and  C_3
REMARK    3  A    between atoms: C_3  and  C_4
REMARK    4  A    between atoms: C_4  and  N_5
REMARK    5  A    between atoms: C_6  and  N_34
REMARK    6  A    between atoms: C_8  and  N_15
REMARK    7  A    between atoms: N_15  and  C_16
REMARK    8  A    between atoms: C_16  and  C_17
REMARK    9  A    between atoms: C_17  and  C_18
REMARK   10  A    between atoms: C_19  and  C_21
REMARK   11  A    between atoms: C_22  and  C_33
REMARK   12  A    between atoms: C_23  and  C_28
REMARK   13  A    between atoms: C_24  and  C_27
REMARK   14  A    between atoms: C_28  and  O_30
REMARK   15  A    between atoms: O_30  and  C_31
REMARK   16  A    between atoms: C_31  and  C_32
REMARK                            x       y       z     vdW  Elec       q    Type
REMARK                         _______ _______ _______ _____ _____    ______ ____
ROOT
ATOM      1  N   UNL     1       1.518  -0.808  -5.033  0.00  0.00    -0.285 N 
ATOM      2  C   UNL     1       2.141  -0.194  -4.008  0.00  0.00    +0.264 C 
ATOM      3  O   UNL     1       2.684  -0.855  -3.142  0.00  0.00    -0.268 OA
ENDROOT
BRANCH   1   6
ATOM      4  N   UNL     1       0.990  -2.509  -2.617  0.00  0.00    -0.296 N 
ATOM      5  C   UNL     1       0.349  -2.651  -3.928  0.00  0.00    +0.047 C 
ATOM      6  C   UNL     1       1.347  -2.263  -5.021  0.00  0.00    +0.167 C 
ATOM      7  C   UNL     1       2.673  -2.924  -4.741  0.00  0.00    +0.261 C 
ATOM      8  O   UNL     1       3.457  -3.303  -5.763  0.00  0.00    -0.272 OA
ATOM      9  N   UNL     1       3.064  -3.129  -3.515  0.00  0.00    -0.126 NA
ATOM     10  C   UNL     1       2.295  -2.793  -2.466  0.00  0.00    +0.327 C 
ATOM     11  O   UNL     1       2.789  -2.748  -1.355  0.00  0.00    -0.250 OA
BRANCH   5  12
ATOM     12  N   UNL     1      -0.825  -1.771  -3.998  0.00  0.00    +0.392 N 
ATOM     13  H   UNL     1      -0.536  -0.814  -3.869  0.00  0.00    -0.087 HD
ATOM     14  H   UNL     1      -1.266  -1.870  -4.901  0.00  0.00    -0.087 HD
ATOM     15  H   UNL     1      -1.481  -2.026  -3.275  0.00  0.00    -0.087 HD
ENDBRANCH   5  12
BRANCH   4  16
ATOM     16  C   UNL     1       0.206  -2.048  -1.468  0.00  0.00    +0.107 C 
BRANCH  16  17
ATOM     17  C   UNL     1       0.221  -0.519  -1.420  0.00  0.00    +0.019 C 
BRANCH  17  19
ATOM     18  C   UNL     1      -0.680   1.494  -0.247  0.00  0.00    +0.004 C 
ATOM     19  C   UNL     1      -0.696  -0.035  -0.295  0.00  0.00    -0.002 C 
ENDBRANCH  17  19
ENDBRANCH  16  17
ENDBRANCH   4  16
ENDBRANCH   1   6
BRANCH   2  20
ATOM     20  C   UNL     1       2.166   1.272  -3.936  0.00  0.00    +0.106 A 
ATOM     21  C   UNL     1       2.870   2.015  -3.035  0.00  0.00    -0.006 A 
ATOM     22  C   UNL     1       2.607   3.374  -3.326  0.00  0.00    +0.083 A 
ATOM     23  C   UNL     1       1.744   3.398  -4.405  0.00  0.00    +0.028 A 
ATOM     24  N   UNL     1       1.487   2.133  -4.771  0.00  0.00    -0.354 N 
ATOM     25  H   UNL     1       0.912   1.866  -5.505  0.00  0.00    +0.166 HD
ATOM     26  C   UNL     1       1.190   4.636  -5.063  0.00  0.00    +0.064 C 
ATOM     27  C   UNL     1       3.758   1.489  -1.938  0.00  0.00    +0.047 C 
BRANCH  22  28
ATOM     28  C   UNL     1       3.150   4.542  -2.612  0.00  0.00    +0.341 C 
ATOM     29  O   UNL     1       4.197   5.043  -2.975  0.00  0.00    -0.245 OA
BRANCH  28  30
ATOM     30  O   UNL     1       2.487   5.056  -1.558  0.00  0.00    -0.461 OA
BRANCH  30  31
ATOM     31  C   UNL     1       3.072   6.190  -0.914  0.00  0.00    +0.229 C 
ATOM     32  C   UNL     1       2.183   6.629   0.252  0.00  0.00    +0.048 C 
ENDBRANCH  30  31
ENDBRANCH  28  30
ENDBRANCH  22  28
ENDBRANCH   2  20
BRANCH   1  33
ATOM     33  C   UNL     1       1.011  -0.020  -6.159  0.00  0.00    +0.108 C 
BRANCH  33  34
ATOM     34  C   UNL     1      -0.430   0.407  -5.875  0.00  0.00    +0.016 C 
ATOM     35  C   UNL     1      -0.960   1.230  -7.051  0.00  0.00    +0.005 C 
ENDBRANCH  33  34
ENDBRANCH   1  33
TORSDOF 11
