REMARK  Name = ZINC59410520
REMARK  9 active torsions:
REMARK  status: ('A' for Active; 'I' for Inactive)
REMARK    1  A    between atoms: C_1  and  C_2
REMARK    2  A    between atoms: C_5  and  C_36
REMARK    3  A    between atoms: N_8  and  C_10
REMARK    4  A    between atoms: C_10  and  C_11
REMARK    5  A    between atoms: C_14  and  C_17
REMARK    6  A    between atoms: C_17  and  N_18
REMARK    7  A    between atoms: C_19  and  C_21
REMARK    8  A    between atoms: N_24  and  C_27
REMARK    9  A    between atoms: C_32  and  N_33
REMARK                            x       y       z     vdW  Elec       q    Type
REMARK                         _______ _______ _______ _____ _____    ______ ____
ROOT
ATOM      1  N   UNL     1       7.186  -0.097   0.560  0.00  0.00    -0.311 N 
ATOM      2  C   UNL     1       8.392   0.400   0.223  0.00  0.00    +0.216 C 
ATOM      3  O   UNL     1       9.347   0.217   0.948  0.00  0.00    -0.276 OA
ATOM      4  H   UNL     1       6.421   0.049  -0.019  0.00  0.00    +0.149 HD
ENDROOT
BRANCH   2   5
ATOM      5  C   UNL     1       8.554   1.184  -1.054  0.00  0.00    +0.078 C 
ATOM      6  C   UNL     1       8.170   0.303  -2.245  0.00  0.00    +0.031 C 
ATOM      7  C   UNL     1       8.302   1.113  -3.538  0.00  0.00    +0.106 C 
ATOM      8  N   UNL     1       9.661   1.668  -3.611  0.00  0.00    -0.328 N 
ATOM      9  C   UNL     1      10.164   2.456  -2.478  0.00  0.00    +0.106 C 
ATOM     10  C   UNL     1      10.011   1.630  -1.197  0.00  0.00    +0.031 C 
BRANCH   8  11
ATOM     11  C   UNL     1      10.459   1.450  -4.737  0.00  0.00    +0.060 A 
ATOM     12  C   UNL     1      11.358   0.391  -4.758  0.00  0.00    +0.025 A 
ATOM     13  C   UNL     1      12.145   0.177  -5.872  0.00  0.00    +0.002 A 
ATOM     14  C   UNL     1      12.039   1.017  -6.966  0.00  0.00    +0.002 A 
ATOM     15  C   UNL     1      11.146   2.072  -6.948  0.00  0.00    +0.034 A 
ATOM     16  C   UNL     1      10.352   2.288  -5.839  0.00  0.00    +0.147 A 
BRANCH  16  17
ATOM     17  N   UNL     1       9.392   3.414  -5.823  0.00  0.00    +0.058 N 
ATOM     18  O   UNL     1       9.226   4.082  -6.817  0.00  0.00    -0.126 OA
ATOM     19  O   UNL     1       8.773   3.666  -4.815  0.00  0.00    -0.126 OA
ENDBRANCH  16  17
ENDBRANCH   8  11
ENDBRANCH   2   5
BRANCH   1  20
ATOM     20  C   UNL     1       7.028  -0.859   1.802  0.00  0.00    +0.139 C 
BRANCH  20  24
ATOM     21  C   UNL     1       2.963  -2.107   2.203  0.00  0.00    -0.064 A 
ATOM     22  C   UNL     1       3.873  -2.916   1.548  0.00  0.00    +0.002 A 
ATOM     23  C   UNL     1       5.188  -2.512   1.419  0.00  0.00    +0.005 A 
ATOM     24  C   UNL     1       5.594  -1.299   1.943  0.00  0.00    -0.030 A 
ATOM     25  C   UNL     1       4.683  -0.489   2.596  0.00  0.00    +0.005 A 
ATOM     26  C   UNL     1       3.367  -0.892   2.722  0.00  0.00    +0.002 A 
BRANCH  21  27
ATOM     27  C   UNL     1       1.528  -2.548   2.345  0.00  0.00    -0.043 C 
BRANCH  27  33
ATOM     28  C   UNL     1      -0.051   1.422  -0.047  0.00  0.00    +0.005 C 
ATOM     29  C   UNL     1      -0.015  -0.108  -0.054  0.00  0.00    -0.031 C 
ATOM     30  C   UNL     1      -1.446  -0.653  -0.047  0.00  0.00    +0.003 C 
ATOM     31  C   UNL     1      -1.399  -2.182   0.025  0.00  0.00    -0.031 C 
ATOM     32  C   UNL     1      -0.612  -2.604   1.268  0.00  0.00    -0.075 C 
ATOM     33  N   UNL     1       0.754  -2.075   1.189  0.00  0.00    +0.383 N 
ATOM     34  C   UNL     1       0.722  -0.607   1.191  0.00  0.00    -0.075 C 
ATOM     35  C   UNL     1      -2.824  -2.733   0.110  0.00  0.00    +0.005 C 
ATOM     36  H   UNL     1       1.191  -2.399   0.339  0.00  0.00    -0.081 HD
ENDBRANCH  27  33
ENDBRANCH  21  27
ENDBRANCH  20  24
ENDBRANCH   1  20
TORSDOF 7
