REMARK  Name = ZINC33939961
REMARK  8 active torsions:
REMARK  status: ('A' for Active; 'I' for Inactive)
REMARK    1  A    between atoms: C_1  and  C_2
REMARK    2  A    between atoms: C_8  and  N_10
REMARK    3  A    between atoms: C_11  and  C_13
REMARK    4  A    between atoms: N_19  and  C_37
REMARK    5  A    between atoms: C_20  and  C_28
REMARK    6  A    between atoms: C_25  and  C_27
REMARK    7  A    between atoms: N_30  and  C_31
REMARK    8  A    between atoms: C_37  and  C_38
REMARK                            x       y       z     vdW  Elec       q    Type
REMARK                         _______ _______ _______ _____ _____    ______ ____
ROOT
ATOM      1  C   UNL     1       4.517   0.362   2.388  0.00  0.00    +0.125 C 
ATOM      2  C   UNL     1       5.205   0.396   3.765  0.00  0.00    +0.128 C 
ATOM      3  C   UNL     1       4.294   0.143   4.934  0.00  0.00    +0.224 C 
ATOM      4  O   UNL     1       3.486  -0.759   5.011  0.00  0.00    -0.275 OA
ATOM      5  N   UNL     1       4.519   1.081   5.888  0.00  0.00    -0.283 N 
ATOM      6  C   UNL     1       5.475   2.106   5.406  0.00  0.00    +0.199 C 
ATOM      7  C   UNL     1       5.482   1.938   3.909  0.00  0.00    +0.128 C 
ATOM      8  C   UNL     1       6.618   2.267   3.008  0.00  0.00    +0.009 C 
ATOM      9  C   UNL     1       6.083   2.197   1.783  0.00  0.00    +0.007 C 
ATOM     10  C   UNL     1       4.597   1.861   1.952  0.00  0.00    +0.098 C 
ATOM     11  O   UNL     1       4.325   2.515   3.246  0.00  0.00    -0.355 OA
ATOM     12  C   UNL     1       3.695   2.255   0.781  0.00  0.00    +0.047 C 
ENDROOT
BRANCH   1  14
ATOM     13  N   UNL     1       2.740  -1.345   2.170  0.00  0.00    -0.312 N 
ATOM     14  C   UNL     1       3.084  -0.088   2.512  0.00  0.00    +0.220 C 
ATOM     15  O   UNL     1       2.240   0.682   2.920  0.00  0.00    -0.275 OA
ATOM     16  H   UNL     1       3.425  -1.981   1.910  0.00  0.00    +0.149 HD
BRANCH  13  23
ATOM     17  C   UNL     1       1.478  -2.377  -0.224  0.00  0.00    +0.009 C 
ATOM     18  C   UNL     1       1.111  -2.874   1.176  0.00  0.00    +0.006 C 
ATOM     19  C   UNL     1       1.993  -4.071   1.539  0.00  0.00    +0.005 C 
ATOM     20  C   UNL     1       1.626  -4.569   2.938  0.00  0.00    +0.000 C 
ATOM     21  C   UNL     1       1.848  -3.446   3.953  0.00  0.00    +0.002 C 
ATOM     22  C   UNL     1       0.966  -2.249   3.590  0.00  0.00    +0.022 C 
ATOM     23  C   UNL     1       1.333  -1.751   2.191  0.00  0.00    +0.076 C 
ENDBRANCH  13  23
ENDBRANCH   1  14
BRANCH   6  24
ATOM     24  C   UNL     1       5.009   3.486   5.790  0.00  0.00    +0.237 C 
ATOM     25  O   UNL     1       3.851   3.671   6.100  0.00  0.00    -0.274 OA
ATOM     26  N   UNL     1       5.880   4.515   5.791  0.00  0.00    -0.311 N 
ATOM     27  H   UNL     1       6.806   4.367   5.544  0.00  0.00    +0.149 HD
BRANCH  26  28
ATOM     28  C   UNL     1       5.427   5.857   6.166  0.00  0.00    +0.073 C 
ATOM     29  C   UNL     1       4.830   6.554   4.941  0.00  0.00    +0.022 C 
ATOM     30  C   UNL     1       4.357   7.956   5.332  0.00  0.00    +0.002 C 
ATOM     31  C   UNL     1       5.545   8.768   5.853  0.00  0.00    +0.000 C 
ATOM     32  C   UNL     1       6.141   8.071   7.077  0.00  0.00    +0.002 C 
ATOM     33  C   UNL     1       6.614   6.670   6.686  0.00  0.00    +0.022 C 
ENDBRANCH  26  28
ENDBRANCH   6  24
BRANCH   5  34
ATOM     34  C   UNL     1       3.899   1.081   7.216  0.00  0.00    +0.135 C 
BRANCH  34  35
ATOM     35  C   UNL     1       4.768   0.310   8.176  0.00  0.00    -0.016 C 
ATOM     36  C   UNL     1       5.178   0.873   9.285  0.00  0.00    +0.005 C 
ENDBRANCH  34  35
ENDBRANCH   5  34
TORSDOF 6
