REMARK  Name = ZINC21032173
REMARK  9 active torsions:
REMARK  status: ('A' for Active; 'I' for Inactive)
REMARK    1  A    between atoms: C_1  and  C_2
REMARK    2  A    between atoms: C_2  and  C_4
REMARK    3  A    between atoms: C_2  and  N_10
REMARK    4  A    between atoms: C_11  and  C_30
REMARK    5  A    between atoms: C_13  and  C_22
REMARK    6  A    between atoms: C_13  and  C_26
REMARK    7  A    between atoms: C_15  and  C_16
REMARK    8  A    between atoms: C_30  and  C_31
REMARK    9  A    between atoms: C_31  and  C_32
REMARK                            x       y       z     vdW  Elec       q    Type
REMARK                         _______ _______ _______ _____ _____    ______ ____
ROOT
ATOM      1  N   UNL     1      -1.385  -0.857  -0.239  0.00  0.00    -0.268 N 
ATOM      2  C   UNL     1      -0.988  -1.862  -1.089  0.00  0.00    +0.079 C 
ATOM      3  N   UNL     1      -1.565  -3.012  -1.049  0.00  0.00    -0.338 N 
ATOM      4  C   UNL     1      -2.643  -3.312  -0.116  0.00  0.00    +0.325 C 
ATOM      5  N   UNL     1      -3.220  -2.100   0.452  0.00  0.00    -0.224 NA
ATOM      6  C   UNL     1      -2.611  -0.957   0.394  0.00  0.00    +0.132 C 
ATOM      7  H   UNL     1      -1.272  -3.703  -1.664  0.00  0.00    +0.163 HD
ENDROOT
BRANCH   6   8
ATOM      8  C   UNL     1      -3.231   0.242   1.001  0.00  0.00    +0.015 A 
ATOM      9  C   UNL     1      -3.688   1.280   0.189  0.00  0.00    +0.011 A 
ATOM     10  C   UNL     1      -4.265   2.396   0.761  0.00  0.00    +0.001 A 
ATOM     11  C   UNL     1      -4.392   2.485   2.135  0.00  0.00    +0.000 A 
ATOM     12  C   UNL     1      -3.940   1.459   2.946  0.00  0.00    +0.001 A 
ATOM     13  C   UNL     1      -3.367   0.336   2.386  0.00  0.00    +0.011 A 
ENDBRANCH   6   8
BRANCH   4  14
ATOM     14  C   UNL     1      -3.738  -4.088  -0.851  0.00  0.00    +0.442 C 
ATOM     15  F   UNL     1      -3.206  -5.279  -1.356  0.00  0.00    -0.166 F 
ATOM     16  F   UNL     1      -4.778  -4.382   0.038  0.00  0.00    -0.166 F 
ATOM     17  F   UNL     1      -4.231  -3.313  -1.906  0.00  0.00    -0.166 F 
ENDBRANCH   4  14
BRANCH   4  18
ATOM     18  C   UNL     1      -2.094  -4.181   1.017  0.00  0.00    +0.442 C 
ATOM     19  F   UNL     1      -1.074  -3.492   1.681  0.00  0.00    -0.166 F 
ATOM     20  F   UNL     1      -3.122  -4.476   1.920  0.00  0.00    -0.166 F 
ATOM     21  F   UNL     1      -1.584  -5.371   0.487  0.00  0.00    -0.166 F 
ENDBRANCH   4  18
BRANCH   1  23
ATOM     22  C   UNL     1      -1.064   1.113   1.175  0.00  0.00    +0.033 C 
ATOM     23  C   UNL     1      -0.519   0.301  -0.002  0.00  0.00    +0.108 C 
BRANCH  23  24
ATOM     24  C   UNL     1       0.876  -0.171   0.317  0.00  0.00    -0.027 A 
ATOM     25  C   UNL     1       1.063  -1.272   1.132  0.00  0.00    +0.005 A 
ATOM     26  C   UNL     1       2.343  -1.706   1.425  0.00  0.00    +0.000 A 
ATOM     27  C   UNL     1       3.435  -1.039   0.902  0.00  0.00    +0.000 A 
ATOM     28  C   UNL     1       3.248   0.061   0.086  0.00  0.00    +0.000 A 
ATOM     29  C   UNL     1       1.968   0.492  -0.210  0.00  0.00    +0.005 A 
ENDBRANCH  23  24
ENDBRANCH   1  23
BRANCH   2  30
ATOM     30  C   UNL     1       0.128  -1.616  -2.071  0.00  0.00    +0.074 C 
BRANCH  30  31
ATOM     31  C   UNL     1       1.400  -2.311  -1.581  0.00  0.00    +0.042 C 
BRANCH  31  32
ATOM     32  C   UNL     1       2.470  -2.201  -2.637  0.00  0.00    -0.047 A 
ATOM     33  C   UNL     1       2.583  -3.177  -3.610  0.00  0.00    +0.003 A 
ATOM     34  C   UNL     1       3.564  -3.077  -4.578  0.00  0.00    +0.000 A 
ATOM     35  C   UNL     1       4.433  -2.001  -4.573  0.00  0.00    +0.000 A 
ATOM     36  C   UNL     1       4.319  -1.025  -3.601  0.00  0.00    +0.000 A 
ATOM     37  C   UNL     1       3.335  -1.123  -2.635  0.00  0.00    +0.003 A 
ENDBRANCH  31  32
ENDBRANCH  30  31
ENDBRANCH   2  30
TORSDOF 8
