REMARK  Name = ZINC36504934
REMARK  12 active torsions:
REMARK  status: ('A' for Active; 'I' for Inactive)
REMARK    1  A    between atoms: C_1  and  C_2
REMARK    2  A    between atoms: C_5  and  C_8
REMARK    3  A    between atoms: C_8  and  C_10
REMARK    4  A    between atoms: C_8  and  N_17
REMARK    5  A    between atoms: N_12  and  C_13
REMARK    6  A    between atoms: C_13  and  C_14
REMARK    7  A    between atoms: C_13  and  C_15
REMARK    8  A    between atoms: C_13  and  C_16
REMARK    9  A    between atoms: N_17  and  C_18
REMARK   10  A    between atoms: C_18  and  C_19
REMARK   11  A    between atoms: C_24  and  C_26
REMARK   12  A    between atoms: C_30  and  N_32
REMARK                            x       y       z     vdW  Elec       q    Type
REMARK                         _______ _______ _______ _____ _____    ______ ____
ROOT
ATOM      1  N   UNL     1       0.296  -4.385   2.213  0.00  0.00    -0.275 N 
ATOM      2  C   UNL     1      -0.723  -5.133   1.744  0.00  0.00    +0.248 C 
ATOM      3  O   UNL     1      -0.930  -5.198   0.548  0.00  0.00    -0.270 OA
ENDROOT
BRANCH   2   4
ATOM      4  C   UNL     1      -1.590  -5.874   2.686  0.00  0.00    +0.039 A 
ATOM      5  C   UNL     1      -1.977  -5.288   3.892  0.00  0.00    +0.013 A 
ATOM      6  C   UNL     1      -2.786  -5.985   4.765  0.00  0.00    +0.003 A 
ATOM      7  C   UNL     1      -3.214  -7.262   4.448  0.00  0.00    +0.033 A 
ATOM      8  C   UNL     1      -2.833  -7.849   3.254  0.00  0.00    +0.127 A 
ATOM      9  C   UNL     1      -2.029  -7.160   2.369  0.00  0.00    +0.045 A 
BRANCH   8  10
ATOM     10  N   UNL     1      -3.294  -9.216   2.923  0.00  0.00    +0.056 N 
ATOM     11  O   UNL     1      -4.003  -9.818   3.696  0.00  0.00    -0.126 OA
ATOM     12  O   UNL     1      -2.962  -9.730   1.880  0.00  0.00    -0.126 OA
ENDBRANCH   8  10
ENDBRANCH   2   4
BRANCH   1  13
ATOM     13  C   UNL     1       0.642  -4.429   3.636  0.00  0.00    +0.193 C 
BRANCH  13  18
ATOM     14  C   UNL     1      -0.181   0.789   5.979  0.00  0.00    +0.044 C 
ATOM     15  C   UNL     1       0.033  -0.572   5.368  0.00  0.00    -0.050 A 
ATOM     16  C   UNL     1       0.385  -1.642   6.170  0.00  0.00    +0.004 A 
ATOM     17  C   UNL     1       0.582  -2.890   5.609  0.00  0.00    +0.006 A 
ATOM     18  C   UNL     1       0.427  -3.068   4.247  0.00  0.00    -0.018 A 
ATOM     19  C   UNL     1       0.074  -1.998   3.446  0.00  0.00    +0.006 A 
ATOM     20  C   UNL     1      -0.127  -0.751   4.007  0.00  0.00    +0.004 A 
ENDBRANCH  13  18
BRANCH  13  21
ATOM     21  C   UNL     1       2.088  -4.824   3.789  0.00  0.00    +0.239 C 
ATOM     22  O   UNL     1       2.855  -4.692   2.858  0.00  0.00    -0.273 OA
ATOM     23  N   UNL     1       2.530  -5.326   4.959  0.00  0.00    -0.309 N 
ATOM     24  H   UNL     1       1.916  -5.431   5.704  0.00  0.00    +0.149 HD
BRANCH  23  25
ATOM     25  C   UNL     1       3.935  -5.711   5.108  0.00  0.00    +0.026 C 
ATOM     26  C   UNL     1       4.826  -4.490   4.869  0.00  0.00    +0.031 C 
ATOM     27  C   UNL     1       4.171  -6.245   6.522  0.00  0.00    +0.031 C 
ATOM     28  C   UNL     1       4.277  -6.799   4.088  0.00  0.00    +0.031 C 
ENDBRANCH  23  25
ENDBRANCH  13  21
ENDBRANCH   1  13
BRANCH   1  29
ATOM     29  C   UNL     1       1.057  -3.529   1.300  0.00  0.00    +0.183 C 
BRANCH  29  30
ATOM     30  C   UNL     1       1.608  -4.363   0.172  0.00  0.00    +0.122 A 
ATOM     31  C   UNL     1       1.029  -4.545  -1.028  0.00  0.00    +0.046 A 
ATOM     32  C   UNL     1       1.883  -5.392  -1.772  0.00  0.00    +0.041 A 
ATOM     33  C   UNL     1       2.933  -5.676  -0.981  0.00  0.00    +0.195 A 
ATOM     34  O   UNL     1       2.764  -5.046   0.193  0.00  0.00    -0.466 OA
ENDBRANCH  29  30
ENDBRANCH   1  29
TORSDOF 8
