REMARK  Name = ZINC13213608
REMARK  8 active torsions:
REMARK  status: ('A' for Active; 'I' for Inactive)
REMARK    1  A    between atoms: C_1  and  O_2
REMARK    2  A    between atoms: O_2  and  C_3
REMARK    3  A    between atoms: C_8  and  C_9
REMARK    4  A    between atoms: C_9  and  C_11
REMARK    5  A    between atoms: N_15  and  C_27
REMARK    6  A    between atoms: C_16  and  C_18
REMARK    7  A    between atoms: C_23  and  N_24
REMARK    8  A    between atoms: C_31  and  C_33
REMARK                            x       y       z     vdW  Elec       q    Type
REMARK                         _______ _______ _______ _____ _____    ______ ____
ROOT
ATOM      1  C   UNL     1       0.287  -4.281  -0.235  0.00  0.00    +0.077 C 
ATOM      2  C   UNL     1      -0.223  -5.215   0.602  0.00  0.00    +0.250 C 
ATOM      3  C   UNL     1       0.085  -6.560   0.074  0.00  0.00    +0.292 C 
ATOM      4  O   UNL     1      -0.239  -7.606   0.599  0.00  0.00    -0.266 OA
ATOM      5  N   UNL     1       0.778  -6.455  -1.075  0.00  0.00    -0.253 N 
ATOM      6  C   UNL     1       0.956  -5.027  -1.365  0.00  0.00    +0.152 C 
ATOM      7  O   UNL     1      -0.908  -4.958   1.740  0.00  0.00    -0.282 OA
ENDROOT
BRANCH   6   8
ATOM      8  C   UNL     1       0.301  -4.677  -2.677  0.00  0.00    +0.008 A 
ATOM      9  C   UNL     1      -0.733  -5.455  -3.163  0.00  0.00    +0.008 A 
ATOM     10  C   UNL     1      -1.333  -5.134  -4.365  0.00  0.00    +0.000 A 
ATOM     11  C   UNL     1      -0.900  -4.034  -5.082  0.00  0.00    +0.002 A 
ATOM     12  C   UNL     1       0.133  -3.255  -4.596  0.00  0.00    +0.033 A 
ATOM     13  C   UNL     1       0.731  -3.574  -3.391  0.00  0.00    +0.131 A 
BRANCH  13  14
ATOM     14  N   UNL     1       1.834  -2.738  -2.867  0.00  0.00    +0.057 N 
ATOM     15  O   UNL     1       2.285  -1.841  -3.541  0.00  0.00    -0.126 OA
ATOM     16  O   UNL     1       2.285  -2.951  -1.766  0.00  0.00    -0.126 OA
ENDBRANCH  13  14
ENDBRANCH   6   8
BRANCH   5  17
ATOM     17  C   UNL     1       1.241  -7.518  -1.856  0.00  0.00    +0.038 A 
ATOM     18  C   UNL     1       1.954  -7.264  -3.023  0.00  0.00    +0.023 A 
ATOM     19  C   UNL     1       2.414  -8.310  -3.799  0.00  0.00    +0.003 A 
ATOM     20  C   UNL     1       2.171  -9.615  -3.422  0.00  0.00    +0.015 A 
ATOM     21  C   UNL     1       1.457  -9.882  -2.251  0.00  0.00    +0.065 A 
ATOM     22  C   UNL     1       0.996  -8.824  -1.464  0.00  0.00    +0.038 A 
BRANCH  21  23
ATOM     23  C   UNL     1       1.194 -11.276  -1.845  0.00  0.00    +0.387 C 
ATOM     24  O   UNL     1       1.603 -12.200  -2.534  0.00  0.00    -0.241 OA
ATOM     25  O   UNL     1       0.569 -11.507  -0.820  0.00  0.00    -0.241 OA
ENDBRANCH  21  23
ENDBRANCH   5  17
BRANCH   1  26
ATOM     26  C   UNL     1       0.202  -2.826  -0.077  0.00  0.00    +0.199 C 
ATOM     27  O   UNL     1      -0.582  -2.186  -0.753  0.00  0.00    -0.287 OA
BRANCH  26  33
ATOM     28  C   UNL     1       1.070  -0.737   0.976  0.00  0.00    +0.131 A 
ATOM     29  C   UNL     1       1.883  -0.102   1.903  0.00  0.00    +0.046 A 
ATOM     30  C   UNL     1       2.688  -0.845   2.743  0.00  0.00    +0.004 A 
ATOM     31  C   UNL     1       2.691  -2.229   2.668  0.00  0.00    +0.001 A 
ATOM     32  C   UNL     1       1.891  -2.877   1.754  0.00  0.00    +0.015 A 
ATOM     33  C   UNL     1       1.067  -2.138   0.900  0.00  0.00    +0.064 A 
BRANCH  28  35
ATOM     34  C   UNL     1       0.336   1.413   0.285  0.00  0.00    +0.277 C 
ATOM     35  O   UNL     1       0.279  -0.008   0.150  0.00  0.00    -0.494 OA
ENDBRANCH  28  35
ENDBRANCH  26  33
ENDBRANCH   1  26
TORSDOF 7
