REMARK  Name = ZINC14157851
REMARK  8 active torsions:
REMARK  status: ('A' for Active; 'I' for Inactive)
REMARK    1  A    between atoms: C_1  and  C_2
REMARK    2  A    between atoms: C_4  and  C_35
REMARK    3  A    between atoms: N_10  and  C_11
REMARK    4  A    between atoms: C_11  and  N_13
REMARK    5  A    between atoms: N_13  and  C_14
REMARK    6  A    between atoms: C_17  and  C_20
REMARK    7  A    between atoms: N_24  and  C_25
REMARK    8  A    between atoms: C_25  and  C_26
REMARK                            x       y       z     vdW  Elec       q    Type
REMARK                         _______ _______ _______ _____ _____    ______ ____
ROOT
ATOM      1  C   UNL     1      11.841  -4.457   1.651  0.00  0.00    +0.066 C 
ATOM      2  C   UNL     1      11.167  -3.567   2.663  0.00  0.00    +0.044 A 
ATOM      3  C   UNL     1      11.573  -3.578   3.988  0.00  0.00    +0.046 A 
ATOM      4  C   UNL     1      10.927  -2.743   4.886  0.00  0.00    +0.044 A 
ATOM      5  N   UNL     1       9.948  -1.965   4.455  0.00  0.00    -0.217 NA
ATOM      6  C   UNL     1       9.585  -1.979   3.181  0.00  0.00    +0.231 A 
ATOM      7  N   UNL     1      10.178  -2.768   2.299  0.00  0.00    -0.217 NA
ATOM      8  N   UNL     1       8.553  -1.149   2.763  0.00  0.00    -0.297 N 
ATOM      9  C   UNL     1       8.089  -1.229   1.477  0.00  0.00    +0.196 C 
ATOM     10  N   UNL     1       8.695  -2.015   0.604  0.00  0.00    -0.159 NA
ATOM     11  N   UNL     1       7.003  -0.495   1.097  0.00  0.00    -0.353 N 
ATOM     12  C   UNL     1      11.335  -2.721   6.337  0.00  0.00    +0.066 C 
ATOM     13  H   UNL     1       8.159  -0.514   3.382  0.00  0.00    +0.171 HD
ATOM     14  H   UNL     1       6.628  -0.609   0.209  0.00  0.00    +0.163 HD
ENDROOT
BRANCH  10  15
ATOM     15  C   UNL     1       8.327  -1.993  -0.685  0.00  0.00    +0.161 C 
ATOM     16  S   UNL     1       8.549  -0.573  -1.615  0.00  0.00    -0.016 S 
BRANCH  15  17
ATOM     17  N   UNL     1       7.783  -3.090  -1.250  0.00  0.00    -0.295 N 
ATOM     18  H   UNL     1       7.578  -3.865  -0.704  0.00  0.00    +0.154 HD
BRANCH  17  19
ATOM     19  C   UNL     1       7.514  -3.110  -2.622  0.00  0.00    +0.033 A 
ATOM     20  C   UNL     1       6.353  -3.707  -3.095  0.00  0.00    +0.024 A 
ATOM     21  C   UNL     1       6.087  -3.719  -4.450  0.00  0.00    +0.014 A 
ATOM     22  C   UNL     1       6.981  -3.149  -5.337  0.00  0.00    +0.055 A 
ATOM     23  C   UNL     1       8.142  -2.558  -4.870  0.00  0.00    +0.014 A 
ATOM     24  C   UNL     1       8.410  -2.537  -3.515  0.00  0.00    +0.024 A 
BRANCH  22  25
ATOM     25  C   UNL     1       6.691  -3.169  -6.815  0.00  0.00    +0.417 C 
ATOM     26  F   UNL     1       7.232  -4.330  -7.380  0.00  0.00    -0.166 F 
ATOM     27  F   UNL     1       5.307  -3.152  -7.019  0.00  0.00    -0.166 F 
ATOM     28  F   UNL     1       7.265  -2.046  -7.419  0.00  0.00    -0.166 F 
ENDBRANCH  22  25
ENDBRANCH  17  19
ENDBRANCH  15  17
ENDBRANCH  10  15
BRANCH  11  29
ATOM     29  C   UNL     1       6.404   0.464   2.028  0.00  0.00    +0.151 C 
BRANCH  29  30
ATOM     30  C   UNL     1       5.162   1.054   1.412  0.00  0.00    -0.025 A 
ATOM     31  C   UNL     1       3.954   0.391   1.527  0.00  0.00    +0.009 A 
ATOM     32  C   UNL     1       2.811   0.928   0.964  0.00  0.00    +0.050 A 
ATOM     33  C   UNL     1       2.874   2.132   0.281  0.00  0.00    +0.166 A 
ATOM     34  C   UNL     1       4.091   2.799   0.165  0.00  0.00    +0.167 A 
ATOM     35  C   UNL     1       5.232   2.256   0.733  0.00  0.00    +0.055 A 
ATOM     36  O   UNL     1       3.892   3.949  -0.543  0.00  0.00    -0.453 OA
ATOM     37  C   UNL     1       2.471   4.181  -0.508  0.00  0.00    +0.466 C 
ATOM     38  O   UNL     1       1.913   2.863  -0.355  0.00  0.00    -0.453 OA
ENDBRANCH  29  30
ENDBRANCH  11  29
TORSDOF 6
