REMARK  Name = ZINC32539034
REMARK  10 active torsions:
REMARK  status: ('A' for Active; 'I' for Inactive)
REMARK    1  A    between atoms: C_1  and  N_2
REMARK    2  A    between atoms: N_2  and  C_3
REMARK    3  A    between atoms: N_2  and  C_13
REMARK    4  A    between atoms: C_3  and  C_4
REMARK    5  A    between atoms: C_7  and  O_11
REMARK    6  A    between atoms: O_11  and  C_12
REMARK    7  A    between atoms: C_13  and  C_14
REMARK    8  A    between atoms: N_16  and  C_17
REMARK    9  A    between atoms: C_21  and  S_23
REMARK   10  A    between atoms: S_23  and  N_26
REMARK                            x       y       z     vdW  Elec       q    Type
REMARK                         _______ _______ _______ _____ _____    ______ ____
ROOT
ATOM      1  C   UNL     1      -4.525   5.322  -2.813  0.00  0.00    +0.201 C 
ATOM      2  O   UNL     1      -3.938   4.797  -3.735  0.00  0.00    -0.278 OA
ATOM      3  N   UNL     1      -5.434   6.287  -3.056  0.00  0.00    -0.287 N 
ATOM      4  H   UNL     1      -6.029   6.702  -2.229  0.00  0.00    +0.155 HD
ENDROOT
BRANCH   3   5
ATOM      5  C   UNL     1      -5.621   6.761  -4.359  0.00  0.00    +0.035 A 
ATOM      6  C   UNL     1      -4.546   6.826  -5.236  0.00  0.00    +0.023 A 
ATOM      7  C   UNL     1      -4.734   7.288  -6.524  0.00  0.00    +0.004 A 
ATOM      8  C   UNL     1      -5.989   7.698  -6.936  0.00  0.00    +0.029 A 
ATOM      9  C   UNL     1      -7.060   7.641  -6.063  0.00  0.00    +0.114 A 
ATOM     10  C   UNL     1      -6.879   7.173  -4.776  0.00  0.00    +0.052 A 
BRANCH   9  11
ATOM     11  S   UNL     1      -8.657   8.164  -6.593  0.00  0.00    +0.100 S 
ATOM     12  O   UNL     1      -8.673   8.046  -8.009  0.00  0.00    -0.146 OA
ATOM     13  O   UNL     1      -9.599   7.500  -5.762  0.00  0.00    -0.146 OA
BRANCH  11  14
ATOM     14  N   UNL     1      -8.781   9.780  -6.252  0.00  0.00    -0.118 NA
ATOM     15  C   UNL     1      -9.866  10.420  -6.543  0.00  0.00    +0.117 C 
ATOM     16  C   UNL     1     -11.086   9.813  -7.199  0.00  0.00    +0.074 C 
ATOM     17  C   UNL     1     -12.212  10.842  -6.936  0.00  0.00    +0.026 C 
ATOM     18  C   UNL     1     -11.415  12.154  -6.770  0.00  0.00    +0.103 C 
ATOM     19  N   UNL     1     -10.081  11.750  -6.308  0.00  0.00    -0.331 N 
ATOM     20  H   UNL     1      -9.411  12.491  -5.846  0.00  0.00    +0.147 HD
ENDBRANCH  11  14
ENDBRANCH   9  11
ENDBRANCH   3   5
BRANCH   1  21
ATOM     21  C   UNL     1      -4.239   4.895  -1.397  0.00  0.00    +0.019 C 
BRANCH  21  23
ATOM     22  C   UNL     1      -3.730   2.616  -2.037  0.00  0.00    -0.095 C 
ATOM     23  N   UNL     1      -3.220   3.837  -1.400  0.00  0.00    +0.386 N 
ATOM     24  H   UNL     1      -2.364   4.195  -1.992  0.00  0.00    -0.081 HD
BRANCH  23  25
ATOM     25  C   UNL     1      -2.743   3.561  -0.039  0.00  0.00    -0.043 C 
BRANCH  25  26
ATOM     26  C   UNL     1      -1.537   2.659  -0.102  0.00  0.00    -0.061 A 
ATOM     27  C   UNL     1      -1.701   1.286  -0.081  0.00  0.00    +0.005 A 
ATOM     28  C   UNL     1      -0.598   0.456  -0.133  0.00  0.00    +0.049 A 
ATOM     29  C   UNL     1       0.675   1.000  -0.218  0.00  0.00    +0.155 A 
ATOM     30  C   UNL     1       0.838   2.379  -0.245  0.00  0.00    +0.165 A 
ATOM     31  C   UNL     1      -0.270   3.205  -0.187  0.00  0.00    +0.044 A 
ATOM     32  F   UNL     1       2.076   2.913  -0.327  0.00  0.00    -0.202 F 
BRANCH  29  33
ATOM     33  O   UNL     1       1.761   0.184  -0.275  0.00  0.00    -0.492 OA
ATOM     34  C   UNL     1       1.519  -1.223  -0.244  0.00  0.00    +0.277 C 
ENDBRANCH  29  33
ENDBRANCH  25  26
ENDBRANCH  23  25
ENDBRANCH  21  23
ENDBRANCH   1  21
TORSDOF 8
