REMARK  Name = ZINC13301064
REMARK  3 active torsions:
REMARK  status: ('A' for Active; 'I' for Inactive)
REMARK    1  A    between atoms: C_6  and  C_7
REMARK    2  A    between atoms: C_17  and  C_19
REMARK    3  A    between atoms: N_28  and  C_29
REMARK                            x       y       z     vdW  Elec       q    Type
REMARK                         _______ _______ _______ _____ _____    ______ ____
ROOT
ATOM      1  C   UNL     1      -5.799  -3.174   0.459  0.00  0.00    +0.013 C 
ATOM      2  C   UNL     1      -6.559  -2.160   0.921  0.00  0.00    -0.024 C 
ATOM      3  C   UNL     1      -7.933  -2.444   1.451  0.00  0.00    +0.037 C 
ATOM      4  C   UNL     1      -8.589  -1.271   2.150  0.00  0.00    +0.005 C 
ATOM      5  C   UNL     1      -8.208   0.085   1.561  0.00  0.00    +0.012 C 
ATOM      6  C   UNL     1      -6.699   0.272   1.726  0.00  0.00    +0.066 C 
ATOM      7  C   UNL     1      -6.052  -0.839   0.902  0.00  0.00    +0.068 C 
ATOM      8  N   UNL     1      -5.043  -0.341   0.278  0.00  0.00    -0.180 NA
ATOM      9  N   UNL     1      -4.943   1.051   0.392  0.00  0.00    -0.168 N 
ATOM     10  C   UNL     1      -6.192   1.539   1.022  0.00  0.00    +0.141 C 
ATOM     11  C   UNL     1      -3.898   1.808   0.004  0.00  0.00    +0.327 C 
ATOM     12  O   UNL     1      -3.931   3.014   0.158  0.00  0.00    -0.250 OA
ATOM     13  N   UNL     1      -2.817   1.230  -0.553  0.00  0.00    -0.268 N 
ATOM     14  H   UNL     1      -2.816   0.277  -0.737  0.00  0.00    +0.156 HD
ENDROOT
BRANCH  13  15
ATOM     15  C   UNL     1      -1.693   2.003  -0.869  0.00  0.00    +0.036 A 
ATOM     16  C   UNL     1      -1.851   3.307  -1.319  0.00  0.00    +0.025 A 
ATOM     17  C   UNL     1      -0.741   4.071  -1.623  0.00  0.00    +0.023 A 
ATOM     18  C   UNL     1       0.527   3.536  -1.486  0.00  0.00    +0.059 A 
ATOM     19  C   UNL     1       0.688   2.234  -1.044  0.00  0.00    +0.061 A 
ATOM     20  C   UNL     1      -0.420   1.465  -0.738  0.00  0.00    +0.044 A 
ATOM     21 CL   UNL     1       2.281   1.565  -0.873  0.00  0.00    -0.082 Cl
ATOM     22 CL   UNL     1       1.920   4.498  -1.871  0.00  0.00    -0.082 Cl
ENDBRANCH  13  15
BRANCH   1  28
ATOM     23  C   UNL     1      -5.636  -5.638   0.762  0.00  0.00    +0.011 A 
ATOM     24  C   UNL     1      -6.178  -6.900   0.651  0.00  0.00    +0.039 A 
ATOM     25  C   UNL     1      -7.444  -7.070   0.111  0.00  0.00    +0.123 A 
ATOM     26  C   UNL     1      -8.174  -5.971  -0.315  0.00  0.00    +0.039 A 
ATOM     27  C   UNL     1      -7.646  -4.703  -0.205  0.00  0.00    +0.011 A 
ATOM     28  C   UNL     1      -6.370  -4.526   0.339  0.00  0.00    -0.025 A 
ATOM     29  F   UNL     1      -7.967  -8.310   0.001  0.00  0.00    -0.205 F 
ENDBRANCH   1  28
BRANCH  10  30
ATOM     30  C   UNL     1      -5.903   2.633   2.017  0.00  0.00    -0.024 A 
ATOM     31  C   UNL     1      -4.787   2.551   2.828  0.00  0.00    +0.008 A 
ATOM     32  C   UNL     1      -4.518   3.557   3.738  0.00  0.00    +0.038 A 
ATOM     33  C   UNL     1      -5.373   4.640   3.845  0.00  0.00    +0.123 A 
ATOM     34  C   UNL     1      -6.495   4.717   3.036  0.00  0.00    +0.038 A 
ATOM     35  C   UNL     1      -6.758   3.714   2.123  0.00  0.00    +0.008 A 
ATOM     36  F   UNL     1      -5.115   5.620   4.738  0.00  0.00    -0.205 F 
ENDBRANCH  10  30
TORSDOF 3
