REMARK  Name = ZINC00854850
REMARK  5 active torsions:
REMARK  status: ('A' for Active; 'I' for Inactive)
REMARK    1  A    between atoms: C_3  and  C_8
REMARK    2  A    between atoms: C_11  and  C_19
REMARK    3  A    between atoms: C_11  and  O_28
REMARK    4  A    between atoms: C_13  and  C_15
REMARK    5  A    between atoms: C_22  and  N_25
REMARK                            x       y       z     vdW  Elec       q    Type
REMARK                         _______ _______ _______ _____ _____    ______ ____
ROOT
ATOM      1  C   UNL     1       2.408   4.749   0.005  0.00  0.00    +0.269 C 
ATOM      2  O   UNL     1       3.470   4.163   0.087  0.00  0.00    -0.268 OA
ATOM      3  N   UNL     1       2.386   6.093  -0.089  0.00  0.00    -0.153 N 
ATOM      4  C   UNL     1       3.567   6.965  -0.206  0.00  0.00    +0.187 C 
ATOM      5  C   UNL     1       2.955   8.380  -0.281  0.00  0.00    +0.123 C 
ATOM      6  C   UNL     1       1.466   8.135  -0.186  0.00  0.00    +0.144 C 
ATOM      7  N   UNL     1       1.242   6.889  -0.086  0.00  0.00    -0.174 NA
ENDROOT
BRANCH   1  10
ATOM      8  C   UNL     1      -1.260   3.943   0.050  0.00  0.00    +0.002 A 
ATOM      9  C   UNL     1      -0.081   4.660   0.046  0.00  0.00    +0.013 A 
ATOM     10  C   UNL     1       1.142   3.987   0.009  0.00  0.00    +0.040 A 
ATOM     11  C   UNL     1       1.163   2.592  -0.023  0.00  0.00    +0.028 A 
ATOM     12  C   UNL     1      -0.023   1.887  -0.019  0.00  0.00    +0.019 A 
ATOM     13  C   UNL     1      -1.232   2.561   0.012  0.00  0.00    +0.015 A 
ATOM     14 BR   UNL     1       0.002  -0.004  -0.063  0.00  0.00    -0.050 Br
ENDBRANCH   1  10
BRANCH   4  15
ATOM     15  C   UNL     1       4.451   6.829   1.006  0.00  0.00    +0.004 A 
ATOM     16  C   UNL     1       5.795   7.139   0.920  0.00  0.00    +0.010 A 
ATOM     17  C   UNL     1       6.605   7.018   2.034  0.00  0.00    +0.033 A 
ATOM     18  C   UNL     1       6.073   6.578   3.231  0.00  0.00    +0.126 A 
ATOM     19  C   UNL     1       4.729   6.263   3.316  0.00  0.00    +0.033 A 
ATOM     20  C   UNL     1       3.918   6.388   2.204  0.00  0.00    +0.010 A 
BRANCH  18  21
ATOM     21  N   UNL     1       6.941   6.444   4.422  0.00  0.00    +0.056 N 
ATOM     22  O   UNL     1       6.472   6.055   5.477  0.00  0.00    -0.126 OA
ATOM     23  O   UNL     1       8.125   6.721   4.347  0.00  0.00    -0.126 OA
ENDBRANCH  18  21
ENDBRANCH   4  15
BRANCH   6  24
ATOM     24  C   UNL     1       0.408   9.207  -0.208  0.00  0.00    +0.432 C 
ATOM     25  F   UNL     1      -0.856   8.618  -0.100  0.00  0.00    -0.165 F 
ATOM     26  F   UNL     1       0.608  10.081   0.866  0.00  0.00    -0.165 F 
ATOM     27  F   UNL     1       0.490   9.919  -1.410  0.00  0.00    -0.165 F 
ENDBRANCH   6  24
BRANCH   4  28
ATOM     28  O   UNL     1       4.295   6.670  -1.399  0.00  0.00    -0.366 OA
ATOM     29  H   UNL     1       4.639   5.767  -1.437  0.00  0.00    +0.212 HD
ENDBRANCH   4  28
TORSDOF 5
