REMARK  Name = ZINC06806061
REMARK  7 active torsions:
REMARK  status: ('A' for Active; 'I' for Inactive)
REMARK    1  A    between atoms: C_1  and  C_2
REMARK    2  A    between atoms: C_7  and  C_32
REMARK    3  A    between atoms: C_9  and  C_10
REMARK    4  A    between atoms: C_9  and  N_64
REMARK    5  A    between atoms: C_10  and  C_11
REMARK    6  A    between atoms: C_11  and  N_12
REMARK    7  A    between atoms: C_13  and  C_15
REMARK                            x       y       z     vdW  Elec       q    Type
REMARK                         _______ _______ _______ _____ _____    ______ ____
ROOT
ATOM      1  N   UNL     1       2.889   1.075   6.195  0.00  0.00    -0.315 N 
ATOM      2  C   UNL     1       4.020   1.462   6.817  0.00  0.00    +0.218 C 
ATOM      3  O   UNL     1       4.831   2.147   6.231  0.00  0.00    -0.275 OA
ATOM      4  H   UNL     1       2.241   0.527   6.664  0.00  0.00    +0.149 HD
ENDROOT
BRANCH   2   5
ATOM      5  C   UNL     1       4.278   1.043   8.242  0.00  0.00    +0.092 C 
ATOM      6  C   UNL     1       5.624   1.606   8.705  0.00  0.00    +0.016 C 
ATOM      7  C   UNL     1       5.905   1.126  10.132  0.00  0.00    +0.020 C 
ATOM      8  C   UNL     1       5.894  -0.404  10.162  0.00  0.00    +0.107 C 
ATOM      9  N   UNL     1       4.585  -0.894   9.710  0.00  0.00    -0.307 N 
ATOM     10  C   UNL     1       4.313  -0.485   8.326  0.00  0.00    +0.119 C 
ATOM     11  C   UNL     1       4.495  -2.272   9.849  0.00  0.00    +0.186 A 
ATOM     12  N   UNL     1       4.213  -3.202   8.948  0.00  0.00    -0.124 NA
ATOM     13  N   UNL     1       4.172  -4.427   9.245  0.00  0.00    -0.121 NA
ATOM     14  C   UNL     1       4.407  -4.860  10.473  0.00  0.00    +0.202 A 
ATOM     15  S   UNL     1       4.733  -3.302  11.294  0.00  0.00    -0.013 S 
ATOM     16  N   UNL     1       4.407  -6.160  10.982  0.00  0.00    -0.301 N 
ATOM     17  C   UNL     1       4.670  -6.508  12.276  0.00  0.00    +0.093 A 
ATOM     18  C   UNL     1       4.570  -7.849  12.379  0.00  0.00    +0.019 A 
ATOM     19  C   UNL     1       4.243  -8.349  11.103  0.00  0.00    +0.019 A 
ATOM     20  C   UNL     1       4.149  -7.295  10.267  0.00  0.00    +0.093 A 
ENDBRANCH   2   5
BRANCH   1  21
ATOM     21  C   UNL     1       2.639   1.483   4.810  0.00  0.00    +0.102 C 
BRANCH  21  22
ATOM     22  C   UNL     1       1.296   0.915   4.346  0.00  0.00    +0.000 C 
BRANCH  22  23
ATOM     23  C   UNL     1       1.035   1.341   2.900  0.00  0.00    -0.077 C 
BRANCH  23  31
ATOM     24  C   UNL     1      -1.578   2.677   2.886  0.00  0.00    -0.013 C 
ATOM     25  C   UNL     1      -1.366   1.189   3.171  0.00  0.00    -0.071 C 
ATOM     26  C   UNL     1      -2.609   0.406   2.745  0.00  0.00    -0.016 C 
ATOM     27  C   UNL     1      -2.835   0.595   1.242  0.00  0.00    -0.003 C 
ATOM     28  C   UNL     1      -1.588   0.131   0.484  0.00  0.00    -0.016 C 
ATOM     29  C   UNL     1      -0.374   0.923   0.976  0.00  0.00    -0.071 C 
ATOM     30  C   UNL     1       0.878   0.449   0.236  0.00  0.00    -0.013 C 
ATOM     31  N   UNL     1      -0.197   0.679   2.424  0.00  0.00    +0.383 N 
ATOM     32  H   UNL     1      -0.115  -0.332   2.584  0.00  0.00    -0.081 HD
ENDBRANCH  23  31
ENDBRANCH  22  23
ENDBRANCH  21  22
ENDBRANCH   1  21
TORSDOF 5
