REMARK  Name = ZINC18200013
REMARK  9 active torsions:
REMARK  status: ('A' for Active; 'I' for Inactive)
REMARK    1  A    between atoms: C_1  and  C_2
REMARK    2  A    between atoms: C_5  and  C_8
REMARK    3  A    between atoms: C_22  and  C_25
REMARK    4  A    between atoms: C_27  and  O_35
REMARK    5  A    between atoms: C_28  and  O_33
REMARK    6  A    between atoms: C_29  and  O_31
REMARK    7  A    between atoms: O_31  and  C_32
REMARK    8  A    between atoms: O_33  and  C_34
REMARK    9  A    between atoms: O_35  and  C_36
REMARK                            x       y       z     vdW  Elec       q    Type
REMARK                         _______ _______ _______ _____ _____    ______ ____
ROOT
ATOM      1  C   UNL     1       2.490   1.048  -0.016  0.00  0.00    +0.086 C 
ATOM      2  C   UNL     1       3.242   1.415  -1.263  0.00  0.00    -0.011 A 
ATOM      3  C   UNL     1       2.889   0.845  -2.473  0.00  0.00    +0.056 A 
ATOM      4  C   UNL     1       3.573   1.182  -3.629  0.00  0.00    +0.167 A 
ATOM      5  C   UNL     1       4.620   2.099  -3.576  0.00  0.00    +0.168 A 
ATOM      6  C   UNL     1       4.976   2.668  -2.366  0.00  0.00    +0.073 A 
ATOM      7  C   UNL     1       4.289   2.325  -1.209  0.00  0.00    +0.039 A 
ATOM      8  N   UNL     1       4.650   2.889   0.016  0.00  0.00    -0.317 N 
ATOM      9  C   UNL     1       4.291   2.284   1.186  0.00  0.00    +0.016 C 
ATOM     10  C   UNL     1       3.269   1.403   1.224  0.00  0.00    +0.024 C 
ATOM     11  C   UNL     1       2.892   0.786   2.430  0.00  0.00    +0.162 C 
ATOM     12  O   UNL     1       1.970  -0.006   2.432  0.00  0.00    -0.292 OA
ATOM     13  C   UNL     1       3.607   1.087   3.718  0.00  0.00    +0.088 C 
ATOM     14  C   UNL     1       4.165   2.513   3.657  0.00  0.00    +0.032 C 
ATOM     15  C   UNL     1       5.074   2.624   2.431  0.00  0.00    +0.059 C 
ATOM     16  O   UNL     1       5.123   2.261  -4.835  0.00  0.00    -0.453 OA
ATOM     17  C   UNL     1       4.646   1.131  -5.588  0.00  0.00    +0.466 C 
ATOM     18  O   UNL     1       3.422   0.768  -4.922  0.00  0.00    -0.453 OA
ATOM     19  H   UNL     1       5.159   3.714   0.036  0.00  0.00    +0.152 HD
ENDROOT
BRANCH   1  24
ATOM     20  C   UNL     1      -2.553   3.869   0.045  0.00  0.00    +0.044 C 
ATOM     21  C   UNL     1      -1.238   3.133   0.030  0.00  0.00    -0.050 A 
ATOM     22  C   UNL     1      -1.219   1.751   0.017  0.00  0.00    +0.003 A 
ATOM     23  C   UNL     1      -0.013   1.076   0.008  0.00  0.00    +0.005 A 
ATOM     24  C   UNL     1       1.175   1.783   0.000  0.00  0.00    -0.035 A 
ATOM     25  C   UNL     1       1.156   3.165   0.008  0.00  0.00    +0.005 A 
ATOM     26  C   UNL     1      -0.050   3.840   0.022  0.00  0.00    +0.003 A 
ENDBRANCH   1  24
BRANCH  14  27
ATOM     27  C   UNL     1       4.959   2.801   4.905  0.00  0.00    -0.036 A 
ATOM     28  C   UNL     1       6.045   2.009   5.230  0.00  0.00    +0.053 A 
ATOM     29  C   UNL     1       6.781   2.274   6.374  0.00  0.00    +0.165 A 
ATOM     30  C   UNL     1       6.419   3.330   7.202  0.00  0.00    +0.204 A 
ATOM     31  C   UNL     1       5.324   4.121   6.875  0.00  0.00    +0.165 A 
ATOM     32  C   UNL     1       4.596   3.852   5.726  0.00  0.00    +0.053 A 
BRANCH  31  33
ATOM     33  O   UNL     1       4.965   5.155   7.682  0.00  0.00    -0.491 OA
ATOM     34  C   UNL     1       3.829   5.924   7.284  0.00  0.00    +0.277 C 
ENDBRANCH  31  33
BRANCH  30  35
ATOM     35  O   UNL     1       7.136   3.590   8.329  0.00  0.00    -0.488 OA
ATOM     36  C   UNL     1       6.718   2.935   9.529  0.00  0.00    +0.277 C 
ENDBRANCH  30  35
BRANCH  29  37
ATOM     37  O   UNL     1       7.852   1.498   6.690  0.00  0.00    -0.491 OA
ATOM     38  C   UNL     1       8.166   0.430   5.793  0.00  0.00    +0.277 C 
ENDBRANCH  29  37
ENDBRANCH  14  27
TORSDOF 5
