REMARK  Name = ZINC09346354
REMARK  10 active torsions:
REMARK  status: ('A' for Active; 'I' for Inactive)
REMARK    1  A    between atoms: C_1  and  C_2
REMARK    2  A    between atoms: C_5  and  O_9
REMARK    3  A    between atoms: C_6  and  C_8
REMARK    4  A    between atoms: O_9  and  C_10
REMARK    5  A    between atoms: C_11  and  C_22
REMARK    6  A    between atoms: C_18  and  C_21
REMARK    7  A    between atoms: C_23  and  C_24
REMARK    8  A    between atoms: C_23  and  C_26
REMARK    9  A    between atoms: N_28  and  C_29
REMARK   10  A    between atoms: C_29  and  C_30
REMARK                            x       y       z     vdW  Elec       q    Type
REMARK                         _______ _______ _______ _____ _____    ______ ____
ROOT
ATOM      1  C   UNL     1       2.532   3.833  -0.430  0.00  0.00    +0.235 A 
ATOM      2  C   UNL     1       3.800   3.338  -0.038  0.00  0.00    +0.103 A 
ATOM      3  C   UNL     1       3.910   1.964   0.299  0.00  0.00    +0.269 A 
ATOM      4  O   UNL     1       4.980   1.493   0.643  0.00  0.00    -0.266 OA
ATOM      5  N   UNL     1       2.807   1.187   0.232  0.00  0.00    -0.267 N 
ATOM      6  C   UNL     1       2.903  -0.134   0.552  0.00  0.00    +0.096 A 
ATOM      7  C   UNL     1       1.818  -0.941   0.496  0.00  0.00    +0.019 A 
ATOM      8  C   UNL     1       0.578  -0.422   0.104  0.00  0.00    +0.008 A 
ATOM      9  C   UNL     1       0.473   0.899  -0.219  0.00  0.00    -0.007 A 
ATOM     10  C   UNL     1       1.611   1.721  -0.154  0.00  0.00    +0.147 A 
ATOM     11  N   UNL     1       1.497   3.013  -0.473  0.00  0.00    -0.194 NA
ATOM     12  C   UNL     1      -0.853   1.472  -0.649  0.00  0.00    +0.047 C 
ENDROOT
BRANCH   2  13
ATOM     13  C   UNL     1       4.920   4.187   0.018  0.00  0.00    +0.042 C 
ATOM     14  C   UNL     1       4.876   5.345   0.781  0.00  0.00    +0.114 C 
BRANCH  14  15
ATOM     15  C   UNL     1       5.990   6.298   0.733  0.00  0.00    +0.255 C 
ATOM     16  O   UNL     1       6.953   6.074   0.022  0.00  0.00    -0.269 OA
ATOM     17  N   UNL     1       5.947   7.423   1.474  0.00  0.00    -0.307 N 
ATOM     18  H   UNL     1       5.180   7.602   2.040  0.00  0.00    +0.149 HD
BRANCH  17  19
ATOM     19  C   UNL     1       7.060   8.375   1.425  0.00  0.00    +0.139 C 
BRANCH  19  20
ATOM     20  C   UNL     1       6.766   9.538   2.338  0.00  0.00    -0.030 A 
ATOM     21  C   UNL     1       6.104  10.649   1.851  0.00  0.00    +0.005 A 
ATOM     22  C   UNL     1       5.831  11.713   2.690  0.00  0.00    +0.000 A 
ATOM     23  C   UNL     1       6.229  11.670   4.013  0.00  0.00    +0.000 A 
ATOM     24  C   UNL     1       6.896  10.561   4.498  0.00  0.00    +0.000 A 
ATOM     25  C   UNL     1       7.165   9.495   3.661  0.00  0.00    +0.005 A 
ENDBRANCH  19  20
ENDBRANCH  17  19
ENDBRANCH  14  15
BRANCH  14  26
ATOM     26  C   UNL     1       3.744   5.609   1.617  0.00  0.00    +0.104 C 
ATOM     27  N   UNL     1       2.845   5.819   2.280  0.00  0.00    -0.191 NA
ENDBRANCH  14  26
ENDBRANCH   2  13
BRANCH   1  28
ATOM     28  O   UNL     1       2.382   5.136  -0.759  0.00  0.00    -0.437 OA
BRANCH  28  33
ATOM     29  C   UNL     1      -2.616   6.802  -2.752  0.00  0.00    +0.044 C 
ATOM     30  C   UNL     1      -1.278   6.356  -2.219  0.00  0.00    -0.050 A 
ATOM     31  C   UNL     1      -1.004   6.462  -0.867  0.00  0.00    +0.007 A 
ATOM     32  C   UNL     1       0.221   6.054  -0.376  0.00  0.00    +0.047 A 
ATOM     33  C   UNL     1       1.177   5.537  -1.240  0.00  0.00    +0.133 A 
ATOM     34  C   UNL     1       0.901   5.438  -2.596  0.00  0.00    -0.008 A 
ATOM     35  C   UNL     1      -0.328   5.842  -3.081  0.00  0.00    +0.010 A 
ATOM     36  C   UNL     1       1.938   4.884  -3.538  0.00  0.00    +0.047 C 
ENDBRANCH  28  33
ENDBRANCH   1  28
TORSDOF 7
