REMARK  Name = ZINC15188089
REMARK  8 active torsions:
REMARK  status: ('A' for Active; 'I' for Inactive)
REMARK    1  A    between atoms: C_3  and  N_38
REMARK    2  A    between atoms: C_6  and  C_7
REMARK    3  A    between atoms: C_18  and  C_23
REMARK    4  A    between atoms: C_23  and  O_25
REMARK    5  A    between atoms: O_25  and  C_26
REMARK    6  A    between atoms: C_26  and  C_27
REMARK    7  A    between atoms: C_27  and  C_29
REMARK    8  A    between atoms: C_32  and  N_35
REMARK                            x       y       z     vdW  Elec       q    Type
REMARK                         _______ _______ _______ _____ _____    ______ ____
ROOT
ATOM      1  C   UNL     1      -0.357   3.064   1.477  0.00  0.00    +0.105 C 
ATOM      2  C   UNL     1      -0.436   1.558   1.210  0.00  0.00    +0.029 C 
ATOM      3  C   UNL     1       0.598   1.230   0.093  0.00  0.00    +0.033 C 
ATOM      4  C   UNL     1      -0.134   1.588  -1.185  0.00  0.00    -0.030 C 
ATOM      5  C   UNL     1      -1.430   1.583  -0.989  0.00  0.00    -0.023 C 
ATOM      6  C   UNL     1      -1.740   1.228   0.446  0.00  0.00    +0.049 C 
ATOM      7  C   UNL     1      -2.921   1.992   0.956  0.00  0.00    -0.019 A 
ATOM      8  C   UNL     1      -4.184   1.613   0.540  0.00  0.00    +0.021 A 
ATOM      9  C   UNL     1      -5.311   2.300   0.996  0.00  0.00    +0.059 A 
ATOM     10  C   UNL     1      -5.164   3.377   1.877  0.00  0.00    +0.017 A 
ATOM     11  C   UNL     1      -3.909   3.752   2.297  0.00  0.00    +0.024 A 
ATOM     12  C   UNL     1      -2.787   3.066   1.839  0.00  0.00    +0.031 A 
ATOM     13  N   UNL     1      -1.524   3.469   2.267  0.00  0.00    -0.336 N 
ATOM     14  H   UNL     1      -1.419   4.006   3.068  0.00  0.00    +0.147 HD
ENDROOT
BRANCH   1  20
ATOM     15  C   UNL     1       0.849   4.102  -0.455  0.00  0.00    +0.008 A 
ATOM     16  C   UNL     1       0.855   4.782  -1.659  0.00  0.00    +0.033 A 
ATOM     17  C   UNL     1      -0.338   5.177  -2.236  0.00  0.00    +0.126 A 
ATOM     18  C   UNL     1      -1.536   4.889  -1.610  0.00  0.00    +0.033 A 
ATOM     19  C   UNL     1      -1.543   4.205  -0.409  0.00  0.00    +0.008 A 
ATOM     20  C   UNL     1      -0.350   3.809   0.167  0.00  0.00    -0.027 A 
BRANCH  17  21
ATOM     21  N   UNL     1      -0.331   5.909  -3.522  0.00  0.00    +0.056 N 
ATOM     22  O   UNL     1      -1.382   6.257  -4.030  0.00  0.00    -0.126 OA
ATOM     23  O   UNL     1       0.725   6.163  -4.073  0.00  0.00    -0.126 OA
ENDBRANCH  17  21
ENDBRANCH   1  20
BRANCH   9  24
ATOM     24  C   UNL     1      -6.655   1.891   0.549  0.00  0.00    +0.340 C 
ATOM     25  O   UNL     1      -6.782   0.956  -0.216  0.00  0.00    -0.245 OA
BRANCH  24  26
ATOM     26  O   UNL     1      -7.742   2.554   0.989  0.00  0.00    -0.453 OA
BRANCH  26  27
ATOM     27  C   UNL     1      -9.033   2.096   0.508  0.00  0.00    +0.311 C 
BRANCH  27  28
ATOM     28  C   UNL     1     -10.123   2.951   1.102  0.00  0.00    +0.200 C 
ATOM     29  O   UNL     1      -9.839   3.857   1.857  0.00  0.00    -0.288 OA
BRANCH  28  30
ATOM     30  C   UNL     1     -11.531   2.687   0.766  0.00  0.00    +0.021 A 
ATOM     31  C   UNL     1     -11.862   1.647  -0.109  0.00  0.00    +0.014 A 
ATOM     32  C   UNL     1     -13.184   1.403  -0.415  0.00  0.00    +0.033 A 
ATOM     33  C   UNL     1     -14.181   2.190   0.133  0.00  0.00    +0.126 A 
ATOM     34  C   UNL     1     -13.862   3.224   0.996  0.00  0.00    +0.033 A 
ATOM     35  C   UNL     1     -12.545   3.478   1.315  0.00  0.00    +0.014 A 
BRANCH  33  36
ATOM     36  N   UNL     1     -15.598   1.925  -0.205  0.00  0.00    +0.056 N 
ATOM     37  O   UNL     1     -16.478   2.615   0.275  0.00  0.00    -0.126 OA
ATOM     38  O   UNL     1     -15.883   1.015  -0.964  0.00  0.00    -0.126 OA
ENDBRANCH  33  36
ENDBRANCH  28  30
ENDBRANCH  27  28
ENDBRANCH  26  27
ENDBRANCH  24  26
ENDBRANCH   9  24
TORSDOF 8
