REMARK  Name = ZINC20597612
REMARK  2 active torsions:
REMARK  status: ('A' for Active; 'I' for Inactive)
REMARK    1  A    between atoms: C_4  and  N_11
REMARK    2  A    between atoms: C_5  and  C_7
REMARK                            x       y       z     vdW  Elec       q    Type
REMARK                         _______ _______ _______ _____ _____    ______ ____
ROOT
ATOM      1  N   UNL     1      -1.139   2.850   0.098  0.00  0.00    -0.268 N 
ATOM      2  C   UNL     1      -1.236   1.593  -0.380  0.00  0.00    +0.311 C 
ATOM      3  O   UNL     1      -0.239   1.004  -0.750  0.00  0.00    -0.252 OA
ATOM      4  N   UNL     1      -2.440   0.990  -0.448  0.00  0.00    -0.252 N 
ATOM      5  C   UNL     1      -3.676   1.752  -0.173  0.00  0.00    +0.137 C 
ATOM      6  C   UNL     1      -4.736   1.173  -1.113  0.00  0.00    +0.091 C 
ATOM      7  C   UNL     1      -6.141   1.759  -0.879  0.00  0.00    +0.025 C 
ATOM      8  C   UNL     1      -7.060   0.616  -1.390  0.00  0.00    +0.021 C 
ATOM      9  C   UNL     1      -6.188  -0.663  -1.317  0.00  0.00    +0.105 C 
ATOM     10  N   UNL     1      -4.924  -0.246  -0.721  0.00  0.00    -0.324 N 
ATOM     11  C   UNL     1      -3.785  -0.986  -0.939  0.00  0.00    +0.052 A 
ATOM     12  C   UNL     1      -2.535  -0.375  -0.776  0.00  0.00    +0.059 A 
ATOM     13  C   UNL     1      -1.379  -1.121  -0.942  0.00  0.00    +0.025 A 
ATOM     14  C   UNL     1      -1.457  -2.459  -1.281  0.00  0.00    +0.002 A 
ATOM     15  C   UNL     1      -2.690  -3.059  -1.459  0.00  0.00    +0.002 A 
ATOM     16  C   UNL     1      -3.850  -2.326  -1.289  0.00  0.00    +0.025 A 
ATOM     17  H   UNL     1      -2.027   3.352   0.509  0.00  0.00    +0.156 HD
ENDROOT
BRANCH   1  21
ATOM     18  C   UNL     1       2.526   4.830   0.016  0.00  0.00    +0.001 A 
ATOM     19  C   UNL     1       2.489   3.448   0.051  0.00  0.00    +0.002 A 
ATOM     20  C   UNL     1       1.276   2.789   0.078  0.00  0.00    +0.024 A 
ATOM     21  C   UNL     1       0.092   3.515   0.070  0.00  0.00    +0.046 A 
ATOM     22  C   UNL     1       0.132   4.902   0.030  0.00  0.00    +0.076 A 
ATOM     23  C   UNL     1       1.349   5.556   0.008  0.00  0.00    +0.014 A 
BRANCH  22  24
ATOM     24  C   UNL     1      -1.150   5.694   0.015  0.00  0.00    +0.419 C 
ATOM     25  F   UNL     1      -0.854   7.061  -0.027  0.00  0.00    -0.166 F 
ATOM     26  F   UNL     1      -1.901   5.345  -1.113  0.00  0.00    -0.166 F 
ATOM     27  F   UNL     1      -1.886   5.411   1.171  0.00  0.00    -0.166 F 
ENDBRANCH  22  24
ENDBRANCH   1  21
TORSDOF 2
