REMARK  Name = ZINC35341355
REMARK  3 active torsions:
REMARK  status: ('A' for Active; 'I' for Inactive)
REMARK    1  A    between atoms: C_6  and  N_7
REMARK    2  A    between atoms: N_7  and  C_8
REMARK    3  A    between atoms: C_13  and  N_14
REMARK                            x       y       z     vdW  Elec       q    Type
REMARK                         _______ _______ _______ _____ _____    ______ ____
ROOT
ATOM      1  C   UNL     1      -1.180  -2.118  -0.103  0.00  0.00    +0.053 A 
ATOM      2  C   UNL     1       0.028  -2.798  -0.114  0.00  0.00    +0.030 A 
ATOM      3  C   UNL     1       0.046  -4.175  -0.225  0.00  0.00    -0.024 A 
ATOM      4  C   UNL     1      -1.145  -4.882  -0.327  0.00  0.00    +0.038 A 
ATOM      5  C   UNL     1      -2.357  -4.206  -0.317  0.00  0.00    +0.048 A 
ATOM      6  C   UNL     1      -2.378  -2.825  -0.201  0.00  0.00    +0.048 A 
ATOM      7  N   UNL     1      -1.120  -6.278  -0.440  0.00  0.00    -0.285 N 
ATOM      8  C   UNL     1      -0.024  -6.972  -0.084  0.00  0.00    +0.218 C 
ATOM      9  O   UNL     1      -0.014  -8.179  -0.201  0.00  0.00    -0.275 OA
ATOM     10  C   UNL     1       1.191  -6.267   0.457  0.00  0.00    +0.101 C 
ATOM     11  C   UNL     1       1.360  -4.915  -0.236  0.00  0.00    +0.046 C 
ATOM     12  H   UNL     1      -1.899  -6.748  -0.777  0.00  0.00    +0.155 HD
ENDROOT
BRANCH   6  13
ATOM     13  N   UNL     1      -3.599  -2.142  -0.185  0.00  0.00    -0.356 N 
ATOM     14  H   UNL     1      -3.613  -1.175  -0.107  0.00  0.00    +0.142 HD
ATOM     15  H   UNL     1      -4.432  -2.635  -0.253  0.00  0.00    +0.142 HD
ENDBRANCH   6  13
BRANCH   1  16
ATOM     16  N   UNL     1      -1.198  -0.720   0.010  0.00  0.00    -0.313 N 
ATOM     17  H   UNL     1      -2.040  -0.254   0.128  0.00  0.00    +0.152 HD
BRANCH  16  23
ATOM     18  C   UNL     1       0.971  -0.338  -0.980  0.00  0.00    +0.025 A 
ATOM     19  C   UNL     1       2.152   0.376  -1.035  0.00  0.00    +0.023 A 
ATOM     20  C   UNL     1       2.368   1.427  -0.162  0.00  0.00    +0.059 A 
ATOM     21  C   UNL     1       1.400   1.768   0.769  0.00  0.00    +0.061 A 
ATOM     22  C   UNL     1       0.217   1.056   0.829  0.00  0.00    +0.044 A 
ATOM     23  C   UNL     1      -0.002   0.000  -0.047  0.00  0.00    +0.033 A 
ATOM     24 CL   UNL     1       1.675   3.087   1.863  0.00  0.00    -0.082 Cl
ATOM     25 CL   UNL     1       3.853   2.322  -0.234  0.00  0.00    -0.082 Cl
ENDBRANCH  16  23
ENDBRANCH   1  16
TORSDOF 3
