REMARK  Name = ZINC41358982
REMARK  9 active torsions:
REMARK  status: ('A' for Active; 'I' for Inactive)
REMARK    1  A    between atoms: C_1  and  C_2
REMARK    2  A    between atoms: C_2  and  C_3
REMARK    3  A    between atoms: C_2  and  C_4
REMARK    4  A    between atoms: C_2  and  C_5
REMARK    5  A    between atoms: C_8  and  C_11
REMARK    6  A    between atoms: C_13  and  O_14
REMARK    7  A    between atoms: C_23  and  C_25
REMARK    8  A    between atoms: C_25  and  C_26
REMARK    9  A    between atoms: C_26  and  C_27
REMARK                            x       y       z     vdW  Elec       q    Type
REMARK                         _______ _______ _______ _____ _____    ______ ____
ROOT
ATOM      1  C   UNL     1       2.631  -1.478  -4.994  0.00  0.00    +0.139 A 
ATOM      2  C   UNL     1       3.985  -1.249  -5.134  0.00  0.00    +0.093 A 
ATOM      3  C   UNL     1       4.684  -1.850  -6.182  0.00  0.00    +0.131 A 
ATOM      4  C   UNL     1       3.969  -2.685  -7.076  0.00  0.00    +0.059 A 
ATOM      5  C   UNL     1       4.621  -3.316  -8.148  0.00  0.00    +0.017 A 
ATOM      6  C   UNL     1       3.919  -4.114  -8.995  0.00  0.00    +0.024 A 
ATOM      7  C   UNL     1       2.540  -4.313  -8.804  0.00  0.00    +0.037 A 
ATOM      8  C   UNL     1       1.879  -3.692  -7.744  0.00  0.00    +0.070 A 
ATOM      9  C   UNL     1       2.585  -2.878  -6.876  0.00  0.00    +0.141 A 
ATOM     10  O   UNL     1       1.964  -2.275  -5.842  0.00  0.00    -0.455 OA
ATOM     11  N   UNL     1       1.847  -5.114  -9.659  0.00  0.00    -0.285 N 
ATOM     12  C   UNL     1       2.492  -5.945 -10.454  0.00  0.00    +0.218 C 
ATOM     13  O   UNL     1       3.697  -6.085 -10.339  0.00  0.00    -0.275 OA
ATOM     14  H   UNL     1       0.878  -5.074  -9.683  0.00  0.00    +0.155 HD
ENDROOT
BRANCH   1  18
ATOM     15  C   UNL     1       0.537   0.366  -1.795  0.00  0.00    -0.042 A 
ATOM     16  C   UNL     1      -0.140  -0.458  -2.677  0.00  0.00    +0.005 A 
ATOM     17  C   UNL     1       0.534  -1.060  -3.719  0.00  0.00    +0.012 A 
ATOM     18  C   UNL     1       1.904  -0.837  -3.882  0.00  0.00    +0.017 A 
ATOM     19  C   UNL     1       2.580  -0.004  -2.987  0.00  0.00    +0.012 A 
ATOM     20  C   UNL     1       1.892   0.596  -1.954  0.00  0.00    +0.005 A 
BRANCH  15  22
ATOM     21  C   UNL     1      -0.100   2.542  -0.790  0.00  0.00    +0.015 C 
ATOM     22  C   UNL     1      -0.207   1.021  -0.659  0.00  0.00    -0.013 C 
ATOM     23  C   UNL     1       0.404   0.579   0.672  0.00  0.00    +0.015 C 
ATOM     24  C   UNL     1      -1.679   0.607  -0.708  0.00  0.00    +0.015 C 
ENDBRANCH  15  22
ENDBRANCH   1  18
BRANCH   3  25
ATOM     25  O   UNL     1       6.009  -1.641  -6.340  0.00  0.00    -0.506 OA
ATOM     26  H   UNL     1       6.397  -1.055  -5.675  0.00  0.00    +0.292 HD
ENDBRANCH   3  25
BRANCH  12  27
ATOM     27  C   UNL     1       1.740  -6.722 -11.503  0.00  0.00    +0.104 C 
BRANCH  27  28
ATOM     28  C   UNL     1       2.716  -7.605 -12.282  0.00  0.00    +0.086 C 
BRANCH  28  29
ATOM     29  C   UNL     1       1.963  -8.382 -13.332  0.00  0.00    +0.139 A 
ATOM     30  C   UNL     1       1.734  -7.984 -14.598  0.00  0.00    +0.087 A 
ATOM     31  C   UNL     1       1.000  -8.994 -15.248  0.00  0.00    +0.172 A 
ATOM     32  N   UNL     1       0.799  -9.960 -14.395  0.00  0.00    -0.066 NA
ATOM     33  O   UNL     1       1.409  -9.593 -13.170  0.00  0.00    -0.358 OA
ATOM     34 CL   UNL     1       0.456  -8.959 -16.896  0.00  0.00    -0.058 Cl
ENDBRANCH  28  29
ENDBRANCH  27  28
ENDBRANCH  12  27
TORSDOF 6
