REMARK  Name = ZINC03019006
REMARK  8 active torsions:
REMARK  status: ('A' for Active; 'I' for Inactive)
REMARK    1  A    between atoms: C_1  and  C_2
REMARK    2  A    between atoms: C_2  and  O_3
REMARK    3  A    between atoms: O_3  and  C_4
REMARK    4  A    between atoms: C_9  and  N_10
REMARK    5  A    between atoms: N_15  and  C_23
REMARK    6  A    between atoms: C_16  and  S_18
REMARK    7  A    between atoms: S_18  and  C_19
REMARK    8  A    between atoms: C_19  and  C_20
REMARK                            x       y       z     vdW  Elec       q    Type
REMARK                         _______ _______ _______ _____ _____    ______ ____
ROOT
ATOM      1  N   UNL     1       1.949  -1.456  -3.422  0.00  0.00    -0.278 N 
ATOM      2  C   UNL     1       3.232  -0.986  -3.291  0.00  0.00    +0.161 A 
ATOM      3  C   UNL     1       3.937  -0.787  -4.481  0.00  0.00    +0.122 A 
ATOM      4  C   UNL     1       5.242  -0.315  -4.490  0.00  0.00    +0.275 A 
ATOM      5  O   UNL     1       5.840  -0.147  -5.541  0.00  0.00    -0.266 OA
ATOM      6  N   UNL     1       5.835  -0.044  -3.302  0.00  0.00    -0.255 N 
ATOM      7  C   UNL     1       5.128  -0.246  -2.151  0.00  0.00    +0.179 A 
ATOM      8  N   UNL     1       3.897  -0.691  -2.147  0.00  0.00    -0.204 NA
ATOM      9  S   UNL     1       2.770  -1.268  -5.729  0.00  0.00    -0.055 S 
ATOM     10  C   UNL     1       1.425  -1.709  -4.639  0.00  0.00    +0.132 A 
ATOM     11  S   UNL     1      -0.132  -2.300  -5.037  0.00  0.00    -0.024 S 
ENDROOT
BRANCH   6  12
ATOM     12  C   UNL     1       7.151   0.434  -3.255  0.00  0.00    +0.052 A 
ATOM     13  C   UNL     1       8.213  -0.458  -3.182  0.00  0.00    +0.029 A 
ATOM     14  C   UNL     1       9.509   0.015  -3.136  0.00  0.00    +0.040 A 
ATOM     15  C   UNL     1       9.751   1.378  -3.163  0.00  0.00    +0.124 A 
ATOM     16  C   UNL     1       8.694   2.269  -3.236  0.00  0.00    +0.040 A 
ATOM     17  C   UNL     1       7.396   1.800  -3.288  0.00  0.00    +0.029 A 
ATOM     18  F   UNL     1      11.020   1.839  -3.118  0.00  0.00    -0.205 F 
ENDBRANCH   6  12
BRANCH   1  24
ATOM     19  C   UNL     1       0.376  -0.665  -1.759  0.00  0.00    +0.144 A 
ATOM     20  C   UNL     1      -0.392  -0.896  -0.629  0.00  0.00    +0.048 A 
ATOM     21  C   UNL     1      -0.359  -2.132  -0.012  0.00  0.00    +0.004 A 
ATOM     22  C   UNL     1       0.439  -3.141  -0.519  0.00  0.00    +0.002 A 
ATOM     23  C   UNL     1       1.207  -2.919  -1.646  0.00  0.00    +0.030 A 
ATOM     24  C   UNL     1       1.175  -1.683  -2.274  0.00  0.00    +0.091 A 
BRANCH  19  25
ATOM     25  O   UNL     1       0.344   0.551  -2.367  0.00  0.00    -0.490 OA
BRANCH  25  27
ATOM     26  C   UNL     1      -0.402   2.838  -2.599  0.00  0.00    +0.048 C 
ATOM     27  C   UNL     1      -0.498   1.547  -1.784  0.00  0.00    +0.226 C 
ENDBRANCH  25  27
ENDBRANCH  19  25
ENDBRANCH   1  24
BRANCH   7  28
ATOM     28  S   UNL     1       5.905   0.107  -0.610  0.00  0.00    -0.076 S 
BRANCH  28  29
ATOM     29  C   UNL     1       4.636  -0.294   0.623  0.00  0.00    +0.202 C 
BRANCH  29  30
ATOM     30  C   UNL     1       5.178  -0.034   2.005  0.00  0.00    +0.366 C 
ATOM     31  O   UNL     1       6.314   0.384   2.145  0.00  0.00    -0.245 OA
ATOM     32  O   UNL     1       4.479  -0.240   2.982  0.00  0.00    -0.245 OA
ENDBRANCH  29  30
ENDBRANCH  28  29
ENDBRANCH   7  28
TORSDOF 7
