REMARK  Name = ZINC22866393
REMARK  5 active torsions:
REMARK  status: ('A' for Active; 'I' for Inactive)
REMARK    1  A    between atoms: N_9  and  C_29
REMARK    2  A    between atoms: C_10  and  S_12
REMARK    3  A    between atoms: S_12  and  C_13
REMARK    4  A    between atoms: C_13  and  C_14
REMARK    5  A    between atoms: N_16  and  N_17
REMARK                            x       y       z     vdW  Elec       q    Type
REMARK                         _______ _______ _______ _____ _____    ______ ____
ROOT
ATOM      1  C   UNL     1      -2.482   0.853   0.018  0.00  0.00    +0.174 C 
ENDROOT
BRANCH   1   2
ATOM      2  C   UNL     1      -1.187   1.624   0.017  0.00  0.00    +0.240 C 
ATOM      3  O   UNL     1      -1.204   2.837   0.023  0.00  0.00    -0.273 OA
ATOM      4  N   UNL     1      -0.011   0.966   0.007  0.00  0.00    -0.223 N 
ATOM      5  H   UNL     1       0.004  -0.134   0.006  0.00  0.00    +0.174 HD
BRANCH   4   6
ATOM      6  N   UNL     1       1.193   1.683  -0.000  0.00  0.00    -0.137 N 
ATOM      7  C   UNL     1       2.002   1.817   1.071  0.00  0.00    +0.263 C 
ATOM      8  O   UNL     1       1.834   1.358   2.180  0.00  0.00    -0.271 OA
ATOM      9  C   UNL     1       3.163   2.660   0.596  0.00  0.00    +0.114 C 
ATOM     10  C   UNL     1       4.469   1.881   0.716  0.00  0.00    +0.035 C 
ATOM     11  C   UNL     1       5.628   2.741   0.204  0.00  0.00    +0.003 C 
ATOM     12  C   UNL     1       5.706   4.030   1.025  0.00  0.00    +0.000 C 
ATOM     13  C   UNL     1       4.399   4.811   0.874  0.00  0.00    +0.003 C 
ATOM     14  C   UNL     1       3.235   3.960   1.389  0.00  0.00    +0.035 C 
ATOM     15  N   UNL     1       2.854   2.932  -0.814  0.00  0.00    -0.284 N 
ATOM     16  C   UNL     1       1.685   2.315  -1.073  0.00  0.00    +0.326 C 
ATOM     17  O   UNL     1       1.137   2.333  -2.157  0.00  0.00    -0.251 OA
ATOM     18  H   UNL     1       3.540   3.541  -1.420  0.00  0.00    +0.151 HD
ENDBRANCH   4   6
ENDBRANCH   1   2
BRANCH   1  19
ATOM     19  S   UNL     1      -3.874   2.010   0.031  0.00  0.00    -0.078 S 
BRANCH  19  29
ATOM     20  C   UNL     1      -7.993  -3.191   0.022  0.00  0.00    +0.001 A 
ATOM     21  C   UNL     1      -6.669  -3.610   0.013  0.00  0.00    +0.002 A 
ATOM     22  C   UNL     1      -5.645  -2.706   0.014  0.00  0.00    +0.028 A 
ATOM     23  C   UNL     1      -5.931  -1.337   0.023  0.00  0.00    +0.079 A 
ATOM     24  C   UNL     1      -7.279  -0.914   0.032  0.00  0.00    +0.065 A 
ATOM     25  C   UNL     1      -8.305  -1.859   0.031  0.00  0.00    +0.015 A 
ATOM     26  C   UNL     1      -7.554   0.529   0.041  0.00  0.00    +0.263 A 
ATOM     27  O   UNL     1      -8.694   0.955   0.049  0.00  0.00    -0.267 OA
ATOM     28  N   UNL     1      -6.491   1.367   0.046  0.00  0.00    -0.284 N 
ATOM     29  C   UNL     1      -5.218   0.872   0.032  0.00  0.00    +0.173 A 
ATOM     30  N   UNL     1      -4.951  -0.411   0.023  0.00  0.00    -0.223 NA
BRANCH  28  31
ATOM     31  C   UNL     1      -6.707   2.816   0.060  0.00  0.00    +0.093 C 
ATOM     32  C   UNL     1      -7.537   3.214   1.298  0.00  0.00    +0.025 C 
ATOM     33  C   UNL     1      -8.458   4.351   0.788  0.00  0.00    +0.002 C 
ATOM     34  C   UNL     1      -8.823   3.880  -0.642  0.00  0.00    +0.002 C 
ATOM     35  C   UNL     1      -7.524   3.240  -1.173  0.00  0.00    +0.025 C 
ENDBRANCH  28  31
ENDBRANCH  19  29
ENDBRANCH   1  19
TORSDOF 5
