REMARK  Name = ZINC18286682
REMARK  4 active torsions:
REMARK  status: ('A' for Active; 'I' for Inactive)
REMARK    1  A    between atoms: C_6  and  N_7
REMARK    2  A    between atoms: C_11  and  N_15
REMARK    3  A    between atoms: C_18  and  C_21
REMARK    4  A    between atoms: C_18  and  N_24
REMARK                            x       y       z     vdW  Elec       q    Type
REMARK                         _______ _______ _______ _____ _____    ______ ____
ROOT
ATOM      1  N   UNL     1      -3.834  -3.085  -1.124  0.00  0.00    -0.291 NA
ATOM      2  C   UNL     1      -5.175  -3.532  -1.523  0.00  0.00    +0.084 C 
ATOM      3  C   UNL     1      -5.117  -4.128  -2.932  0.00  0.00    +0.013 C 
ATOM      4  C   UNL     1      -4.141  -5.308  -2.942  0.00  0.00    +0.015 C 
ATOM      5  C   UNL     1      -2.764  -4.825  -2.477  0.00  0.00    +0.013 C 
ATOM      6  C   UNL     1      -2.890  -4.209  -1.081  0.00  0.00    +0.084 C 
ENDROOT
BRANCH   1  11
ATOM      7  N   UNL     1      -2.733  -0.393   0.550  0.00  0.00    -0.209 N 
ATOM      8  C   UNL     1      -3.999   0.005   0.374  0.00  0.00    +0.228 C 
ATOM      9  O   UNL     1      -4.387   1.153   0.418  0.00  0.00    -0.275 OA
ATOM     10  C   UNL     1      -4.868  -1.204   0.110  0.00  0.00    +0.125 C 
ATOM     11  C   UNL     1      -3.875  -2.383   0.165  0.00  0.00    +0.153 C 
ATOM     12  C   UNL     1      -2.547  -1.715   0.449  0.00  0.00    +0.244 C 
ATOM     13  O   UNL     1      -1.485  -2.286   0.568  0.00  0.00    -0.273 OA
BRANCH   7  19
ATOM     14  C   UNL     1      -0.629   0.619  -0.079  0.00  0.00    +0.025 A 
ATOM     15  C   UNL     1       0.401   1.501   0.183  0.00  0.00    +0.016 A 
ATOM     16  C   UNL     1       0.380   2.268   1.333  0.00  0.00    +0.013 A 
ATOM     17  C   UNL     1      -0.672   2.154   2.225  0.00  0.00    +0.016 A 
ATOM     18  C   UNL     1      -1.704   1.274   1.968  0.00  0.00    +0.025 A 
ATOM     19  C   UNL     1      -1.686   0.502   0.814  0.00  0.00    +0.044 A 
ATOM     20  I   UNL     1       1.944   3.606   1.727  0.00  0.00    -0.044 I 
ENDBRANCH   7  19
ENDBRANCH   1  11
BRANCH   4  21
ATOM     21  N   UNL     1      -4.038  -5.847  -4.305  0.00  0.00    +0.389 N 
ATOM     22  C   UNL     1      -5.367  -6.266  -4.766  0.00  0.00    -0.077 C 
ATOM     23  C   UNL     1      -5.278  -6.753  -6.214  0.00  0.00    -0.019 C 
ATOM     24  C   UNL     1      -4.313  -7.939  -6.289  0.00  0.00    -0.004 C 
ATOM     25  C   UNL     1      -2.950  -7.511  -5.737  0.00  0.00    -0.019 C 
ATOM     26  C   UNL     1      -3.125  -6.996  -4.306  0.00  0.00    -0.077 C 
ATOM     27  H   UNL     1      -3.679  -5.133  -4.921  0.00  0.00    -0.080 HD
ENDBRANCH   4  21
BRANCH   4  28
ATOM     28  C   UNL     1      -4.640  -6.382  -2.011  0.00  0.00    +0.200 C 
ATOM     29  O   UNL     1      -5.789  -6.363  -1.622  0.00  0.00    -0.278 OA
ATOM     30  N   UNL     1      -3.809  -7.364  -1.609  0.00  0.00    -0.330 N 
ATOM     31  H   UNL     1      -2.912  -7.420  -1.973  0.00  0.00    +0.145 HD
ATOM     32  H   UNL     1      -4.108  -8.016  -0.956  0.00  0.00    +0.145 HD
ENDBRANCH   4  28
TORSDOF 4
