REMARK  Name = ZINC46865928
REMARK  10 active torsions:
REMARK  status: ('A' for Active; 'I' for Inactive)
REMARK    1  A    between atoms: C_1  and  C_2
REMARK    2  A    between atoms: C_2  and  C_4
REMARK    3  A    between atoms: C_2  and  N_12
REMARK    4  A    between atoms: C_9  and  O_10
REMARK    5  A    between atoms: O_10  and  C_11
REMARK    6  A    between atoms: N_12  and  C_13
REMARK    7  A    between atoms: N_12  and  C_14
REMARK    8  A    between atoms: C_14  and  C_15
REMARK    9  A    between atoms: N_17  and  C_18
REMARK   10  A    between atoms: C_18  and  C_23
REMARK                            x       y       z     vdW  Elec       q    Type
REMARK                         _______ _______ _______ _____ _____    ______ ____
ROOT
ATOM      1  C   UNL     1       0.172  -0.396  -3.790  0.00  0.00    +0.197 C 
ATOM      2  O   UNL     1       1.138  -1.048  -3.454  0.00  0.00    -0.278 OA
ATOM      3  N   UNL     1       0.028  -0.018  -5.076  0.00  0.00    -0.307 N 
ATOM      4  H   UNL     1      -0.778   0.441  -5.359  0.00  0.00    +0.149 HD
ENDROOT
BRANCH   3   5
ATOM      5  C   UNL     1       1.089  -0.302  -6.046  0.00  0.00    +0.060 C 
ATOM      6  C   UNL     1       0.780   0.397  -7.386  0.00  0.00    +0.030 C 
ATOM      7  C   UNL     1       1.574   1.725  -7.313  0.00  0.00    +0.002 C 
ATOM      8  C   UNL     1       2.884   1.302  -6.602  0.00  0.00    +0.002 C 
ATOM      9  C   UNL     1       2.426   0.273  -5.547  0.00  0.00    +0.030 C 
BRANCH   5  10
ATOM     10  C   UNL     1       1.212  -1.789  -6.255  0.00  0.00    -0.020 A 
ATOM     11  C   UNL     1       2.378  -2.318  -6.777  0.00  0.00    +0.009 A 
ATOM     12  C   UNL     1       2.494  -3.682  -6.971  0.00  0.00    +0.050 A 
ATOM     13  C   UNL     1       1.441  -4.523  -6.643  0.00  0.00    +0.162 A 
ATOM     14  C   UNL     1       0.270  -3.991  -6.116  0.00  0.00    +0.162 A 
ATOM     15  C   UNL     1       0.162  -2.623  -5.919  0.00  0.00    +0.055 A 
ATOM     16  O   UNL     1      -0.772  -4.800  -5.780  0.00  0.00    -0.485 OA
ATOM     17  C   UNL     1      -0.765  -6.121  -6.331  0.00  0.00    +0.270 C 
ATOM     18  C   UNL     1       0.641  -6.708  -6.155  0.00  0.00    +0.270 C 
ATOM     19  O   UNL     1       1.569  -5.863  -6.844  0.00  0.00    -0.485 OA
ENDBRANCH   5  10
ENDBRANCH   3   5
BRANCH   1  20
ATOM     20  C   UNL     1      -0.866  -0.006  -2.769  0.00  0.00    +0.019 C 
BRANCH  20  21
ATOM     21  N   UNL     1      -0.481  -0.534  -1.453  0.00  0.00    +0.388 N 
ATOM     22  C   UNL     1      -0.503  -2.002  -1.489  0.00  0.00    -0.095 C 
ATOM     23  H   UNL     1       0.448  -0.217  -1.223  0.00  0.00    -0.081 HD
BRANCH  21  25
ATOM     24  C   UNL     1      -1.406   1.474  -0.401  0.00  0.00    -0.008 C 
ATOM     25  C   UNL     1      -1.428  -0.055  -0.438  0.00  0.00    -0.037 C 
BRANCH  25  26
ATOM     26  C   UNL     1      -1.034  -0.596   0.912  0.00  0.00    -0.019 A 
ATOM     27  C   UNL     1       0.280  -0.945   1.160  0.00  0.00    +0.005 A 
ATOM     28  C   UNL     1       0.643  -1.442   2.398  0.00  0.00    +0.000 A 
ATOM     29  C   UNL     1      -0.308  -1.591   3.391  0.00  0.00    +0.004 A 
ATOM     30  C   UNL     1      -1.622  -1.243   3.149  0.00  0.00    +0.046 A 
ATOM     31  C   UNL     1      -1.988  -0.739   1.909  0.00  0.00    +0.122 A 
BRANCH  31  32
ATOM     32  O   UNL     1      -3.279  -0.391   1.669  0.00  0.00    -0.495 OA
ATOM     33  C   UNL     1      -4.208  -0.565   2.742  0.00  0.00    +0.277 C 
ENDBRANCH  31  32
ENDBRANCH  25  26
ENDBRANCH  21  25
ENDBRANCH  20  21
ENDBRANCH   1  20
TORSDOF 7
