REMARK  Name = ZINC08901405
REMARK  8 active torsions:
REMARK  status: ('A' for Active; 'I' for Inactive)
REMARK    1  A    between atoms: C_1  and  C_2
REMARK    2  A    between atoms: C_2  and  C_3
REMARK    3  A    between atoms: C_2  and  C_4
REMARK    4  A    between atoms: C_2  and  C_5
REMARK    5  A    between atoms: C_12  and  N_17
REMARK    6  A    between atoms: C_13  and  C_14
REMARK    7  A    between atoms: C_18  and  C_20
REMARK    8  A    between atoms: C_24  and  C_26
REMARK                            x       y       z     vdW  Elec       q    Type
REMARK                         _______ _______ _______ _____ _____    ______ ____
ROOT
ATOM      1  N   UNL     1       2.497  -0.279  -0.024  0.00  0.00    -0.275 N 
ATOM      2  C   UNL     1       2.479   1.068  -0.016  0.00  0.00    +0.249 C 
ATOM      3  O   UNL     1       3.523   1.691  -0.023  0.00  0.00    -0.270 OA
ATOM      4  H   UNL     1       1.664  -0.776  -0.019  0.00  0.00    +0.156 HD
ENDROOT
BRANCH   1  11
ATOM      5  C   UNL     1       8.046  -3.419  -0.477  0.00  0.00    -0.000 C 
ATOM      6  C   UNL     1       7.176  -4.359   0.363  0.00  0.00    +0.009 C 
ATOM      7  C   UNL     1       5.715  -4.250  -0.078  0.00  0.00    +0.037 C 
ATOM      8  C   UNL     1       5.308  -2.781  -0.065  0.00  0.00    -0.023 A 
ATOM      9  C   UNL     1       6.238  -1.802  -0.069  0.00  0.00    -0.004 A 
ATOM     10  S   UNL     1       5.309  -0.295  -0.051  0.00  0.00    -0.077 S 
ATOM     11  C   UNL     1       3.707  -0.955  -0.040  0.00  0.00    +0.085 A 
ATOM     12  C   UNL     1       3.929  -2.325  -0.044  0.00  0.00    +0.068 A 
ATOM     13  C   UNL     1       7.726  -1.969  -0.086  0.00  0.00    +0.046 C 
BRANCH  12  14
ATOM     14  C   UNL     1       2.814  -3.276  -0.032  0.00  0.00    +0.244 C 
ATOM     15  O   UNL     1       2.338  -3.671  -1.080  0.00  0.00    -0.270 OA
ATOM     16  N   UNL     1       2.315  -3.715   1.141  0.00  0.00    -0.325 N 
ATOM     17  H   UNL     1       2.694  -3.401   1.977  0.00  0.00    +0.145 HD
ATOM     18  H   UNL     1       1.577  -4.344   1.150  0.00  0.00    +0.145 HD
ENDBRANCH  12  14
BRANCH   5  20
ATOM     19  C   UNL     1       9.835  -5.160  -0.581  0.00  0.00    +0.011 C 
ATOM     20  C   UNL     1       9.523  -3.710  -0.207  0.00  0.00    -0.035 C 
ATOM     21  C   UNL     1      10.390  -2.769  -1.047  0.00  0.00    +0.011 C 
ATOM     22  C   UNL     1       9.824  -3.490   1.277  0.00  0.00    +0.011 C 
ENDBRANCH   5  20
ENDBRANCH   1  11
BRANCH   2  23
ATOM     23  C   UNL     1       1.188   1.790   0.000  0.00  0.00    +0.038 A 
ATOM     24  C   UNL     1      -0.013   1.076   0.008  0.00  0.00    +0.013 A 
ATOM     25  C   UNL     1      -1.218   1.748   0.017  0.00  0.00    +0.001 A 
ATOM     26  C   UNL     1      -1.245   3.129   0.031  0.00  0.00    +0.009 A 
ATOM     27  C   UNL     1      -0.053   3.854   0.023  0.00  0.00    -0.010 A 
ATOM     28  C   UNL     1       1.167   3.183   0.008  0.00  0.00    +0.021 A 
BRANCH  27  29
ATOM     29  C   UNL     1      -0.085   5.336   0.031  0.00  0.00    +0.067 A 
ATOM     30  C   UNL     1      -0.866   6.019  -0.862  0.00  0.00    +0.027 A 
ATOM     31  C   UNL     1      -0.860   7.481  -0.810  0.00  0.00    +0.018 A 
ATOM     32  C   UNL     1      -1.642   8.228  -1.701  0.00  0.00    +0.011 A 
ATOM     33  C   UNL     1      -1.625   9.592  -1.640  0.00  0.00    +0.001 A 
ATOM     34  C   UNL     1      -0.839  10.245  -0.701  0.00  0.00    +0.004 A 
ATOM     35  C   UNL     1      -0.062   9.529   0.185  0.00  0.00    +0.047 A 
ATOM     36  C   UNL     1      -0.062   8.139   0.142  0.00  0.00    +0.139 A 
ATOM     37  O   UNL     1       0.697   7.434   1.007  0.00  0.00    -0.422 OA
ATOM     38  C   UNL     1       0.716   6.092   0.998  0.00  0.00    +0.345 A 
ATOM     39  O   UNL     1       1.411   5.495   1.800  0.00  0.00    -0.245 OA
ENDBRANCH  27  29
ENDBRANCH   2  23
TORSDOF 5
