REMARK  Name = ZINC45528541
REMARK  8 active torsions:
REMARK  status: ('A' for Active; 'I' for Inactive)
REMARK    1  A    between atoms: C_1  and  N_2
REMARK    2  A    between atoms: C_3  and  C_5
REMARK    3  A    between atoms: C_8  and  C_11
REMARK    4  A    between atoms: C_12  and  C_13
REMARK    5  A    between atoms: N_15  and  C_16
REMARK    6  A    between atoms: C_19  and  N_22
REMARK    7  A    between atoms: N_25  and  C_26
REMARK    8  A    between atoms: C_26  and  C_27
REMARK                            x       y       z     vdW  Elec       q    Type
REMARK                         _______ _______ _______ _____ _____    ______ ____
ROOT
ATOM      1  C   UNL     1       1.263  -8.542   1.951  0.00  0.00    +0.241 C 
ATOM      2  O   UNL     1       0.730  -9.158   1.047  0.00  0.00    -0.270 OA
ATOM      3  N   UNL     1       1.871  -9.208   2.953  0.00  0.00    -0.282 N 
ATOM      4  H   UNL     1       2.354  -8.719   3.637  0.00  0.00    +0.155 HD
ENDROOT
BRANCH   3   5
ATOM      5  C   UNL     1       1.806 -10.605   3.006  0.00  0.00    +0.034 A 
ATOM      6  C   UNL     1       1.729 -11.251   4.233  0.00  0.00    +0.025 A 
ATOM      7  C   UNL     1       1.665 -12.629   4.285  0.00  0.00    +0.025 A 
ATOM      8  C   UNL     1       1.678 -13.369   3.110  0.00  0.00    +0.035 A 
ATOM      9  C   UNL     1       1.755 -12.724   1.883  0.00  0.00    +0.025 A 
ATOM     10  C   UNL     1       1.813 -11.346   1.830  0.00  0.00    +0.025 A 
BRANCH   8  11
ATOM     11  N   UNL     1       1.614 -14.768   3.163  0.00  0.00    -0.269 N 
ATOM     12  C   UNL     1       2.288 -15.508   2.261  0.00  0.00    +0.304 C 
ATOM     13  O   UNL     1       2.884 -14.964   1.351  0.00  0.00    -0.253 OA
ATOM     14  N   UNL     1       2.303 -16.852   2.367  0.00  0.00    -0.296 N 
ATOM     15  H   UNL     1       1.084 -15.204   3.849  0.00  0.00    +0.156 HD
ATOM     16  H   UNL     1       1.828 -17.286   3.093  0.00  0.00    +0.151 HD
BRANCH  14  17
ATOM     17  C   UNL     1       3.036 -17.656   1.386  0.00  0.00    +0.132 C 
BRANCH  17  18
ATOM     18  C   UNL     1       2.894 -19.117   1.728  0.00  0.00    -0.016 C 
ATOM     19  C   UNL     1       2.437 -19.958   0.834  0.00  0.00    +0.005 C 
ENDBRANCH  17  18
ENDBRANCH  14  17
ENDBRANCH   8  11
ENDBRANCH   3   5
BRANCH   1  21
ATOM     20  C   UNL     1       0.637  -6.411   0.948  0.00  0.00    +0.013 C 
ATOM     21  C   UNL     1       1.245  -7.077   1.950  0.00  0.00    +0.068 C 
BRANCH  20  25
ATOM     22  C   UNL     1       0.582  -2.165   0.945  0.00  0.00    +0.037 A 
ATOM     23  C   UNL     1      -0.030  -2.871  -0.093  0.00  0.00    +0.013 A 
ATOM     24  C   UNL     1      -0.013  -4.248  -0.093  0.00  0.00    +0.008 A 
ATOM     25  C   UNL     1       0.618  -4.939   0.947  0.00  0.00    -0.025 A 
ATOM     26  C   UNL     1       1.231  -4.230   1.986  0.00  0.00    +0.008 A 
ATOM     27  C   UNL     1       1.217  -2.854   1.981  0.00  0.00    +0.013 A 
BRANCH  22  30
ATOM     28  C   UNL     1      -0.068   1.444  -0.056  0.00  0.00    +0.128 C 
ATOM     29  N   UNL     1      -0.049  -0.021  -0.055  0.00  0.00    -0.314 N 
ATOM     30  C   UNL     1       0.563  -0.686   0.945  0.00  0.00    +0.244 C 
ATOM     31  O   UNL     1       1.100  -0.071   1.845  0.00  0.00    -0.270 OA
ATOM     32  H   UNL     1      -0.478  -0.512  -0.773  0.00  0.00    +0.149 HD
ENDBRANCH  22  30
ENDBRANCH  20  25
ENDBRANCH   1  21
TORSDOF 7
