REMARK  Name = ZINC35034051
REMARK  14 active torsions:
REMARK  status: ('A' for Active; 'I' for Inactive)
REMARK    1  A    between atoms: C_1  and  C_2
REMARK    2  A    between atoms: C_2  and  C_3
REMARK    3  A    between atoms: C_3  and  C_5
REMARK    4  A    between atoms: C_3  and  N_20
REMARK    5  A    between atoms: N_15  and  C_16
REMARK    6  A    between atoms: C_16  and  C_17
REMARK    7  A    between atoms: C_17  and  O_18
REMARK    8  A    between atoms: O_18  and  C_19
REMARK    9  A    between atoms: N_20  and  C_21
REMARK   10  A    between atoms: C_21  and  C_22
REMARK   11  A    between atoms: C_22  and  N_23
REMARK   12  A    between atoms: N_23  and  C_24
REMARK   13  A    between atoms: N_23  and  C_25
REMARK   14  A    between atoms: N_28  and  C_29
REMARK                            x       y       z     vdW  Elec       q    Type
REMARK                         _______ _______ _______ _____ _____    ______ ____
ROOT
ATOM      1  C   UNL     1       0.001  -0.412  -1.537  0.00  0.00    +0.143 C 
ENDROOT
BRANCH   1   2
ATOM      2  C   UNL     1       0.113  -1.915  -1.520  0.00  0.00    +0.134 A 
ATOM      3  N   UNL     1      -0.267  -2.548  -0.452  0.00  0.00    -0.232 NA
ATOM      4  C   UNL     1      -0.194  -3.900  -0.364  0.00  0.00    +0.078 A 
ATOM      5  C   UNL     1      -0.603  -4.582   0.783  0.00  0.00    +0.028 A 
ATOM      6  C   UNL     1      -0.512  -5.955   0.829  0.00  0.00    +0.002 A 
ATOM      7  C   UNL     1      -0.018  -6.672  -0.253  0.00  0.00    +0.001 A 
ATOM      8  C   UNL     1       0.391  -6.022  -1.396  0.00  0.00    +0.015 A 
ATOM      9  C   UNL     1       0.307  -4.632  -1.463  0.00  0.00    +0.065 A 
ATOM     10  C   UNL     1       0.729  -3.884  -2.656  0.00  0.00    +0.262 A 
ATOM     11  O   UNL     1       1.170  -4.454  -3.637  0.00  0.00    -0.267 OA
ATOM     12  N   UNL     1       0.602  -2.537  -2.624  0.00  0.00    -0.292 N 
BRANCH  12  13
ATOM     13  C   UNL     1       1.002  -1.742  -3.788  0.00  0.00    +0.154 C 
BRANCH  13  14
ATOM     14  C   UNL     1       2.505  -1.467  -3.727  0.00  0.00    +0.181 C 
BRANCH  14  15
ATOM     15  O   UNL     1       3.220  -2.699  -3.847  0.00  0.00    -0.381 OA
ATOM     16  C   UNL     1       4.641  -2.553  -3.801  0.00  0.00    +0.194 C 
ENDBRANCH  14  15
ENDBRANCH  13  14
ENDBRANCH  12  13
ENDBRANCH   1   2
BRANCH   1  17
ATOM     17  N   UNL     1       1.324   0.180  -1.329  0.00  0.00    -0.277 N 
ATOM     18  C   UNL     1       1.806   1.081  -2.208  0.00  0.00    +0.307 C 
ATOM     19  O   UNL     1       1.141   1.403  -3.174  0.00  0.00    -0.252 OA
ATOM     20  N   UNL     1       3.024   1.625  -2.016  0.00  0.00    -0.267 N 
ATOM     21  H   UNL     1       3.586   1.312  -1.290  0.00  0.00    +0.156 HD
BRANCH  20  22
ATOM     22  C   UNL     1       3.478   2.643  -2.865  0.00  0.00    +0.070 A 
ATOM     23  C   UNL     1       2.567   3.462  -3.518  0.00  0.00    +0.026 A 
ATOM     24  C   UNL     1       3.017   4.465  -4.354  0.00  0.00    +0.002 A 
ATOM     25  C   UNL     1       4.374   4.654  -4.542  0.00  0.00    +0.003 A 
ATOM     26  C   UNL     1       5.285   3.841  -3.893  0.00  0.00    +0.040 A 
ATOM     27  C   UNL     1       4.842   2.839  -3.050  0.00  0.00    +0.145 A 
ATOM     28  F   UNL     1       5.732   2.048  -2.412  0.00  0.00    -0.204 F 
ENDBRANCH  20  22
BRANCH  17  29
ATOM     29  C   UNL     1       2.125  -0.208  -0.165  0.00  0.00    +0.091 C 
BRANCH  29  30
ATOM     30  C   UNL     1       3.109  -1.309  -0.566  0.00  0.00    -0.060 C 
BRANCH  30  31
ATOM     31  N   UNL     1       3.820  -1.789   0.627  0.00  0.00    +0.377 N 
ATOM     32  C   UNL     1       4.676  -2.925   0.262  0.00  0.00    -0.097 C 
ATOM     33  C   UNL     1       4.649  -0.706   1.171  0.00  0.00    -0.097 C 
ATOM     34  H   UNL     1       3.150  -2.082   1.322  0.00  0.00    -0.083 HD
ENDBRANCH  30  31
ENDBRANCH  29  30
ENDBRANCH  17  29
ENDBRANCH   1  17
BRANCH   1  36
ATOM     35  C   UNL     1      -1.190   1.547  -0.542  0.00  0.00    +0.006 C 
ATOM     36  C   UNL     1      -0.942   0.042  -0.421  0.00  0.00    +0.027 C 
ENDBRANCH   1  36
TORSDOF 10
