REMARK  Name = ZINC09613393
REMARK  11 active torsions:
REMARK  status: ('A' for Active; 'I' for Inactive)
REMARK    1  A    between atoms: C_1  and  C_2
REMARK    2  A    between atoms: C_2  and  N_3
REMARK    3  A    between atoms: N_3  and  C_4
REMARK    4  A    between atoms: N_3  and  S_6
REMARK    5  A    between atoms: C_4  and  C_5
REMARK    6  A    between atoms: S_6  and  C_9
REMARK    7  A    between atoms: C_12  and  C_29
REMARK    8  A    between atoms: C_13  and  N_15
REMARK    9  A    between atoms: N_15  and  S_16
REMARK   10  A    between atoms: S_16  and  C_19
REMARK   11  A    between atoms: C_21  and  N_26
REMARK                            x       y       z     vdW  Elec       q    Type
REMARK                         _______ _______ _______ _____ _____    ______ ____
ROOT
ATOM      1  C   UNL     1       2.394   0.187   0.507  0.00  0.00    +0.107 A 
ATOM      2  C   UNL     1       2.303   1.560   0.654  0.00  0.00    +0.029 A 
ATOM      3  C   UNL     1       1.069   2.183   0.602  0.00  0.00    +0.007 A 
ATOM      4  C   UNL     1      -0.076   1.436   0.406  0.00  0.00    -0.028 A 
ATOM      5  C   UNL     1       0.013   0.057   0.259  0.00  0.00    +0.053 A 
ATOM      6  C   UNL     1       1.254  -0.565   0.310  0.00  0.00    +0.053 A 
ATOM      7  C   UNL     1      -1.419   2.116   0.344  0.00  0.00    +0.046 C 
ENDROOT
BRANCH   1   8
ATOM      8  S   UNL     1       3.969  -0.602   0.573  0.00  0.00    +0.061 S 
ATOM      9  O   UNL     1       4.824   0.260   1.311  0.00  0.00    -0.153 OA
ATOM     10  O   UNL     1       3.732  -1.950   0.955  0.00  0.00    -0.153 OA
BRANCH   8  11
ATOM     11  N   UNL     1       4.560  -0.644  -0.973  0.00  0.00    -0.177 NA
BRANCH  11  13
ATOM     12  C   UNL     1       6.859   0.128  -1.290  0.00  0.00    +0.022 C 
ATOM     13  C   UNL     1       5.378   0.463  -1.476  0.00  0.00    +0.106 C 
ENDBRANCH  11  13
BRANCH  11  14
ATOM     14  C   UNL     1       4.265  -1.789  -1.839  0.00  0.00    +0.106 C 
ATOM     15  C   UNL     1       3.043  -1.472  -2.704  0.00  0.00    +0.022 C 
ENDBRANCH  11  14
ENDBRANCH   8  11
ENDBRANCH   1   8
BRANCH   5  16
ATOM     16  N   UNL     1      -1.143  -0.701   0.060  0.00  0.00    -0.216 N 
ATOM     17  H   UNL     1      -1.875  -0.341  -0.464  0.00  0.00    +0.174 HD
BRANCH  16  18
ATOM     18  S   UNL     1      -1.264  -2.215   0.720  0.00  0.00    +0.074 S 
ATOM     19  O   UNL     1      -0.810  -2.110   2.062  0.00  0.00    -0.150 OA
ATOM     20  O   UNL     1      -2.558  -2.700   0.389  0.00  0.00    -0.150 OA
BRANCH  18  21
ATOM     21  C   UNL     1      -0.109  -3.244  -0.124  0.00  0.00    +0.129 A 
ATOM     22  C   UNL     1       0.938  -3.822   0.570  0.00  0.00    +0.063 A 
ATOM     23  C   UNL     1       1.844  -4.630  -0.091  0.00  0.00    +0.128 A 
ATOM     24  C   UNL     1       1.703  -4.861  -1.447  0.00  0.00    +0.034 A 
ATOM     25  C   UNL     1       0.657  -4.284  -2.142  0.00  0.00    +0.024 A 
ATOM     26  C   UNL     1      -0.253  -3.480  -1.479  0.00  0.00    +0.068 A 
ATOM     27 CL   UNL     1      -1.572  -2.761  -2.350  0.00  0.00    -0.082 Cl
BRANCH  23  28
ATOM     28  N   UNL     1       2.964  -5.248   0.652  0.00  0.00    +0.056 N 
ATOM     29  O   UNL     1       3.088  -5.044   1.847  0.00  0.00    -0.126 OA
ATOM     30  O   UNL     1       3.763  -5.960   0.070  0.00  0.00    -0.126 OA
ENDBRANCH  23  28
ENDBRANCH  18  21
ENDBRANCH  16  18
ENDBRANCH   5  16
TORSDOF 8
