REMARK  Name = ZINC39520123
REMARK  7 active torsions:
REMARK  status: ('A' for Active; 'I' for Inactive)
REMARK    1  A    between atoms: C_1  and  C_2
REMARK    2  A    between atoms: C_2  and  C_3
REMARK    3  A    between atoms: C_2  and  S_4
REMARK    4  A    between atoms: S_4  and  C_7
REMARK    5  A    between atoms: C_13  and  C_20
REMARK    6  A    between atoms: N_18  and  O_19
REMARK    7  A    between atoms: C_25  and  O_26
REMARK                            x       y       z     vdW  Elec       q    Type
REMARK                         _______ _______ _______ _____ _____    ______ ____
ROOT
ATOM      1  C   UNL     1       2.741  -1.326  -2.408  0.00  0.00    +0.133 C 
ATOM      2  C   UNL     1       2.356  -0.006  -1.695  0.00  0.00    +0.028 C 
ATOM      3  C   UNL     1       3.680   0.782  -1.614  0.00  0.00    +0.027 C 
ATOM      4  C   UNL     1       4.579   0.240  -2.736  0.00  0.00    +0.055 C 
ATOM      5  C   UNL     1       3.779  -0.862  -3.460  0.00  0.00    +0.051 C 
ATOM      6  C   UNL     1       4.922   1.360  -3.716  0.00  0.00    +0.045 C 
ATOM      7  C   UNL     1       5.822   0.805  -4.824  0.00  0.00    +0.011 C 
ATOM      8  C   UNL     1       7.074   0.189  -4.193  0.00  0.00    +0.018 C 
ATOM      9  C   UNL     1       6.657  -0.909  -3.212  0.00  0.00    +0.115 C 
ATOM     10  N   UNL     1       5.801  -0.334  -2.166  0.00  0.00    -0.184 NA
ENDROOT
BRANCH   6  11
ATOM     11  C   UNL     1       3.654   1.904  -4.322  0.00  0.00    -0.001 A 
ATOM     12  C   UNL     1       2.977   2.935  -3.698  0.00  0.00    +0.007 A 
ATOM     13  C   UNL     1       1.814   3.434  -4.253  0.00  0.00    +0.001 A 
ATOM     14  C   UNL     1       1.325   2.905  -5.433  0.00  0.00    +0.004 A 
ATOM     15  C   UNL     1       1.998   1.875  -6.061  0.00  0.00    +0.046 A 
ATOM     16  C   UNL     1       3.169   1.375  -5.508  0.00  0.00    +0.120 A 
BRANCH  16  17
ATOM     17  O   UNL     1       3.837   0.366  -6.127  0.00  0.00    -0.506 OA
ATOM     18  H   UNL     1       3.494  -0.515  -5.923  0.00  0.00    +0.292 HD
ENDBRANCH  16  17
ENDBRANCH   6  11
BRANCH   1  19
ATOM     19  S   UNL     1       1.295  -2.067  -3.214  0.00  0.00    -0.026 S 
ATOM     20  O   UNL     1       1.701  -3.275  -3.844  0.00  0.00    -0.174 OA
ATOM     21  O   UNL     1       0.651  -1.066  -3.990  0.00  0.00    -0.174 OA
BRANCH  19  23
ATOM     22  C   UNL     1      -1.026  -3.205  -2.321  0.00  0.00    +0.031 C 
ATOM     23  C   UNL     1       0.223  -2.484  -1.811  0.00  0.00    +0.125 C 
ATOM     24  C   UNL     1       0.980  -3.397  -0.845  0.00  0.00    +0.031 C 
ENDBRANCH  19  23
ENDBRANCH   1  19
BRANCH  10  25
ATOM     25  O   UNL     1       5.485  -1.328  -1.141  0.00  0.00    -0.312 OA
ATOM     26  H   UNL     1       6.263  -1.735  -0.735  0.00  0.00    +0.237 HD
ENDBRANCH  10  25
TORSDOF 5
