REMARK  Name = ZINC63552092
REMARK  6 active torsions:
REMARK  status: ('A' for Active; 'I' for Inactive)
REMARK    1  A    between atoms: C_1  and  C_2
REMARK    2  A    between atoms: C_2  and  C_3
REMARK    3  A    between atoms: C_6  and  S_9
REMARK    4  A    between atoms: S_9  and  C_12
REMARK    5  A    between atoms: N_27  and  C_30
REMARK    6  A    between atoms: C_30  and  C_31
REMARK                            x       y       z     vdW  Elec       q    Type
REMARK                         _______ _______ _______ _____ _____    ______ ____
ROOT
ATOM      1  C   UNL     1       3.402  -0.547   5.762  0.00  0.00    +0.249 A 
ATOM      2  C   UNL     1       4.617   0.107   5.632  0.00  0.00    +0.204 A 
ATOM      3  N   UNL     1       5.666  -0.088   4.816  0.00  0.00    -0.209 NA
ATOM      4  C   UNL     1       6.730   0.694   4.895  0.00  0.00    +0.140 A 
ATOM      5  C   UNL     1       6.764   1.730   5.832  0.00  0.00    +0.078 A 
ATOM      6  C   UNL     1       5.695   1.971   6.702  0.00  0.00    +0.087 A 
ATOM      7  N   UNL     1       4.604   1.107   6.563  0.00  0.00    -0.192 N 
ATOM      8  N   UNL     1       3.377   1.023   7.228  0.00  0.00    -0.057 NA
ATOM      9  N   UNL     1       2.706   0.047   6.723  0.00  0.00    -0.108 NA
ATOM     10  C   UNL     1       5.859   3.037   7.587  0.00  0.00    +0.036 A 
ATOM     11  C   UNL     1       6.998   3.766   7.571  0.00  0.00    +0.048 A 
ATOM     12  S   UNL     1       7.942   2.981   6.275  0.00  0.00    -0.092 S 
ATOM     13  N   UNL     1       7.807   0.486   4.051  0.00  0.00    -0.312 N 
ATOM     14  C   UNL     1       7.853  -0.682   3.159  0.00  0.00    +0.122 C 
ATOM     15  C   UNL     1       8.159  -0.197   1.738  0.00  0.00    +0.103 C 
ATOM     16  N   UNL     1       9.380   0.620   1.755  0.00  0.00    -0.295 NA
ATOM     17  C   UNL     1       9.200   1.830   2.569  0.00  0.00    +0.103 C 
ATOM     18  C   UNL     1       8.934   1.431   4.019  0.00  0.00    +0.122 C 
ENDROOT
BRANCH   1  19
ATOM     19  S   UNL     1       2.869  -1.929   4.807  0.00  0.00    +0.047 S 
ATOM     20  O   UNL     1       1.891  -2.607   5.584  0.00  0.00    -0.163 OA
ATOM     21  O   UNL     1       4.045  -2.572   4.332  0.00  0.00    -0.163 OA
BRANCH  19  25
ATOM     22  C   UNL     1       0.727  -0.298   1.168  0.00  0.00    -0.048 A 
ATOM     23  C   UNL     1       2.090  -0.529   1.122  0.00  0.00    +0.005 A 
ATOM     24  C   UNL     1       2.744  -1.027   2.233  0.00  0.00    +0.028 A 
ATOM     25  C   UNL     1       2.036  -1.293   3.391  0.00  0.00    +0.095 A 
ATOM     26  C   UNL     1       0.674  -1.061   3.437  0.00  0.00    +0.028 A 
ATOM     27  C   UNL     1       0.021  -0.559   2.327  0.00  0.00    +0.005 A 
BRANCH  22  29
ATOM     28  C   UNL     1       0.023   1.774   0.002  0.00  0.00    +0.009 C 
ATOM     29  C   UNL     1       0.014   0.245  -0.044  0.00  0.00    +0.032 C 
ENDBRANCH  22  29
ENDBRANCH  19  25
ENDBRANCH   1  19
BRANCH  16  30
ATOM     30  C   UNL     1       9.804   0.962   0.390  0.00  0.00    +0.119 C 
BRANCH  30  31
ATOM     31  C   UNL     1      11.176   1.583   0.431  0.00  0.00    -0.033 A 
ATOM     32  C   UNL     1      11.312   2.951   0.574  0.00  0.00    +0.005 A 
ATOM     33  C   UNL     1      12.572   3.520   0.612  0.00  0.00    +0.000 A 
ATOM     34  C   UNL     1      13.695   2.721   0.507  0.00  0.00    +0.000 A 
ATOM     35  C   UNL     1      13.559   1.352   0.365  0.00  0.00    +0.000 A 
ATOM     36  C   UNL     1      12.300   0.783   0.332  0.00  0.00    +0.005 A 
ENDBRANCH  30  31
ENDBRANCH  16  30
TORSDOF 5
