REMARK  Name = ZINC39877176
REMARK  4 active torsions:
REMARK  status: ('A' for Active; 'I' for Inactive)
REMARK    1  A    between atoms: C_1  and  S_2
REMARK    2  A    between atoms: S_2  and  C_3
REMARK    3  A    between atoms: C_6  and  C_9
REMARK    4  A    between atoms: N_24  and  C_25
REMARK                            x       y       z     vdW  Elec       q    Type
REMARK                         _______ _______ _______ _____ _____    ______ ____
ROOT
ATOM      1  C   UNL     1       2.901  -1.397  -5.106  0.00  0.00    +0.150 C 
ATOM      2  C   UNL     1       4.307  -1.804  -4.806  0.00  0.00    +0.072 A 
ATOM      3  C   UNL     1       5.414  -1.070  -4.186  0.00  0.00    +0.199 A 
ATOM      4  O   UNL     1       5.276   0.011  -3.641  0.00  0.00    -0.287 OA
ATOM      5  C   UNL     1       6.720  -1.769  -4.285  0.00  0.00    +0.067 A 
ATOM      6  C   UNL     1       7.899  -1.117  -3.924  0.00  0.00    +0.053 A 
ATOM      7  C   UNL     1       9.104  -1.779  -4.028  0.00  0.00    +0.124 A 
ATOM      8  C   UNL     1       9.139  -3.089  -4.491  0.00  0.00    +0.042 A 
ATOM      9  C   UNL     1       7.982  -3.742  -4.848  0.00  0.00    +0.050 A 
ATOM     10  C   UNL     1       6.751  -3.094  -4.750  0.00  0.00    +0.140 A 
ATOM     11  O   UNL     1       5.628  -3.764  -5.098  0.00  0.00    -0.450 OA
ATOM     12  C   UNL     1       4.466  -3.093  -5.230  0.00  0.00    +0.199 A 
ATOM     13  C   UNL     1       3.193  -3.549  -5.813  0.00  0.00    +0.287 C 
ATOM     14  O   UNL     1       2.999  -4.651  -6.288  0.00  0.00    -0.266 OA
ATOM     15  N   UNL     1       2.272  -2.564  -5.745  0.00  0.00    -0.253 N 
ATOM     16  F   UNL     1      10.250  -1.155  -3.680  0.00  0.00    -0.205 F 
ENDROOT
BRANCH  15  17
ATOM     17  C   UNL     1       0.952  -2.638  -6.200  0.00  0.00    +0.039 A 
ATOM     18  C   UNL     1       0.108  -1.542  -6.071  0.00  0.00    +0.023 A 
ATOM     19  C   UNL     1      -1.195  -1.618  -6.522  0.00  0.00    +0.003 A 
ATOM     20  C   UNL     1      -1.660  -2.784  -7.102  0.00  0.00    +0.015 A 
ATOM     21  C   UNL     1      -0.823  -3.878  -7.233  0.00  0.00    +0.020 A 
ATOM     22  C   UNL     1       0.484  -3.806  -6.788  0.00  0.00    +0.038 A 
ATOM     23 BR   UNL     1      -1.465  -5.470  -8.026  0.00  0.00    -0.050 Br
ENDBRANCH  15  17
BRANCH   1  27
ATOM     24  C   UNL     1       0.848  -0.411  -1.489  0.00  0.00    +0.008 A 
ATOM     25  C   UNL     1       1.315   0.599  -2.322  0.00  0.00    +0.015 A 
ATOM     26  C   UNL     1       1.978   0.276  -3.490  0.00  0.00    +0.007 A 
ATOM     27  C   UNL     1       2.178  -1.049  -3.830  0.00  0.00    -0.022 A 
ATOM     28  C   UNL     1       1.714  -2.056  -3.004  0.00  0.00    +0.007 A 
ATOM     29  C   UNL     1       1.056  -1.742  -1.831  0.00  0.00    +0.015 A 
BRANCH  24  31
ATOM     30  C   UNL     1      -0.022   1.810   0.012  0.00  0.00    +0.090 C 
ATOM     31  S   UNL     1       0.002  -0.004   0.002  0.00  0.00    -0.129 S 
ENDBRANCH  24  31
ENDBRANCH   1  27
TORSDOF 3
