REMARK  Name = ZINC39942478
REMARK  7 active torsions:
REMARK  status: ('A' for Active; 'I' for Inactive)
REMARK    1  A    between atoms: C_7  and  C_10
REMARK    2  A    between atoms: C_13  and  S_19
REMARK    3  A    between atoms: N_15  and  C_16
REMARK    4  A    between atoms: S_19  and  C_20
REMARK    5  A    between atoms: C_20  and  C_21
REMARK    6  A    between atoms: N_23  and  C_24
REMARK    7  A    between atoms: N_23  and  C_32
REMARK                            x       y       z     vdW  Elec       q    Type
REMARK                         _______ _______ _______ _____ _____    ______ ____
ROOT
ATOM      1  C   UNL     1       0.448  -3.137   0.147  0.00  0.00    +0.147 C 
ATOM      2  N   UNL     1      -0.849  -3.033   0.279  0.00  0.00    -0.169 NA
ATOM      3  N   UNL     1      -1.483  -4.257   0.037  0.00  0.00    -0.237 N 
ATOM      4  C   UNL     1      -0.420  -5.224  -0.282  0.00  0.00    +0.237 C 
ATOM      5  N   UNL     1       0.822  -4.437  -0.202  0.00  0.00    -0.282 N 
ATOM      6  H   UNL     1      -2.436  -4.434   0.073  0.00  0.00    +0.171 HD
ENDROOT
BRANCH   1  13
ATOM      7  C   UNL     1      -0.143   1.139   1.546  0.00  0.00    +0.001 A 
ATOM      8  C   UNL     1       1.039   1.882   1.585  0.00  0.00    +0.002 A 
ATOM      9  C   UNL     1       2.233   1.347   1.231  0.00  0.00    +0.026 A 
ATOM     10  C   UNL     1       2.302  -0.006   0.807  0.00  0.00    +0.043 A 
ATOM     11  N   UNL     1       3.321  -0.747   0.419  0.00  0.00    -0.380 N 
ATOM     12  C   UNL     1       2.841  -2.092   0.085  0.00  0.00    +0.152 C 
ATOM     13  C   UNL     1       1.348  -2.076   0.328  0.00  0.00    +0.022 C 
ATOM     14  C   UNL     1       1.054  -0.785   0.769  0.00  0.00    +0.006 A 
ATOM     15  C   UNL     1      -0.152  -0.161   1.151  0.00  0.00    +0.010 A 
ATOM     16  H   UNL     1       4.242  -0.450   0.362  0.00  0.00    +0.160 HD
ENDBRANCH   1  13
BRANCH   5  17
ATOM     17  C   UNL     1       2.184  -4.923  -0.439  0.00  0.00    +0.078 C 
ATOM     18  C   UNL     1       2.347  -6.373  -0.896  0.00  0.00    +0.024 C 
ATOM     19  C   UNL     1       2.738  -5.971   0.527  0.00  0.00    +0.024 C 
ENDBRANCH   5  17
BRANCH   4  20
ATOM     20  S   UNL     1      -0.405  -6.575   0.928  0.00  0.00    -0.109 S 
BRANCH  20  21
ATOM     21  C   UNL     1      -0.146  -5.738   2.517  0.00  0.00    +0.168 C 
BRANCH  21  22
ATOM     22  C   UNL     1      -0.113  -6.760   3.623  0.00  0.00    +0.226 C 
ATOM     23  O   UNL     1      -0.154  -7.943   3.358  0.00  0.00    -0.275 OA
ATOM     24  N   UNL     1      -0.037  -6.360   4.908  0.00  0.00    -0.293 N 
BRANCH  24  25
ATOM     25  C   UNL     1      -0.098  -7.348   5.988  0.00  0.00    +0.099 C 
ATOM     26  C   UNL     1       1.044  -8.365   5.826  0.00  0.00    +0.046 C 
ATOM     27  C   UNL     1       0.805  -9.580   6.755  0.00  0.00    +0.168 C 
ATOM     28  S   UNL     1      -1.027  -9.620   6.903  0.00  0.00    -0.029 S 
ATOM     29  O   UNL     1      -1.521 -10.769   6.228  0.00  0.00    -0.174 OA
ATOM     30  O   UNL     1      -1.386  -9.399   8.260  0.00  0.00    -0.174 OA
ATOM     31  C   UNL     1      -1.446  -8.120   5.919  0.00  0.00    +0.188 C 
ENDBRANCH  24  25
BRANCH  24  32
ATOM     32  C   UNL     1       0.105  -4.937   5.225  0.00  0.00    +0.076 C 
ATOM     33  C   UNL     1       1.400  -4.701   6.029  0.00  0.00    +0.022 C 
ATOM     34  C   UNL     1       1.019  -3.598   7.048  0.00  0.00    +0.002 C 
ATOM     35  C   UNL     1      -0.430  -3.979   7.439  0.00  0.00    +0.002 C 
ATOM     36  C   UNL     1      -1.059  -4.478   6.121  0.00  0.00    +0.022 C 
ENDBRANCH  24  32
ENDBRANCH  21  22
ENDBRANCH  20  21
ENDBRANCH   4  20
TORSDOF 7
