REMARK  Name = ZINC02685333
REMARK  8 active torsions:
REMARK  status: ('A' for Active; 'I' for Inactive)
REMARK    1  A    between atoms: C_1  and  C_2
REMARK    2  A    between atoms: C_5  and  S_9
REMARK    3  A    between atoms: C_6  and  C_8
REMARK    4  A    between atoms: S_9  and  N_12
REMARK    5  A    between atoms: N_12  and  C_13
REMARK    6  A    between atoms: C_15  and  S_24
REMARK    7  A    between atoms: C_16  and  O_23
REMARK    8  A    between atoms: S_24  and  C_25
REMARK                            x       y       z     vdW  Elec       q    Type
REMARK                         _______ _______ _______ _____ _____    ______ ____
ROOT
ATOM      1  C   UNL     1       3.583   2.293  -1.575  0.00  0.00    +0.057 A 
ATOM      2  C   UNL     1       4.036   3.120  -0.572  0.00  0.00    +0.044 A 
ATOM      3  C   UNL     1       4.439   4.429  -0.852  0.00  0.00    +0.059 A 
ATOM      4  C   UNL     1       4.390   4.921  -2.143  0.00  0.00    +0.138 A 
ATOM      5  C   UNL     1       3.931   4.097  -3.187  0.00  0.00    +0.026 A 
ATOM      6  C   UNL     1       3.529   2.768  -2.902  0.00  0.00    +0.008 A 
ATOM      7  C   UNL     1       3.067   1.951  -3.946  0.00  0.00    +0.010 A 
ATOM      8  C   UNL     1       3.020   2.440  -5.216  0.00  0.00    +0.001 A 
ATOM      9  C   UNL     1       3.420   3.745  -5.497  0.00  0.00    +0.001 A 
ATOM     10  C   UNL     1       3.869   4.568  -4.510  0.00  0.00    +0.012 A 
ENDROOT
BRANCH   1  11
ATOM     11  N   UNL     1       3.184   0.988  -1.280  0.00  0.00    -0.216 N 
ATOM     12  H   UNL     1       3.375   0.179  -2.000  0.00  0.00    +0.174 HD
BRANCH  11  13
ATOM     13  S   UNL     1       2.422   0.659   0.153  0.00  0.00    +0.073 S 
ATOM     14  O   UNL     1       3.264   1.157   1.184  0.00  0.00    -0.150 OA
ATOM     15  O   UNL     1       2.014  -0.701   0.093  0.00  0.00    -0.150 OA
BRANCH  13  20
ATOM     16  C   UNL     1      -2.621   3.967   0.297  0.00  0.00    +0.044 C 
ATOM     17  C   UNL     1      -1.361   3.141   0.261  0.00  0.00    -0.050 A 
ATOM     18  C   UNL     1      -0.347   3.387   1.167  0.00  0.00    +0.005 A 
ATOM     19  C   UNL     1       0.810   2.633   1.131  0.00  0.00    +0.029 A 
ATOM     20  C   UNL     1       0.950   1.625   0.195  0.00  0.00    +0.111 A 
ATOM     21  C   UNL     1      -0.066   1.376  -0.709  0.00  0.00    -0.024 A 
ATOM     22  C   UNL     1      -1.222   2.134  -0.676  0.00  0.00    +0.008 A 
ATOM     23  C   UNL     1       0.086   0.278  -1.730  0.00  0.00    +0.046 C 
ENDBRANCH  13  20
ENDBRANCH  11  13
ENDBRANCH   1  11
BRANCH   4  24
ATOM     24  O   UNL     1       4.784   6.198  -2.403  0.00  0.00    -0.505 OA
ATOM     25  H   UNL     1       4.744   6.587  -3.431  0.00  0.00    +0.292 HD
ENDBRANCH   4  24
BRANCH   3  26
ATOM     26  S   UNL     1       5.013   5.463   0.454  0.00  0.00    -0.047 S 
BRANCH  26  27
ATOM     27  C   UNL     1       3.599   6.490   0.676  0.00  0.00    +0.189 A 
ATOM     28  N   UNL     1       3.508   7.550   1.509  0.00  0.00    -0.254 N 
ATOM     29  H   UNL     1       4.370   7.837   2.129  0.00  0.00    +0.191 HD
ATOM     30  N   UNL     1       2.210   8.062   1.355  0.00  0.00    -0.160 NA
ATOM     31  C   UNL     1       1.604   7.310   0.476  0.00  0.00    +0.245 A 
ATOM     32  N   UNL     1       2.441   6.359   0.063  0.00  0.00    -0.209 NA
ENDBRANCH  26  27
ENDBRANCH   3  26
TORSDOF 6
