REMARK  Name = ZINC08443111
REMARK  11 active torsions:
REMARK  status: ('A' for Active; 'I' for Inactive)
REMARK    1  A    between atoms: C_1  and  C_2
REMARK    2  A    between atoms: C_2  and  O_3
REMARK    3  A    between atoms: O_3  and  C_4
REMARK    4  A    between atoms: C_4  and  C_6
REMARK    5  A    between atoms: C_7  and  C_21
REMARK    6  A    between atoms: C_9  and  N_20
REMARK    7  A    between atoms: C_10  and  C_18
REMARK    8  A    between atoms: C_11  and  C_13
REMARK    9  A    between atoms: C_21  and  S_22
REMARK   10  A    between atoms: S_22  and  C_23
REMARK   11  A    between atoms: C_24  and  C_34
REMARK                            x       y       z     vdW  Elec       q    Type
REMARK                         _______ _______ _______ _____ _____    ______ ____
ROOT
ATOM      1  C   UNL     1      -1.536   0.734   1.897  0.00  0.00    +0.088 C 
ATOM      2  C   UNL     1      -0.386   1.374   1.653  0.00  0.00    +0.128 C 
ATOM      3  O   UNL     1      -0.151   2.617   2.096  0.00  0.00    -0.444 OA
ATOM      4  C   UNL     1      -0.897   3.115   3.095  0.00  0.00    +0.198 C 
ATOM      5  C   UNL     1      -2.094   2.576   3.430  0.00  0.00    +0.099 C 
ATOM      6  C   UNL     1      -2.638   1.388   2.685  0.00  0.00    +0.111 C 
ENDROOT
BRANCH   6   7
ATOM      7  C   UNL     1      -3.725   1.841   1.745  0.00  0.00    +0.003 A 
ATOM      8  C   UNL     1      -5.031   1.478   1.711  0.00  0.00    +0.012 A 
ATOM      9  C   UNL     1      -5.856   2.029   0.749  0.00  0.00    +0.008 A 
ATOM     10  C   UNL     1      -5.335   2.917  -0.133  0.00  0.00    +0.045 A 
ATOM     11  S   UNL     1      -3.630   3.002   0.392  0.00  0.00    -0.101 S 
ENDBRANCH   6   7
BRANCH   4  12
ATOM     12  N   UNL     1      -0.431   4.197   3.800  0.00  0.00    -0.328 N 
ATOM     13  H   UNL     1      -0.957   4.566   4.527  0.00  0.00    +0.145 HD
ATOM     14  H   UNL     1       0.424   4.593   3.571  0.00  0.00    +0.145 HD
ENDBRANCH   4  12
BRANCH   1  15
ATOM     15  C   UNL     1      -1.719  -0.582   1.404  0.00  0.00    +0.339 C 
ATOM     16  O   UNL     1      -1.067  -0.971   0.453  0.00  0.00    -0.245 OA
BRANCH  15  17
ATOM     17  O   UNL     1      -2.616  -1.403   1.988  0.00  0.00    -0.462 OA
BRANCH  17  19
ATOM     18  C   UNL     1      -3.804  -3.494   2.227  0.00  0.00    +0.048 C 
ATOM     19  C   UNL     1      -2.748  -2.715   1.439  0.00  0.00    +0.229 C 
ENDBRANCH  17  19
ENDBRANCH  15  17
ENDBRANCH   1  15
BRANCH   5  20
ATOM     20  C   UNL     1      -2.849   3.143   4.507  0.00  0.00    +0.101 C 
ATOM     21  N   UNL     1      -3.449   3.593   5.361  0.00  0.00    -0.191 NA
ENDBRANCH   5  20
BRANCH   2  22
ATOM     22  C   UNL     1       0.685   0.670   0.860  0.00  0.00    +0.150 C 
BRANCH  22  23
ATOM     23  S   UNL     1       0.724   1.334  -0.823  0.00  0.00    -0.097 S 
BRANCH  23  24
ATOM     24  C   UNL     1       2.025   0.361  -1.506  0.00  0.00    +0.115 A 
ATOM     25  C   UNL     1       2.404   0.546  -2.848  0.00  0.00    +0.084 A 
ATOM     26  C   UNL     1       3.445  -0.234  -3.365  0.00  0.00    +0.027 A 
ATOM     27  C   UNL     1       4.042  -1.160  -2.526  0.00  0.00    -0.025 A 
ATOM     28  C   UNL     1       3.615  -1.291  -1.230  0.00  0.00    +0.046 A 
ATOM     29  N   UNL     1       2.634  -0.542  -0.754  0.00  0.00    -0.244 NA
ATOM     30  C   UNL     1       4.269  -2.312  -0.319  0.00  0.00    +0.056 C 
ATOM     31  C   UNL     1       3.862  -3.711  -0.786  0.00  0.00    +0.006 C 
ATOM     32  C   UNL     1       4.784  -4.208  -1.882  0.00  0.00    +0.001 C 
ATOM     33  C   UNL     1       4.660  -3.457  -3.193  0.00  0.00    +0.005 C 
ATOM     34  C   UNL     1       5.171  -2.022  -3.050  0.00  0.00    +0.037 C 
BRANCH  25  35
ATOM     35  C   UNL     1       1.742   1.516  -3.667  0.00  0.00    +0.102 C 
ATOM     36  N   UNL     1       1.217   2.286  -4.317  0.00  0.00    -0.191 NA
ENDBRANCH  25  35
ENDBRANCH  23  24
ENDBRANCH  22  23
ENDBRANCH   2  22
TORSDOF 10
