REMARK  Name = ZINC19079819
REMARK  6 active torsions:
REMARK  status: ('A' for Active; 'I' for Inactive)
REMARK    1  A    between atoms: C_1  and  C_2
REMARK    2  A    between atoms: C_2  and  C_4
REMARK    3  A    between atoms: C_2  and  N_25
REMARK    4  A    between atoms: N_6  and  C_7
REMARK    5  A    between atoms: C_7  and  C_13
REMARK    6  A    between atoms: C_14  and  C_15
REMARK                            x       y       z     vdW  Elec       q    Type
REMARK                         _______ _______ _______ _____ _____    ______ ____
ROOT
ATOM      1  C   UNL     1      -0.729   1.579   1.267  0.00  0.00    +0.096 C 
ATOM      2  C   UNL     1      -0.013   1.086   0.008  0.00  0.00    +0.039 C 
ATOM      3  C   UNL     1      -0.753   1.593  -1.232  0.00  0.00    +0.003 C 
ATOM      4  C   UNL     1      -0.773   3.123  -1.223  0.00  0.00    +0.000 C 
ATOM      5  C   UNL     1      -1.490   3.616   0.036  0.00  0.00    +0.003 C 
ATOM      6  C   UNL     1      -0.750   3.109   1.275  0.00  0.00    +0.039 C 
ENDROOT
BRANCH   1   9
ATOM      7  C   UNL     1      -0.473   1.407   3.684  0.00  0.00    +0.238 C 
ATOM      8  O   UNL     1      -1.468   2.090   3.808  0.00  0.00    -0.273 OA
ATOM      9  N   UNL     1      -0.020   1.094   2.454  0.00  0.00    -0.297 N 
ATOM     10  H   UNL     1       0.775   0.547   2.354  0.00  0.00    +0.150 HD
BRANCH   7  12
ATOM     11  C   UNL     1       0.276  -0.622   4.896  0.00  0.00    +0.042 C 
ATOM     12  C   UNL     1       0.256   0.907   4.905  0.00  0.00    +0.191 C 
BRANCH  12  13
ATOM     13  N   UNL     1      -0.430   1.380   6.110  0.00  0.00    -0.240 N 
ATOM     14  C   UNL     1      -1.478   0.800   6.721  0.00  0.00    +0.219 A 
ATOM     15  N   UNL     1      -1.795   1.527   7.761  0.00  0.00    -0.223 NA
ATOM     16  C   UNL     1      -0.977   2.575   7.847  0.00  0.00    +0.245 A 
ATOM     17  N   UNL     1      -0.120   2.526   6.861  0.00  0.00    -0.158 NA
ENDBRANCH  12  13
ENDBRANCH   7  12
ENDBRANCH   1   9
BRANCH   1  18
ATOM     18  C   UNL     1      -2.110   1.070   1.277  0.00  0.00    -0.071 C 
ATOM     19  C   UNL     1      -3.211   0.663   1.286  0.00  0.00    -0.063 C 
BRANCH  19  20
ATOM     20  C   UNL     1      -4.555   0.168   1.296  0.00  0.00    +0.044 A 
ATOM     21  C   UNL     1      -5.016  -0.627   0.254  0.00  0.00    +0.028 A 
ATOM     22  C   UNL     1      -6.340  -1.092   0.316  0.00  0.00    +0.002 A 
ATOM     23  C   UNL     1      -6.875  -1.904  -0.699  0.00  0.00    +0.010 A 
ATOM     24  C   UNL     1      -8.165  -2.331  -0.609  0.00  0.00    +0.001 A 
ATOM     25  C   UNL     1      -8.962  -1.973   0.477  0.00  0.00    +0.002 A 
ATOM     26  C   UNL     1      -8.476  -1.188   1.477  0.00  0.00    +0.028 A 
ATOM     27  C   UNL     1      -7.149  -0.726   1.421  0.00  0.00    +0.071 A 
ATOM     28  N   UNL     1      -6.651   0.047   2.392  0.00  0.00    -0.254 NA
ATOM     29  C   UNL     1      -5.419   0.486   2.357  0.00  0.00    +0.128 A 
ENDBRANCH  19  20
ENDBRANCH   1  18
TORSDOF 5
