REMARK  Name = ZINC12703772
REMARK  11 active torsions:
REMARK  status: ('A' for Active; 'I' for Inactive)
REMARK    1  A    between atoms: C_1  and  C_2
REMARK    2  A    between atoms: C_7  and  C_8
REMARK    3  A    between atoms: C_9  and  C_21
REMARK    4  A    between atoms: N_11  and  C_13
REMARK    5  A    between atoms: C_21  and  N_59
REMARK    6  A    between atoms: C_22  and  N_59
REMARK    7  A    between atoms: C_23  and  C_24
REMARK    8  A    between atoms: C_23  and  N_59
REMARK    9  A    between atoms: C_24  and  C_25
REMARK   10  A    between atoms: C_26  and  C_32
REMARK   11  A    between atoms: C_30  and  C_31
REMARK                            x       y       z     vdW  Elec       q    Type
REMARK                         _______ _______ _______ _____ _____    ______ ____
ROOT
ATOM      1  C   UNL     1       0.016  -0.010   0.117  0.00  0.00    +0.095 A 
ATOM      2  C   UNL     1       1.147  -0.815  -0.118  0.00  0.00    -0.018 A 
ATOM      3  C   UNL     1       0.736  -2.100  -0.189  0.00  0.00    +0.117 A 
ATOM      4  N   UNL     1      -0.612  -2.116  -0.016  0.00  0.00    -0.236 N 
ATOM      5  N   UNL     1      -1.040  -0.795   0.174  0.00  0.00    -0.166 NA
ENDROOT
BRANCH   4   6
ATOM      6  C   UNL     1      -1.430  -3.254  -0.025  0.00  0.00    +0.101 A 
ATOM      7  C   UNL     1      -0.874  -4.509  -0.230  0.00  0.00    +0.033 A 
ATOM      8  C   UNL     1      -1.681  -5.630  -0.232  0.00  0.00    +0.040 A 
ATOM      9  C   UNL     1      -3.047  -5.503  -0.042  0.00  0.00    +0.126 A 
ATOM     10  C   UNL     1      -3.607  -4.252   0.157  0.00  0.00    +0.078 A 
ATOM     11  C   UNL     1      -2.802  -3.127   0.167  0.00  0.00    +0.151 A 
ATOM     12  F   UNL     1      -3.347  -1.907   0.361  0.00  0.00    -0.203 F 
ATOM     13  F   UNL     1      -3.834  -6.600  -0.051  0.00  0.00    -0.205 F 
ENDBRANCH   4   6
BRANCH   1  20
ATOM     14  C   UNL     1      -1.854   1.583  -1.411  0.00  0.00    +0.044 C 
ATOM     15  C   UNL     1      -0.884   2.241  -0.464  0.00  0.00    -0.041 A 
ATOM     16  C   UNL     1      -0.886   3.614  -0.317  0.00  0.00    +0.004 A 
ATOM     17  C   UNL     1       0.007   4.220   0.547  0.00  0.00    +0.000 A 
ATOM     18  C   UNL     1       0.904   3.456   1.272  0.00  0.00    +0.001 A 
ATOM     19  C   UNL     1       0.911   2.082   1.137  0.00  0.00    +0.010 A 
ATOM     20  C   UNL     1       0.013   1.466   0.267  0.00  0.00    +0.005 A 
ENDBRANCH   1  20
BRANCH   2  21
ATOM     21  C   UNL     1       2.567  -0.330  -0.262  0.00  0.00    -0.040 C 
BRANCH  21  23
ATOM     22  C   UNL     1       3.262  -1.304   1.843  0.00  0.00    -0.096 C 
ATOM     23  N   UNL     1       3.112  -0.046   1.083  0.00  0.00    +0.381 N 
ATOM     24  H   UNL     1       2.461   0.571   1.583  0.00  0.00    -0.082 HD
BRANCH  23  25
ATOM     25  C   UNL     1       4.420   0.632   0.965  0.00  0.00    -0.074 C 
BRANCH  25  26
ATOM     26  C   UNL     1       4.854   1.112   2.351  0.00  0.00    +0.020 C 
BRANCH  26  27
ATOM     27  C   UNL     1       6.177   1.825   2.244  0.00  0.00    -0.006 A 
ATOM     28  C   UNL     1       6.353   3.149   2.024  0.00  0.00    +0.036 A 
ATOM     29  N   UNL     1       7.681   3.388   1.997  0.00  0.00    -0.281 N 
ATOM     30  H   UNL     1       8.115   4.277   1.852  0.00  0.00    +0.189 HD
ATOM     31  N   UNL     1       8.343   2.172   2.208  0.00  0.00    -0.179 NA
ATOM     32  C   UNL     1       7.441   1.237   2.362  0.00  0.00    +0.063 A 
ATOM     33  C   UNL     1       7.715  -0.223   2.618  0.00  0.00    +0.068 C 
ATOM     34  C   UNL     1       5.261   4.171   1.841  0.00  0.00    +0.065 C 
ENDBRANCH  26  27
ENDBRANCH  25  26
ENDBRANCH  23  25
ENDBRANCH  21  23
ENDBRANCH   2  21
TORSDOF 7
