REMARK  Name = ZINC28289484
REMARK  11 active torsions:
REMARK  status: ('A' for Active; 'I' for Inactive)
REMARK    1  A    between atoms: C_1  and  C_2
REMARK    2  A    between atoms: C_2  and  C_3
REMARK    3  A    between atoms: C_12  and  C_14
REMARK    4  A    between atoms: N_16  and  C_17
REMARK    5  A    between atoms: C_17  and  C_18
REMARK    6  A    between atoms: C_18  and  C_20
REMARK    7  A    between atoms: C_18  and  N_30
REMARK    8  A    between atoms: C_23  and  C_26
REMARK    9  A    between atoms: C_26  and  C_27
REMARK   10  A    between atoms: C_26  and  C_28
REMARK   11  A    between atoms: C_26  and  C_29
REMARK                            x       y       z     vdW  Elec       q    Type
REMARK                         _______ _______ _______ _____ _____    ______ ____
ROOT
ATOM      1  C   UNL     1      -4.981  -2.693   0.001  0.00  0.00    +0.094 C 
ENDROOT
BRANCH   1   4
ATOM      2  C   UNL     1      -4.162  -4.475   1.447  0.00  0.00    +0.279 C 
ATOM      3  O   UNL     1      -3.367  -4.774   0.579  0.00  0.00    -0.267 OA
ATOM      4  N   UNL     1      -5.014  -3.448   1.256  0.00  0.00    -0.310 N 
ATOM      5  H   UNL     1      -5.734  -3.177   2.042  0.00  0.00    +0.149 HD
BRANCH   2  15
ATOM      6  C   UNL     1      -5.399  -6.837   7.281  0.00  0.00    -0.047 A 
ATOM      7  C   UNL     1      -6.231  -5.766   6.988  0.00  0.00    +0.007 A 
ATOM      8  C   UNL     1      -6.134  -5.108   5.781  0.00  0.00    +0.047 A 
ATOM      9  C   UNL     1      -5.193  -5.518   4.842  0.00  0.00    +0.139 A 
ATOM     10  C   UNL     1      -4.353  -6.603   5.147  0.00  0.00    +0.064 A 
ATOM     11  C   UNL     1      -4.466  -7.257   6.373  0.00  0.00    +0.019 A 
ATOM     12  C   UNL     1      -3.361  -7.026   4.140  0.00  0.00    +0.193 A 
ATOM     13  O   UNL     1      -2.604  -7.959   4.343  0.00  0.00    -0.287 OA
ATOM     14  C   UNL     1      -3.328  -6.266   2.881  0.00  0.00    +0.103 A 
ATOM     15  C   UNL     1      -4.196  -5.239   2.717  0.00  0.00    +0.193 A 
ATOM     16  O   UNL     1      -5.084  -4.887   3.657  0.00  0.00    -0.450 OA
BRANCH   6  18
ATOM     17  C   UNL     1      -4.600  -6.873   9.628  0.00  0.00    +0.009 C 
ATOM     18  C   UNL     1      -5.523  -7.542   8.607  0.00  0.00    +0.032 C 
ENDBRANCH   6  18
ENDBRANCH   2  15
ENDBRANCH   1   4
BRANCH   1  19
ATOM     19  C   UNL     1      -6.124  -1.676  -0.013  0.00  0.00    -0.020 C 
BRANCH  19  20
ATOM     20  C   UNL     1      -7.443  -2.405  -0.033  0.00  0.00    -0.059 A 
ATOM     21  C   UNL     1      -7.934  -2.913  -1.221  0.00  0.00    +0.002 A 
ATOM     22  C   UNL     1      -9.142  -3.585  -1.239  0.00  0.00    +0.004 A 
ATOM     23  C   UNL     1      -9.864  -3.740  -0.070  0.00  0.00    -0.042 A 
ATOM     24  C   UNL     1      -9.376  -3.227   1.117  0.00  0.00    +0.004 A 
ATOM     25  C   UNL     1      -8.165  -2.559   1.136  0.00  0.00    +0.002 A 
BRANCH  23  26
ATOM     26  C   UNL     1     -11.183  -4.469  -0.090  0.00  0.00    -0.013 C 
ATOM     27  C   UNL     1     -12.291  -3.530   0.390  0.00  0.00    +0.015 C 
ATOM     28  C   UNL     1     -11.488  -4.931  -1.516  0.00  0.00    +0.015 C 
ATOM     29  C   UNL     1     -11.108  -5.685   0.835  0.00  0.00    +0.015 C 
ENDBRANCH  23  26
ENDBRANCH  19  20
BRANCH  19  30
ATOM     30  N   UNL     1      -6.013  -0.831  -1.209  0.00  0.00    +0.385 N 
ATOM     31  C   UNL     1      -7.110   0.170  -1.257  0.00  0.00    -0.078 C 
ATOM     32  C   UNL     1      -6.559   1.253  -2.218  0.00  0.00    -0.020 C 
ATOM     33  C   UNL     1      -5.057   1.305  -1.857  0.00  0.00    -0.020 C 
ATOM     34  C   UNL     1      -4.756  -0.051  -1.192  0.00  0.00    -0.078 C 
ATOM     35  H   UNL     1      -6.050  -1.519  -2.066  0.00  0.00    -0.081 HD
ENDBRANCH  19  30
ENDBRANCH   1  19
TORSDOF 7
