REMARK  Name = ZINC43410601
REMARK  2 active torsions:
REMARK  status: ('A' for Active; 'I' for Inactive)
REMARK    1  A    between atoms: C_6  and  C_7
REMARK    2  A    between atoms: N_8  and  O_9
REMARK                            x       y       z     vdW  Elec       q    Type
REMARK                         _______ _______ _______ _____ _____    ______ ____
ROOT
ATOM      1  C   UNL     1      -0.372   1.476  -0.114  0.00  0.00    +0.020 A 
ATOM      2  C   UNL     1       0.686   2.302  -0.478  0.00  0.00    -0.025 A 
ATOM      3  C   UNL     1       1.952   1.772  -0.592  0.00  0.00    +0.047 A 
ATOM      4  N   UNL     1       2.163   0.480  -0.364  0.00  0.00    -0.236 NA
ATOM      5  C   UNL     1       1.194  -0.347  -0.017  0.00  0.00    +0.132 A 
ATOM      6  C   UNL     1      -0.120   0.125   0.125  0.00  0.00    +0.058 A 
ATOM      7  N   UNL     1       1.476  -1.685   0.208  0.00  0.00    -0.313 N 
ATOM      8  C   UNL     1       1.534  -2.612  -0.923  0.00  0.00    +0.117 C 
ATOM      9  C   UNL     1       2.967  -3.131  -1.086  0.00  0.00    +0.088 C 
ATOM     10  S   UNL     1       3.482  -3.914   0.472  0.00  0.00    -0.158 S 
ATOM     11  C   UNL     1       3.168  -2.619   1.709  0.00  0.00    +0.088 C 
ATOM     12  C   UNL     1       1.719  -2.152   1.574  0.00  0.00    +0.117 C 
ATOM     13  C   UNL     1       3.147   2.612  -0.965  0.00  0.00    +0.056 C 
ATOM     14  C   UNL     1       2.701   3.924  -1.608  0.00  0.00    +0.006 C 
ATOM     15  C   UNL     1       1.665   4.585  -0.693  0.00  0.00    +0.005 C 
ATOM     16  C   UNL     1       0.384   3.754  -0.737  0.00  0.00    +0.037 C 
ENDROOT
BRANCH   6  17
ATOM     17  C   UNL     1      -1.213  -0.790   0.517  0.00  0.00    +0.166 C 
ATOM     18  N   UNL     1      -1.950  -0.516   1.556  0.00  0.00    -0.071 NA
ATOM     19  N   UNL     1      -1.454  -1.937  -0.220  0.00  0.00    -0.340 N 
ATOM     20  H   UNL     1      -0.906  -2.141  -0.993  0.00  0.00    +0.144 HD
ATOM     21  H   UNL     1      -2.171  -2.537   0.038  0.00  0.00    +0.144 HD
BRANCH  18  22
ATOM     22  O   UNL     1      -1.632   0.593   2.376  0.00  0.00    -0.408 OA
ATOM     23  H   UNL     1      -2.277   0.761   3.077  0.00  0.00    +0.328 HD
ENDBRANCH  18  22
ENDBRANCH   6  17
TORSDOF 2
