REMARK  Name = ZINC07276760
REMARK  3 active torsions:
REMARK  status: ('A' for Active; 'I' for Inactive)
REMARK    1  A    between atoms: C_1  and  S_2
REMARK    2  A    between atoms: S_2  and  C_3
REMARK    3  A    between atoms: C_12  and  C_14
REMARK                            x       y       z     vdW  Elec       q    Type
REMARK                         _______ _______ _______ _____ _____    ______ ____
ROOT
ATOM      1  C   UNL     1       0.260   6.930   3.703  0.00  0.00    +0.191 A 
ATOM      2  N   UNL     1       0.212   7.705   2.630  0.00  0.00    -0.207 NA
ATOM      3  C   UNL     1      -0.166   7.216   1.450  0.00  0.00    +0.126 A 
ATOM      4  C   UNL     1      -0.513   5.871   1.360  0.00  0.00    +0.044 A 
ATOM      5  C   UNL     1      -0.450   5.091   2.506  0.00  0.00    +0.133 A 
ATOM      6  N   UNL     1      -0.063   5.645   3.651  0.00  0.00    -0.206 NA
ATOM      7  N   UNL     1      -0.787   3.749   2.443  0.00  0.00    -0.302 N 
ATOM      8  C   UNL     1      -0.798   3.093   1.243  0.00  0.00    +0.017 C 
ATOM      9  C   UNL     1      -0.863   3.773   0.078  0.00  0.00    +0.024 C 
ATOM     10  C   UNL     1      -0.948   5.279   0.054  0.00  0.00    +0.090 C 
ATOM     11  C   UNL     1      -0.856   3.098  -1.155  0.00  0.00    +0.162 C 
ATOM     12  O   UNL     1      -0.927   3.739  -2.185  0.00  0.00    -0.292 OA
ATOM     13  C   UNL     1      -0.764   1.599  -1.225  0.00  0.00    +0.080 C 
ATOM     14  C   UNL     1      -0.013   1.086   0.008  0.00  0.00    +0.014 C 
ATOM     15  C   UNL     1      -0.739   1.584   1.259  0.00  0.00    +0.051 C 
ATOM     16  N   UNL     1      -0.213   8.033   0.331  0.00  0.00    -0.343 N 
ATOM     17  H   UNL     1      -1.018   3.272   3.255  0.00  0.00    +0.153 HD
ATOM     18  H   UNL     1       0.031   8.969   0.404  0.00  0.00    +0.144 HD
ATOM     19  H   UNL     1      -0.489   7.668  -0.524  0.00  0.00    +0.144 HD
ENDROOT
BRANCH  10  20
ATOM     20  C   UNL     1      -2.372   5.688  -0.223  0.00  0.00    -0.035 A 
ATOM     21  C   UNL     1      -3.382   5.300   0.637  0.00  0.00    +0.004 A 
ATOM     22  C   UNL     1      -4.688   5.679   0.385  0.00  0.00    +0.000 A 
ATOM     23  C   UNL     1      -4.984   6.438  -0.732  0.00  0.00    +0.000 A 
ATOM     24  C   UNL     1      -3.974   6.821  -1.595  0.00  0.00    +0.000 A 
ATOM     25  C   UNL     1      -2.668   6.446  -1.341  0.00  0.00    +0.004 A 
ENDBRANCH  10  20
BRANCH   1  27
ATOM     26  C   UNL     1       1.068   9.334   4.729  0.00  0.00    +0.093 C 
ATOM     27  S   UNL     1       0.766   7.625   5.241  0.00  0.00    -0.089 S 
ENDBRANCH   1  27
TORSDOF 2
