REMARK  Name = ZINC35921916
REMARK  10 active torsions:
REMARK  status: ('A' for Active; 'I' for Inactive)
REMARK    1  A    between atoms: C_1  and  C_2
REMARK    2  A    between atoms: C_2  and  N_3
REMARK    3  A    between atoms: C_8  and  C_17
REMARK    4  A    between atoms: N_10  and  C_11
REMARK    5  A    between atoms: C_17  and  N_18
REMARK    6  A    between atoms: N_18  and  C_19
REMARK    7  A    between atoms: C_19  and  C_20
REMARK    8  A    between atoms: C_20  and  C_21
REMARK    9  A    between atoms: C_20  and  C_22
REMARK   10  A    between atoms: N_25  and  C_26
REMARK                            x       y       z     vdW  Elec       q    Type
REMARK                         _______ _______ _______ _____ _____    ______ ____
ROOT
ATOM      1  N   UNL     1      -1.807  -0.716   1.364  0.00  0.00    +0.383 N 
ATOM      2  C   UNL     1      -2.501  -0.711   2.659  0.00  0.00    -0.072 C 
ATOM      3  C   UNL     1      -3.999  -0.967   2.444  0.00  0.00    +0.037 C 
ATOM      4  C   UNL     1      -4.133  -2.184   1.562  0.00  0.00    +0.045 A 
ATOM      5  C   UNL     1      -3.098  -2.691   0.841  0.00  0.00    -0.018 A 
ATOM      6  C   UNL     1      -3.562  -3.806   0.150  0.00  0.00    +0.082 A 
ATOM      7  N   UNL     1      -4.832  -3.966   0.441  0.00  0.00    -0.169 NA
ATOM      8  N   UNL     1      -5.212  -2.949   1.331  0.00  0.00    -0.236 N 
ATOM      9  C   UNL     1      -1.716  -2.088   0.840  0.00  0.00    -0.039 C 
ATOM     10  H   UNL     1      -2.319  -0.142   0.711  0.00  0.00    -0.081 HD
ENDROOT
BRANCH   8  11
ATOM     11  C   UNL     1      -6.489  -2.765   1.880  0.00  0.00    +0.066 A 
ATOM     12  C   UNL     1      -7.028  -1.489   1.974  0.00  0.00    +0.028 A 
ATOM     13  C   UNL     1      -8.287  -1.312   2.515  0.00  0.00    +0.002 A 
ATOM     14  C   UNL     1      -9.009  -2.403   2.962  0.00  0.00    +0.000 A 
ATOM     15  C   UNL     1      -8.474  -3.675   2.870  0.00  0.00    +0.002 A 
ATOM     16  C   UNL     1      -7.218  -3.859   2.325  0.00  0.00    +0.028 A 
ENDBRANCH   8  11
BRANCH   1  18
ATOM     17  C   UNL     1      -0.546   1.298   1.960  0.00  0.00    -0.017 C 
ATOM     18  C   UNL     1      -0.454  -0.169   1.534  0.00  0.00    -0.082 C 
ENDBRANCH   1  18
BRANCH   6  19
ATOM     19  C   UNL     1      -2.749  -4.679  -0.771  0.00  0.00    +0.166 C 
BRANCH  19  20
ATOM     20  N   UNL     1      -2.140  -5.767  -0.001  0.00  0.00    -0.279 N 
ATOM     21  C   UNL     1      -0.922  -5.602   0.551  0.00  0.00    +0.307 C 
ATOM     22  O   UNL     1      -0.328  -4.550   0.410  0.00  0.00    -0.252 OA
ATOM     23  N   UNL     1      -0.361  -6.603   1.258  0.00  0.00    -0.269 N 
ATOM     24  H   UNL     1      -0.803  -7.464   1.313  0.00  0.00    +0.156 HD
BRANCH  23  25
ATOM     25  C   UNL     1       0.858  -6.399   1.914  0.00  0.00    +0.035 A 
ATOM     26  C   UNL     1       1.101  -7.010   3.137  0.00  0.00    +0.023 A 
ATOM     27  C   UNL     1       2.305  -6.807   3.782  0.00  0.00    +0.002 A 
ATOM     28  C   UNL     1       3.269  -5.996   3.210  0.00  0.00    +0.000 A 
ATOM     29  C   UNL     1       3.030  -5.386   1.993  0.00  0.00    +0.002 A 
ATOM     30  C   UNL     1       1.830  -5.589   1.340  0.00  0.00    +0.023 A 
ENDBRANCH  23  25
BRANCH  20  31
ATOM     31  C   UNL     1      -2.856  -7.034   0.168  0.00  0.00    +0.112 C 
BRANCH  31  32
ATOM     32  C   UNL     1      -2.491  -7.982  -0.976  0.00  0.00    +0.000 C 
ATOM     33  C   UNL     1      -3.139  -9.347  -0.734  0.00  0.00    +0.009 C 
ATOM     34  C   UNL     1      -2.998  -7.404  -2.299  0.00  0.00    +0.009 C 
ENDBRANCH  31  32
ENDBRANCH  20  31
ENDBRANCH  19  20
ENDBRANCH   6  19
TORSDOF 7
