REMARK  Name = ZINC05946680
REMARK  10 active torsions:
REMARK  status: ('A' for Active; 'I' for Inactive)
REMARK    1  A    between atoms: C_1  and  C_2
REMARK    2  A    between atoms: C_2  and  C_3
REMARK    3  A    between atoms: C_3  and  C_4
REMARK    4  A    between atoms: C_4  and  C_5
REMARK    5  A    between atoms: C_11  and  N_15
REMARK    6  A    between atoms: N_18  and  C_21
REMARK    7  A    between atoms: C_24  and  N_35
REMARK    8  A    between atoms: C_25  and  N_27
REMARK    9  A    between atoms: N_27  and  C_28
REMARK   10  A    between atoms: C_28  and  C_29
REMARK                            x       y       z     vdW  Elec       q    Type
REMARK                         _______ _______ _______ _____ _____    ______ ____
ROOT
ATOM      1  N   UNL     1      -8.457  -5.069   0.129  0.00  0.00    -0.313 N 
ATOM      2  C   UNL     1      -8.408  -6.521  -0.089  0.00  0.00    +0.125 C 
ATOM      3  C   UNL     1      -9.114  -7.216   1.083  0.00  0.00    +0.124 C 
ATOM      4  N   UNL     1     -10.419  -6.574   1.292  0.00  0.00    -0.327 N 
ATOM      5  C   UNL     1     -10.468  -5.122   1.510  0.00  0.00    +0.124 C 
ATOM      6  C   UNL     1      -9.762  -4.428   0.344  0.00  0.00    +0.125 C 
ENDROOT
BRANCH   1  13
ATOM      7  C   UNL     1      -3.984  -0.865   1.032  0.00  0.00    +0.102 A 
ATOM      8  N   UNL     1      -3.910  -1.931   0.296  0.00  0.00    -0.159 NA
ATOM      9  N   UNL     1      -4.985  -2.807   0.168  0.00  0.00    -0.173 N 
ATOM     10  C   UNL     1      -5.028  -3.954  -0.571  0.00  0.00    +0.277 A 
ATOM     11  O   UNL     1      -4.049  -4.304  -1.213  0.00  0.00    -0.266 OA
ATOM     12  C   UNL     1      -6.184  -4.723  -0.595  0.00  0.00    +0.113 A 
ATOM     13  C   UNL     1      -7.295  -4.319   0.138  0.00  0.00    +0.106 A 
ATOM     14  N   UNL     1      -7.215  -3.190   0.850  0.00  0.00    -0.322 N 
ATOM     15  C   UNL     1      -6.118  -2.478   0.860  0.00  0.00    +0.178 A 
ATOM     16  S   UNL     1      -5.648  -0.966   1.672  0.00  0.00    -0.035 S 
ATOM     17  H   UNL     1      -7.982  -2.895   1.366  0.00  0.00    +0.169 HD
BRANCH   7  18
ATOM     18  C   UNL     1      -2.934   0.185   1.286  0.00  0.00    +0.065 C 
BRANCH  18  19
ATOM     19  C   UNL     1      -1.662  -0.167   0.511  0.00  0.00    +0.006 C 
BRANCH  19  21
ATOM     20  C   UNL     1       0.675   0.547  -0.005  0.00  0.00    +0.004 C 
ATOM     21  C   UNL     1      -0.596   0.899   0.770  0.00  0.00    -0.003 C 
ENDBRANCH  19  21
ENDBRANCH  18  19
ENDBRANCH   7  18
ENDBRANCH   1  13
BRANCH   4  22
ATOM     22  C   UNL     1     -11.593  -7.331   1.283  0.00  0.00    +0.032 A 
ATOM     23  C   UNL     1     -11.527  -8.717   1.200  0.00  0.00    +0.025 A 
ATOM     24  C   UNL     1     -12.687  -9.467   1.192  0.00  0.00    +0.036 A 
ATOM     25  C   UNL     1     -13.917  -8.842   1.266  0.00  0.00    +0.147 A 
ATOM     26  C   UNL     1     -13.991  -7.457   1.349  0.00  0.00    +0.060 A 
ATOM     27  C   UNL     1     -12.827  -6.701   1.363  0.00  0.00    +0.048 A 
BRANCH  25  28
ATOM     28  N   UNL     1     -15.158  -9.649   1.256  0.00  0.00    +0.058 N 
ATOM     29  O   UNL     1     -15.200 -10.700   1.851  0.00  0.00    -0.126 OA
ATOM     30  O   UNL     1     -16.129  -9.257   0.651  0.00  0.00    -0.126 OA
ENDBRANCH  25  28
BRANCH  26  31
ATOM     31  N   UNL     1     -15.235  -6.826   1.423  0.00  0.00    -0.338 N 
ATOM     32  H   UNL     1     -16.049  -7.349   1.352  0.00  0.00    +0.146 HD
BRANCH  31  33
ATOM     33  C   UNL     1     -15.310  -5.375   1.609  0.00  0.00    +0.137 C 
BRANCH  33  34
ATOM     34  C   UNL     1     -16.755  -4.949   1.655  0.00  0.00    -0.030 A 
ATOM     35  C   UNL     1     -17.413  -4.607   0.488  0.00  0.00    +0.005 A 
ATOM     36  C   UNL     1     -18.738  -4.216   0.531  0.00  0.00    +0.000 A 
ATOM     37  C   UNL     1     -19.406  -4.168   1.741  0.00  0.00    +0.000 A 
ATOM     38  C   UNL     1     -18.748  -4.511   2.908  0.00  0.00    +0.000 A 
ATOM     39  C   UNL     1     -17.424  -4.905   2.864  0.00  0.00    +0.005 A 
ENDBRANCH  33  34
ENDBRANCH  31  33
ENDBRANCH  26  31
ENDBRANCH   4  22
TORSDOF 9
