REMARK  Name = ZINC03146795
REMARK  13 active torsions:
REMARK  status: ('A' for Active; 'I' for Inactive)
REMARK    1  A    between atoms: C_1  and  C_2
REMARK    2  A    between atoms: C_5  and  N_8
REMARK    3  A    between atoms: C_13  and  C_14
REMARK    4  A    between atoms: C_13  and  C_15
REMARK    5  A    between atoms: N_16  and  C_17
REMARK    6  A    between atoms: C_17  and  C_19
REMARK    7  A    between atoms: C_17  and  C_34
REMARK    8  A    between atoms: C_19  and  N_21
REMARK    9  A    between atoms: C_19  and  O_26
REMARK   10  A    between atoms: O_26  and  C_27
REMARK   11  A    between atoms: C_34  and  C_35
REMARK   12  A    between atoms: C_34  and  C_36
REMARK   13  A    between atoms: C_34  and  C_37
REMARK                            x       y       z     vdW  Elec       q    Type
REMARK                         _______ _______ _______ _____ _____    ______ ____
ROOT
ATOM      1  C   UNL     1      -0.160  -8.922   0.298  0.00  0.00    +0.140 C 
ENDROOT
BRANCH   1  10
ATOM      2  N   UNL     1      -0.727  -4.221   0.600  0.00  0.00    -0.270 N 
ATOM      3  C   UNL     1      -0.452  -4.816  -0.576  0.00  0.00    +0.143 C 
ATOM      4  S   UNL     1      -0.278  -3.974  -2.056  0.00  0.00    -0.018 S 
ATOM      5  N   UNL     1      -0.329  -6.141  -0.453  0.00  0.00    -0.287 N 
ATOM      6  C   UNL     1      -0.505  -6.549   0.778  0.00  0.00    +0.089 C 
ATOM      7  C   UNL     1      -0.781  -5.305   1.598  0.00  0.00    +0.087 C 
ATOM      8  C   UNL     1      -2.169  -5.380   2.237  0.00  0.00    +0.039 C 
ATOM      9  C   UNL     1       0.297  -5.109   2.666  0.00  0.00    +0.039 C 
ATOM     10  N   UNL     1      -0.446  -7.828   1.230  0.00  0.00    -0.325 N 
ATOM     11  H   UNL     1      -0.594  -8.017   2.170  0.00  0.00    +0.147 HD
ATOM     12  H   UNL     1      -0.132  -6.735  -1.195  0.00  0.00    +0.155 HD
BRANCH   2  17
ATOM     13  C   UNL     1      -1.496   1.322   1.529  0.00  0.00    +0.044 C 
ATOM     14  C   UNL     1      -1.292  -0.150   1.282  0.00  0.00    -0.050 A 
ATOM     15  C   UNL     1      -2.213  -0.859   0.532  0.00  0.00    +0.005 A 
ATOM     16  C   UNL     1      -2.028  -2.208   0.304  0.00  0.00    +0.024 A 
ATOM     17  C   UNL     1      -0.916  -2.854   0.829  0.00  0.00    +0.036 A 
ATOM     18  C   UNL     1       0.006  -2.140   1.582  0.00  0.00    +0.024 A 
ATOM     19  C   UNL     1      -0.181  -0.789   1.802  0.00  0.00    +0.005 A 
ENDBRANCH   2  17
ENDBRANCH   1  10
BRANCH   1  20
ATOM     20  C   UNL     1       1.354  -9.066   0.132  0.00  0.00    -0.014 C 
ATOM     21  C   UNL     1       1.976  -9.483   1.466  0.00  0.00    +0.012 C 
ATOM     22  C   UNL     1       1.651 -10.132  -0.925  0.00  0.00    +0.012 C 
ATOM     23  C   UNL     1       1.948  -7.728  -0.312  0.00  0.00    +0.012 C 
ENDBRANCH   1  20
BRANCH   1  24
ATOM     24  C   UNL     1      -0.739 -10.226   0.850  0.00  0.00    +0.315 C 
BRANCH  24  25
ATOM     25  N   UNL     1      -2.167 -10.049   1.123  0.00  0.00    -0.211 N 
ATOM     26  C   UNL     1      -3.177 -10.802   0.653  0.00  0.00    +0.223 A 
ATOM     27  N   UNL     1      -4.298 -10.320   1.127  0.00  0.00    -0.223 NA
ATOM     28  C   UNL     1      -4.044  -9.265   1.900  0.00  0.00    +0.245 A 
ATOM     29  N   UNL     1      -2.753  -9.062   1.933  0.00  0.00    -0.155 NA
ENDBRANCH  24  25
BRANCH  24  30
ATOM     30  O   UNL     1      -0.564 -11.269  -0.112  0.00  0.00    -0.465 OA
BRANCH  30  31
ATOM     31  C   UNL     1      -0.540 -12.544   0.359  0.00  0.00    +0.124 A 
ATOM     32  C   UNL     1      -0.782 -12.793   1.702  0.00  0.00    +0.047 A 
ATOM     33  C   UNL     1      -0.757 -14.090   2.178  0.00  0.00    +0.023 A 
ATOM     34  C   UNL     1      -0.491 -15.139   1.316  0.00  0.00    +0.041 A 
ATOM     35  C   UNL     1      -0.249 -14.892  -0.024  0.00  0.00    +0.023 A 
ATOM     36  C   UNL     1      -0.280 -13.598  -0.505  0.00  0.00    +0.047 A 
ATOM     37 CL   UNL     1      -0.460 -16.768   1.917  0.00  0.00    -0.084 Cl
ENDBRANCH  30  31
ENDBRANCH  24  30
ENDBRANCH   1  24
TORSDOF 7
