REMARK  Name = ZINC04258767
REMARK  9 active torsions:
REMARK  status: ('A' for Active; 'I' for Inactive)
REMARK    1  A    between atoms: C_4  and  C_7
REMARK    2  A    between atoms: C_7  and  O_9
REMARK    3  A    between atoms: O_9  and  C_10
REMARK    4  A    between atoms: C_13  and  C_16
REMARK    5  A    between atoms: N_17  and  N_18
REMARK    6  A    between atoms: C_19  and  C_21
REMARK    7  A    between atoms: N_23  and  C_24
REMARK    8  A    between atoms: C_29  and  C_30
REMARK    9  A    between atoms: N_32  and  C_33
REMARK                            x       y       z     vdW  Elec       q    Type
REMARK                         _______ _______ _______ _____ _____    ______ ____
ROOT
ATOM      1  N   UNL     1       9.675  -6.965  -0.404  0.00  0.00    -0.199 N 
ATOM      2  C   UNL     1       9.642  -8.310  -0.484  0.00  0.00    +0.318 C 
ATOM      3  O   UNL     1       8.576  -8.890  -0.519  0.00  0.00    -0.263 OA
ATOM      4  H   UNL     1      10.527  -6.502  -0.376  0.00  0.00    +0.178 HD
ENDROOT
BRANCH   2   5
ATOM      5  C   UNL     1      10.915  -9.086  -0.530  0.00  0.00    +0.305 C 
ATOM      6  O   UNL     1      11.980  -8.506  -0.495  0.00  0.00    -0.265 OA
ATOM      7  N   UNL     1      10.882 -10.431  -0.610  0.00  0.00    -0.277 N 
ATOM      8  H   UNL     1      10.033 -10.890  -0.705  0.00  0.00    +0.155 HD
BRANCH   7   9
ATOM      9  C   UNL     1      12.065 -11.160  -0.556  0.00  0.00    +0.046 A 
ATOM     10  C   UNL     1      13.224 -10.653  -1.130  0.00  0.00    +0.024 A 
ATOM     11  C   UNL     1      14.397 -11.378  -1.075  0.00  0.00    +0.002 A 
ATOM     12  C   UNL     1      14.429 -12.614  -0.449  0.00  0.00    +0.001 A 
ATOM     13  C   UNL     1      13.289 -13.133   0.125  0.00  0.00    +0.015 A 
ATOM     14  C   UNL     1      12.096 -12.409   0.083  0.00  0.00    +0.058 A 
BRANCH  14  15
ATOM     15  C   UNL     1      10.874 -12.956   0.702  0.00  0.00    +0.250 C 
ATOM     16  O   UNL     1       9.816 -12.368   0.582  0.00  0.00    -0.270 OA
ATOM     17  N   UNL     1      10.929 -14.107   1.400  0.00  0.00    -0.281 N 
ATOM     18  H   UNL     1      11.784 -14.535   1.563  0.00  0.00    +0.155 HD
BRANCH  17  19
ATOM     19  C   UNL     1       9.754 -14.685   1.890  0.00  0.00    +0.034 A 
ATOM     20  C   UNL     1       8.576 -14.594   1.159  0.00  0.00    +0.023 A 
ATOM     21  C   UNL     1       7.417 -15.166   1.646  0.00  0.00    +0.002 A 
ATOM     22  C   UNL     1       7.428 -15.828   2.860  0.00  0.00    +0.000 A 
ATOM     23  C   UNL     1       8.598 -15.920   3.590  0.00  0.00    +0.002 A 
ATOM     24  C   UNL     1       9.762 -15.355   3.107  0.00  0.00    +0.023 A 
ENDBRANCH  17  19
ENDBRANCH  14  15
ENDBRANCH   7   9
ENDBRANCH   2   5
BRANCH   1  26
ATOM     25  C   UNL     1       8.511  -4.940  -0.283  0.00  0.00    +0.138 C 
ATOM     26  N   UNL     1       8.479  -6.237  -0.361  0.00  0.00    -0.187 NA
BRANCH  25  30
ATOM     27  C   UNL     1       4.888  -2.732  -0.154  0.00  0.00    +0.132 A 
ATOM     28  C   UNL     1       6.107  -2.066  -0.113  0.00  0.00    +0.047 A 
ATOM     29  C   UNL     1       7.285  -2.779  -0.155  0.00  0.00    +0.013 A 
ATOM     30  C   UNL     1       7.253  -4.174  -0.238  0.00  0.00    -0.005 A 
ATOM     31  C   UNL     1       6.025  -4.839  -0.279  0.00  0.00    +0.013 A 
ATOM     32  C   UNL     1       4.851  -4.119  -0.231  0.00  0.00    +0.047 A 
BRANCH  27  33
ATOM     33  O   UNL     1       3.728  -2.026  -0.112  0.00  0.00    -0.422 OA
BRANCH  33  34
ATOM     34  C   UNL     1       3.345  -1.372  -1.226  0.00  0.00    +0.344 C 
ATOM     35  O   UNL     1       4.074  -1.351  -2.199  0.00  0.00    -0.245 OA
BRANCH  34  39
ATOM     36  C   UNL     1      -0.408   0.611  -1.341  0.00  0.00    +0.000 A 
ATOM     37  C   UNL     1       0.419   0.638  -2.450  0.00  0.00    +0.001 A 
ATOM     38  C   UNL     1       1.640  -0.004  -2.419  0.00  0.00    +0.015 A 
ATOM     39  C   UNL     1       2.040  -0.682  -1.266  0.00  0.00    +0.059 A 
ATOM     40  C   UNL     1       1.200  -0.705  -0.151  0.00  0.00    +0.015 A 
ATOM     41  C   UNL     1      -0.018  -0.059  -0.195  0.00  0.00    +0.001 A 
ENDBRANCH  34  39
ENDBRANCH  33  34
ENDBRANCH  27  33
ENDBRANCH  25  30
ENDBRANCH   1  26
TORSDOF 9
