REMARK  Name = ZINC02752176
REMARK  12 active torsions:
REMARK  status: ('A' for Active; 'I' for Inactive)
REMARK    1  A    between atoms: C_1  and  C_2
REMARK    2  A    between atoms: C_2  and  C_4
REMARK    3  A    between atoms: C_2  and  S_17
REMARK    4  A    between atoms: N_6  and  N_7
REMARK    5  A    between atoms: C_8  and  C_9
REMARK    6  A    between atoms: C_14  and  O_15
REMARK    7  A    between atoms: S_17  and  C_18
REMARK    8  A    between atoms: C_21  and  C_26
REMARK    9  A    between atoms: N_22  and  C_23
REMARK   10  A    between atoms: C_23  and  C_24
REMARK   11  A    between atoms: C_26  and  N_27
REMARK   12  A    between atoms: N_27  and  C_28
REMARK                            x       y       z     vdW  Elec       q    Type
REMARK                         _______ _______ _______ _____ _____    ______ ____
ROOT
ATOM      1  C   UNL     1       2.509  -0.029  -1.285  0.00  0.00    +0.193 A 
ATOM      2  N   UNL     1       2.983   0.649  -0.266  0.00  0.00    -0.122 NA
ATOM      3  N   UNL     1       4.232   0.891  -0.446  0.00  0.00    -0.132 NA
ATOM      4  C   UNL     1       4.627   0.387  -1.581  0.00  0.00    +0.152 A 
ATOM      5  N   UNL     1       3.545  -0.222  -2.153  0.00  0.00    -0.301 N 
ENDROOT
BRANCH   1   6
ATOM      6  S   UNL     1       0.851  -0.589  -1.490  0.00  0.00    -0.073 S 
BRANCH   6   8
ATOM      7  C   UNL     1      -0.019   1.526   0.010  0.00  0.00    +0.029 C 
ATOM      8  C   UNL     1       0.002  -0.004   0.002  0.00  0.00    +0.139 C 
BRANCH   8   9
ATOM      9  C   UNL     1      -1.412  -0.526   0.013  0.00  0.00    +0.245 C 
ATOM     10  O   UNL     1      -1.927  -0.901  -1.019  0.00  0.00    -0.273 OA
ATOM     11  N   UNL     1      -2.103  -0.575   1.169  0.00  0.00    -0.206 N 
ATOM     12  H   UNL     1      -1.691  -0.275   1.994  0.00  0.00    +0.177 HD
BRANCH  11  13
ATOM     13  N   UNL     1      -3.417  -1.060   1.179  0.00  0.00    -0.188 NA
ATOM     14  C   UNL     1      -4.083  -1.107   2.292  0.00  0.00    +0.142 C 
BRANCH  14  15
ATOM     15  C   UNL     1      -5.466  -1.617   2.302  0.00  0.00    +0.037 A 
ATOM     16  C   UNL     1      -6.188  -1.665   3.497  0.00  0.00    +0.033 A 
ATOM     17  C   UNL     1      -7.482  -2.143   3.500  0.00  0.00    +0.042 A 
ATOM     18  C   UNL     1      -8.069  -2.577   2.322  0.00  0.00    +0.023 A 
ATOM     19  C   UNL     1      -7.364  -2.535   1.134  0.00  0.00    +0.047 A 
ATOM     20  C   UNL     1      -6.066  -2.052   1.112  0.00  0.00    +0.126 A 
ATOM     21 CL   UNL     1      -8.379  -2.202   4.985  0.00  0.00    -0.084 Cl
BRANCH  20  22
ATOM     22  O   UNL     1      -5.374  -2.006  -0.056  0.00  0.00    -0.506 OA
ATOM     23  H   UNL     1      -4.872  -2.809  -0.248  0.00  0.00    +0.292 HD
ENDBRANCH  20  22
ENDBRANCH  14  15
ENDBRANCH  11  13
ENDBRANCH   8   9
ENDBRANCH   6   8
ENDBRANCH   1   6
BRANCH   5  24
ATOM     24  C   UNL     1       3.505  -0.932  -3.434  0.00  0.00    +0.152 C 
BRANCH  24  25
ATOM     25  C   UNL     1       3.163   0.038  -4.536  0.00  0.00    -0.013 C 
ATOM     26  C   UNL     1       3.952   0.152  -5.575  0.00  0.00    +0.005 C 
ENDBRANCH  24  25
ENDBRANCH   5  24
BRANCH   4  27
ATOM     27  C   UNL     1       6.019   0.457  -2.153  0.00  0.00    +0.178 C 
BRANCH  27  28
ATOM     28  N   UNL     1       6.791  -0.704  -1.701  0.00  0.00    -0.336 N 
ATOM     29  H   UNL     1       6.380  -1.364  -1.122  0.00  0.00    +0.147 HD
BRANCH  28  30
ATOM     30  C   UNL     1       8.116  -0.859  -2.104  0.00  0.00    +0.035 A 
ATOM     31  C   UNL     1       8.708   0.079  -2.923  0.00  0.00    +0.023 A 
ATOM     32  C   UNL     1      10.031  -0.066  -3.330  0.00  0.00    +0.002 A 
ATOM     33  C   UNL     1      10.775  -1.135  -2.934  0.00  0.00    +0.008 A 
ATOM     34  C   UNL     1      10.209  -2.114  -2.100  0.00  0.00    -0.016 A 
ATOM     35  C   UNL     1       8.866  -1.974  -1.673  0.00  0.00    +0.003 A 
ATOM     36  C   UNL     1       8.303  -2.950  -0.836  0.00  0.00    +0.010 A 
ATOM     37  C   UNL     1       9.056  -4.013  -0.440  0.00  0.00    +0.001 A 
ATOM     38  C   UNL     1      10.380  -4.148  -0.854  0.00  0.00    +0.001 A 
ATOM     39  C   UNL     1      10.954  -3.228  -1.675  0.00  0.00    +0.008 A 
ENDBRANCH  28  30
ENDBRANCH  27  28
ENDBRANCH   4  27
TORSDOF 11
