REMARK  Name = ZINC04854651
REMARK  3 active torsions:
REMARK  status: ('A' for Active; 'I' for Inactive)
REMARK    1  A    between atoms: C_4  and  C_7
REMARK    2  A    between atoms: C_7  and  N_8
REMARK    3  A    between atoms: C_14  and  C_20
REMARK                            x       y       z     vdW  Elec       q    Type
REMARK                         _______ _______ _______ _____ _____    ______ ____
ROOT
ATOM      1  N   UNL     1       1.157   4.074   1.394  0.00  0.00    -0.288 N 
ATOM      2  C   UNL     1      -0.023   4.350   2.227  0.00  0.00    +0.159 C 
ATOM      3  C   UNL     1       0.537   4.815   3.552  0.00  0.00    +0.039 C 
ATOM      4  C   UNL     1       1.879   4.793   3.425  0.00  0.00    +0.058 C 
ATOM      5  C   UNL     1       2.243   4.351   2.137  0.00  0.00    +0.247 C 
ATOM      6  O   UNL     1       3.391   4.235   1.748  0.00  0.00    -0.270 OA
ATOM      7  C   UNL     1       2.707   5.224   4.620  0.00  0.00    +0.142 C 
ATOM      8  N   UNL     1       1.970   5.632   5.828  0.00  0.00    -0.288 N 
ATOM      9  C   UNL     1       0.623   5.600   5.801  0.00  0.00    +0.304 C 
ATOM     10  O   UNL     1       0.007   5.935   6.794  0.00  0.00    -0.252 OA
ATOM     11  N   UNL     1      -0.058   5.210   4.716  0.00  0.00    -0.271 N 
ATOM     12  H   UNL     1       2.444   5.917   6.625  0.00  0.00    +0.151 HD
ATOM     13  H   UNL     1      -1.027   5.209   4.759  0.00  0.00    +0.156 HD
ENDROOT
BRANCH   7  14
ATOM     14  C   UNL     1       3.614   4.080   4.993  0.00  0.00    -0.022 A 
ATOM     15  C   UNL     1       3.124   3.024   5.739  0.00  0.00    +0.007 A 
ATOM     16  C   UNL     1       3.954   1.972   6.076  0.00  0.00    +0.020 A 
ATOM     17  C   UNL     1       5.279   1.980   5.677  0.00  0.00    +0.041 A 
ATOM     18  C   UNL     1       5.770   3.040   4.936  0.00  0.00    +0.020 A 
ATOM     19  C   UNL     1       4.937   4.089   4.594  0.00  0.00    +0.007 A 
ATOM     20 CL   UNL     1       6.324   0.662   6.106  0.00  0.00    -0.084 Cl
ENDBRANCH   7  14
BRANCH   1  21
ATOM     21  C   UNL     1       1.151   3.592   0.010  0.00  0.00    +0.143 C 
BRANCH  21  25
ATOM     22  C   UNL     1       1.208  -0.679  -0.014  0.00  0.00    +0.000 A 
ATOM     23  C   UNL     1       0.002  -0.004   0.002  0.00  0.00    +0.000 A 
ATOM     24  C   UNL     1      -0.017   1.378   0.010  0.00  0.00    +0.005 A 
ATOM     25  C   UNL     1       1.171   2.086   0.002  0.00  0.00    -0.030 A 
ATOM     26  C   UNL     1       2.377   1.411  -0.014  0.00  0.00    +0.005 A 
ATOM     27  C   UNL     1       2.396   0.029  -0.021  0.00  0.00    +0.000 A 
ENDBRANCH  21  25
ENDBRANCH   1  21
TORSDOF 3
