REMARK  Name = ZINC14387693
REMARK  7 active torsions:
REMARK  status: ('A' for Active; 'I' for Inactive)
REMARK    1  A    between atoms: C_1  and  C_2
REMARK    2  A    between atoms: C_7  and  N_8
REMARK    3  A    between atoms: C_9  and  C_11
REMARK    4  A    between atoms: C_11  and  N_12
REMARK    5  A    between atoms: C_13  and  C_15
REMARK    6  A    between atoms: C_16  and  C_17
REMARK    7  A    between atoms: C_21  and  N_23
REMARK                            x       y       z     vdW  Elec       q    Type
REMARK                         _______ _______ _______ _____ _____    ______ ____
ROOT
ATOM      1  N   UNL     1      -2.442   8.098   0.055  0.00  0.00    -0.303 N 
ATOM      2  C   UNL     1      -1.266   7.441   0.030  0.00  0.00    +0.237 C 
ATOM      3  O   UNL     1      -0.221   8.063   0.016  0.00  0.00    -0.271 OA
ATOM      4  H   UNL     1      -3.275   7.601   0.066  0.00  0.00    +0.149 HD
ENDROOT
BRANCH   2   5
ATOM      5  C   UNL     1      -1.246   5.976   0.020  0.00  0.00    +0.068 C 
ATOM      6  C   UNL     1      -0.069   5.319  -0.005  0.00  0.00    +0.013 C 
BRANCH   6   7
ATOM      7  C   UNL     1      -0.049   3.847  -0.016  0.00  0.00    -0.023 A 
ATOM      8  C   UNL     1      -1.248   3.127   0.001  0.00  0.00    +0.008 A 
ATOM      9  C   UNL     1      -1.221   1.749  -0.014  0.00  0.00    +0.003 A 
ATOM     10  C   UNL     1      -0.011   1.077  -0.034  0.00  0.00    +0.033 A 
ATOM     11  C   UNL     1       1.180   1.782  -0.051  0.00  0.00    +0.127 A 
ATOM     12  C   UNL     1       1.169   3.161  -0.041  0.00  0.00    +0.040 A 
BRANCH  11  13
ATOM     13  N   UNL     1       2.468   1.054  -0.078  0.00  0.00    +0.056 N 
ATOM     14  O   UNL     1       2.480  -0.164  -0.085  0.00  0.00    -0.126 OA
ATOM     15  O   UNL     1       3.517   1.673  -0.092  0.00  0.00    -0.126 OA
ENDBRANCH  11  13
ENDBRANCH   6   7
ENDBRANCH   2   5
BRANCH   1  16
ATOM     16  C   UNL     1      -2.462   9.563   0.065  0.00  0.00    +0.200 C 
BRANCH  16  18
ATOM     17  N   UNL     1      -4.154  11.367   0.107  0.00  0.00    -0.284 N 
ATOM     18  C   UNL     1      -3.890  10.045   0.093  0.00  0.00    +0.234 C 
ATOM     19  O   UNL     1      -4.801   9.245   0.103  0.00  0.00    -0.274 OA
ATOM     20  H   UNL     1      -3.428  12.006   0.179  0.00  0.00    +0.155 HD
BRANCH  17  27
ATOM     21  C   UNL     1      -4.782  13.921   1.192  0.00  0.00    +0.046 C 
ATOM     22  C   UNL     1      -5.826  13.057   0.533  0.00  0.00    -0.028 A 
ATOM     23  C   UNL     1      -7.130  13.501   0.437  0.00  0.00    +0.020 A 
ATOM     24  C   UNL     1      -8.091  12.706  -0.163  0.00  0.00    +0.018 A 
ATOM     25  C   UNL     1      -7.746  11.467  -0.674  0.00  0.00    +0.017 A 
ATOM     26  C   UNL     1      -6.442  11.021  -0.586  0.00  0.00    +0.024 A 
ATOM     27  C   UNL     1      -5.476  11.817   0.016  0.00  0.00    +0.036 A 
ATOM     28 BR   UNL     1      -9.877  13.314  -0.285  0.00  0.00    -0.050 Br
ENDBRANCH  17  27
ENDBRANCH  16  18
ENDBRANCH   1  16
TORSDOF 6
