REMARK  Name = ZINC17672487
REMARK  17 active torsions:
REMARK  status: ('A' for Active; 'I' for Inactive)
REMARK    1  A    between atoms: C_1  and  C_2
REMARK    2  A    between atoms: C_2  and  O_3
REMARK    3  A    between atoms: O_3  and  C_4
REMARK    4  A    between atoms: C_4  and  C_6
REMARK    5  A    between atoms: C_7  and  C_30
REMARK    6  A    between atoms: C_8  and  C_29
REMARK    7  A    between atoms: C_10  and  N_11
REMARK    8  A    between atoms: C_12  and  C_14
REMARK    9  A    between atoms: C_14  and  O_15
REMARK   10  A    between atoms: O_15  and  C_16
REMARK   11  A    between atoms: C_16  and  C_18
REMARK   12  A    between atoms: C_19  and  C_28
REMARK   13  A    between atoms: C_20  and  C_27
REMARK   14  A    between atoms: C_21  and  C_26
REMARK   15  A    between atoms: C_22  and  C_25
REMARK   16  A    between atoms: C_23  and  C_24
REMARK   17  A    between atoms: C_30  and  C_32
REMARK                            x       y       z     vdW  Elec       q    Type
REMARK                         _______ _______ _______ _____ _____    ______ ____
ROOT
ATOM      1  N   UNL     1      -1.107  -0.827   0.009  0.00  0.00    -0.253 N 
ATOM      2  C   UNL     1      -2.344  -0.290   0.023  0.00  0.00    +0.257 C 
ATOM      3  O   UNL     1      -2.482   0.914   0.031  0.00  0.00    -0.272 OA
ATOM      4  H   UNL     1      -0.997  -1.790   0.003  0.00  0.00    +0.158 HD
ENDROOT
BRANCH   1   9
ATOM      5  C   UNL     1       1.320  -0.424  -0.013  0.00  0.00    +0.130 A 
ATOM      6  C   UNL     1       2.125   0.821  -0.014  0.00  0.00    +0.074 A 
ATOM      7  C   UNL     1       1.222   1.842   0.000  0.00  0.00    +0.116 A 
ATOM      8  O   UNL     1      -0.016   1.336   0.009  0.00  0.00    -0.445 OA
ATOM      9  C   UNL     1       0.002  -0.004   0.002  0.00  0.00    +0.207 A 
ATOM     10  C   UNL     1       1.565   3.309   0.004  0.00  0.00    +0.087 C 
BRANCH   6  11
ATOM     11  C   UNL     1       3.585   0.931  -0.028  0.00  0.00    +0.164 C 
ATOM     12  O   UNL     1       4.269  -0.072  -0.040  0.00  0.00    -0.292 OA
ATOM     13  C   UNL     1       4.239   2.288  -0.026  0.00  0.00    +0.092 C 
ENDBRANCH   6  11
BRANCH   5  14
ATOM     14  C   UNL     1       1.813  -1.802  -0.025  0.00  0.00    +0.345 C 
ATOM     15  O   UNL     1       2.009  -2.369  -1.083  0.00  0.00    -0.245 OA
BRANCH  14  16
ATOM     16  O   UNL     1       2.052  -2.443   1.138  0.00  0.00    -0.461 OA
BRANCH  16  18
ATOM     17  C   UNL     1       2.750  -4.365   2.460  0.00  0.00    +0.048 C 
ATOM     18  C   UNL     1       2.540  -3.808   1.051  0.00  0.00    +0.229 C 
ENDBRANCH  16  18
ENDBRANCH  14  16
ENDBRANCH   5  14
ENDBRANCH   1   9
BRANCH   2  19
ATOM     19  C   UNL     1      -3.554  -1.188   0.030  0.00  0.00    +0.328 C 
BRANCH  19  20
ATOM     20  O   UNL     1      -4.758  -0.376   0.046  0.00  0.00    -0.452 OA
BRANCH  20  21
ATOM     21  C   UNL     1      -5.936  -1.030   0.054  0.00  0.00    +0.340 C 
ATOM     22  O   UNL     1      -5.957  -2.244   0.048  0.00  0.00    -0.245 OA
BRANCH  21  23
ATOM     23  C   UNL     1      -7.203  -0.270   0.070  0.00  0.00    +0.065 A 
ATOM     24  C   UNL     1      -7.813   0.102  -1.129  0.00  0.00    -0.033 A 
ATOM     25  C   UNL     1      -8.998   0.809  -1.107  0.00  0.00    -0.044 A 
ATOM     26  C   UNL     1      -9.576   1.157   0.100  0.00  0.00    -0.044 A 
ATOM     27  C   UNL     1      -8.975   0.796   1.293  0.00  0.00    -0.044 A 
ATOM     28  C   UNL     1      -7.792   0.085   1.285  0.00  0.00    -0.033 A 
ATOM     29  C   UNL     1      -7.139  -0.307   2.585  0.00  0.00    +0.045 C 
ATOM     30  C   UNL     1      -9.613   1.180   2.603  0.00  0.00    +0.044 C 
ATOM     31  C   UNL     1     -10.868   1.933   0.117  0.00  0.00    +0.044 C 
ATOM     32  C   UNL     1      -9.660   1.206  -2.401  0.00  0.00    +0.044 C 
ATOM     33  C   UNL     1      -7.180  -0.271  -2.446  0.00  0.00    +0.045 C 
ENDBRANCH  21  23
ENDBRANCH  20  21
ENDBRANCH  19  20
ENDBRANCH   2  19
TORSDOF 9
