REMARK  Name = ZINC35034099
REMARK  12 active torsions:
REMARK  status: ('A' for Active; 'I' for Inactive)
REMARK    1  A    between atoms: C_1  and  C_2
REMARK    2  A    between atoms: C_2  and  C_3
REMARK    3  A    between atoms: C_3  and  C_5
REMARK    4  A    between atoms: C_3  and  N_17
REMARK    5  A    between atoms: N_15  and  C_16
REMARK    6  A    between atoms: N_17  and  C_18
REMARK    7  A    between atoms: C_18  and  C_19
REMARK    8  A    between atoms: C_19  and  N_20
REMARK    9  A    between atoms: N_20  and  C_21
REMARK   10  A    between atoms: N_20  and  C_22
REMARK   11  A    between atoms: N_25  and  C_26
REMARK   12  A    between atoms: C_29  and  C_32
REMARK                            x       y       z     vdW  Elec       q    Type
REMARK                         _______ _______ _______ _____ _____    ______ ____
ROOT
ATOM      1  N   UNL     1      -0.247   0.141   2.180  0.00  0.00    -0.277 N 
ATOM      2  C   UNL     1       0.328   1.222   2.743  0.00  0.00    +0.307 C 
ATOM      3  O   UNL     1       1.426   1.589   2.371  0.00  0.00    -0.252 OA
ATOM      4  N   UNL     1      -0.314   1.897   3.717  0.00  0.00    -0.269 N 
ATOM      5  H   UNL     1      -1.155   1.562   4.065  0.00  0.00    +0.156 HD
ENDROOT
BRANCH   4   6
ATOM      6  C   UNL     1       0.234   3.080   4.226  0.00  0.00    +0.035 A 
ATOM      7  C   UNL     1       0.066   3.405   5.565  0.00  0.00    +0.024 A 
ATOM      8  C   UNL     1       0.607   4.573   6.064  0.00  0.00    +0.014 A 
ATOM      9  C   UNL     1       1.316   5.420   5.232  0.00  0.00    +0.055 A 
ATOM     10  C   UNL     1       1.484   5.100   3.897  0.00  0.00    +0.014 A 
ATOM     11  C   UNL     1       0.950   3.930   3.393  0.00  0.00    +0.024 A 
BRANCH   9  12
ATOM     12  C   UNL     1       1.905   6.694   5.780  0.00  0.00    +0.417 C 
ATOM     13  F   UNL     1       3.201   6.446   6.244  0.00  0.00    -0.166 F 
ATOM     14  F   UNL     1       1.949   7.660   4.769  0.00  0.00    -0.166 F 
ATOM     15  F   UNL     1       1.113   7.158   6.835  0.00  0.00    -0.166 F 
ENDBRANCH   9  12
ENDBRANCH   4   6
BRANCH   1  16
ATOM     16  C   UNL     1       0.451  -0.592   1.121  0.00  0.00    +0.143 C 
BRANCH  16  17
ATOM     17  C   UNL     1       0.553  -2.047   1.501  0.00  0.00    +0.133 A 
ATOM     18  N   UNL     1      -0.234  -2.894   0.912  0.00  0.00    -0.232 NA
ATOM     19  C   UNL     1      -0.199  -4.219   1.203  0.00  0.00    +0.078 A 
ATOM     20  C   UNL     1      -1.046  -5.131   0.569  0.00  0.00    +0.028 A 
ATOM     21  C   UNL     1      -0.975  -6.467   0.895  0.00  0.00    +0.002 A 
ATOM     22  C   UNL     1      -0.071  -6.920   1.847  0.00  0.00    +0.001 A 
ATOM     23  C   UNL     1       0.774  -6.040   2.486  0.00  0.00    +0.015 A 
ATOM     24  C   UNL     1       0.719  -4.684   2.171  0.00  0.00    +0.065 A 
ATOM     25  C   UNL     1       1.596  -3.698   2.819  0.00  0.00    +0.262 A 
ATOM     26  O   UNL     1       2.409  -4.032   3.661  0.00  0.00    -0.267 OA
ATOM     27  N   UNL     1       1.469  -2.405   2.439  0.00  0.00    -0.298 N 
ATOM     28  C   UNL     1       2.322  -1.382   3.048  0.00  0.00    +0.154 C 
ENDBRANCH  16  17
BRANCH  16  30
ATOM     29  C   UNL     1      -0.351   1.005  -0.625  0.00  0.00    +0.006 C 
ATOM     30  C   UNL     1      -0.329  -0.461  -0.189  0.00  0.00    +0.027 C 
ENDBRANCH  16  30
ENDBRANCH   1  16
BRANCH   1  31
ATOM     31  C   UNL     1      -1.570  -0.301   2.628  0.00  0.00    +0.091 C 
BRANCH  31  32
ATOM     32  C   UNL     1      -1.419  -1.191   3.864  0.00  0.00    -0.060 C 
BRANCH  32  33
ATOM     33  N   UNL     1      -2.737  -1.706   4.259  0.00  0.00    +0.377 N 
ATOM     34  C   UNL     1      -3.254  -2.589   3.205  0.00  0.00    -0.097 C 
ATOM     35  C   UNL     1      -2.611  -2.462   5.513  0.00  0.00    -0.097 C 
ATOM     36  H   UNL     1      -3.373  -0.935   4.394  0.00  0.00    -0.083 HD
ENDBRANCH  32  33
ENDBRANCH  31  32
ENDBRANCH   1  31
TORSDOF 8
