REMARK  Name = ZINC39303739
REMARK  12 active torsions:
REMARK  status: ('A' for Active; 'I' for Inactive)
REMARK    1  A    between atoms: C_1  and  C_2
REMARK    2  A    between atoms: C_2  and  C_3
REMARK    3  A    between atoms: C_2  and  C_4
REMARK    4  A    between atoms: C_7  and  O_37
REMARK    5  A    between atoms: C_8  and  C_10
REMARK    6  A    between atoms: C_10  and  N_11
REMARK    7  A    between atoms: C_16  and  C_18
REMARK    8  A    between atoms: N_23  and  C_26
REMARK    9  A    between atoms: C_26  and  C_27
REMARK   10  A    between atoms: N_29  and  C_36
REMARK   11  A    between atoms: N_32  and  C_35
REMARK   12  A    between atoms: O_37  and  C_38
REMARK                            x       y       z     vdW  Elec       q    Type
REMARK                         _______ _______ _______ _____ _____    ______ ____
ROOT
ATOM      1  N   UNL     1      -3.599  -3.909  -1.950  0.00  0.00    +0.390 N 
ATOM      2  C   UNL     1      -2.243  -4.438  -1.761  0.00  0.00    -0.077 C 
ATOM      3  C   UNL     1      -2.301  -5.711  -0.914  0.00  0.00    -0.019 C 
ATOM      4  C   UNL     1      -3.162  -6.755  -1.630  0.00  0.00    -0.003 C 
ATOM      5  C   UNL     1      -4.552  -6.166  -1.888  0.00  0.00    -0.006 C 
ATOM      6  C   UNL     1      -4.411  -4.876  -2.699  0.00  0.00    +0.020 C 
ATOM      7  H   UNL     1      -4.022  -3.744  -1.048  0.00  0.00    -0.080 HD
ENDROOT
BRANCH   6   8
ATOM      8  C   UNL     1      -5.776  -4.292  -2.955  0.00  0.00    +0.202 C 
ATOM      9  O   UNL     1      -6.245  -3.484  -2.182  0.00  0.00    -0.277 OA
ATOM     10  N   UNL     1      -6.476  -4.669  -4.044  0.00  0.00    -0.300 N 
ATOM     11  C   UNL     1      -5.981  -5.734  -4.929  0.00  0.00    +0.123 C 
ATOM     12  C   UNL     1      -7.100  -6.760  -5.131  0.00  0.00    +0.103 C 
ATOM     13  N   UNL     1      -8.311  -6.073  -5.602  0.00  0.00    -0.295 NA
ATOM     14  C   UNL     1      -8.807  -5.120  -4.601  0.00  0.00    +0.103 C 
ATOM     15  C   UNL     1      -7.760  -4.031  -4.374  0.00  0.00    +0.123 C 
BRANCH  13  16
ATOM     16  C   UNL     1      -9.354  -7.039  -5.972  0.00  0.00    +0.126 C 
BRANCH  16  17
ATOM     17  C   UNL     1     -10.477  -6.321  -6.675  0.00  0.00    +0.047 A 
ATOM     18  C   UNL     1     -10.515  -6.265  -8.023  0.00  0.00    +0.100 A 
ATOM     19  N   UNL     1     -11.542  -5.609  -8.645  0.00  0.00    -0.303 N 
ATOM     20  C   UNL     1     -12.514  -5.019  -7.926  0.00  0.00    +0.331 A 
ATOM     21  O   UNL     1     -13.417  -4.441  -8.499  0.00  0.00    -0.246 OA
ATOM     22  N   UNL     1     -12.501  -5.060  -6.581  0.00  0.00    -0.264 N 
ATOM     23  C   UNL     1     -11.510  -5.702  -5.930  0.00  0.00    +0.261 A 
ATOM     24  O   UNL     1     -11.500  -5.744  -4.713  0.00  0.00    -0.267 OA
ATOM     25  C   UNL     1     -13.572  -4.410  -5.821  0.00  0.00    +0.157 C 
ATOM     26  C   UNL     1     -11.583  -5.548 -10.108  0.00  0.00    +0.153 C 
ENDBRANCH  16  17
ENDBRANCH  13  16
ENDBRANCH   6   8
BRANCH   1  27
ATOM     27  C   UNL     1      -3.531  -2.646  -2.696  0.00  0.00    -0.038 C 
BRANCH  27  32
ATOM     28  C   UNL     1      -0.858  -0.306  -1.418  0.00  0.00    -0.044 A 
ATOM     29  C   UNL     1      -1.498   0.291  -0.347  0.00  0.00    +0.007 A 
ATOM     30  C   UNL     1      -2.796  -0.060  -0.034  0.00  0.00    +0.046 A 
ATOM     31  C   UNL     1      -3.459  -1.013  -0.795  0.00  0.00    +0.121 A 
ATOM     32  C   UNL     1      -2.815  -1.611  -1.868  0.00  0.00    -0.022 A 
ATOM     33  C   UNL     1      -1.518  -1.252  -2.181  0.00  0.00    +0.009 A 
BRANCH  28  35
ATOM     34  C   UNL     1       0.620   1.575  -2.071  0.00  0.00    +0.012 C 
ATOM     35  C   UNL     1       0.559   0.078  -1.757  0.00  0.00    +0.013 C 
ATOM     36  C   UNL     1       1.470  -0.231  -0.568  0.00  0.00    +0.012 C 
ENDBRANCH  28  35
BRANCH  31  37
ATOM     37  O   UNL     1      -4.736  -1.361  -0.488  0.00  0.00    -0.495 OA
ATOM     38  C   UNL     1      -5.336  -0.705   0.631  0.00  0.00    +0.277 C 
ENDBRANCH  31  37
ENDBRANCH  27  32
ENDBRANCH   1  27
TORSDOF 7
