REMARK  Name = ZINC13314212
REMARK  11 active torsions:
REMARK  status: ('A' for Active; 'I' for Inactive)
REMARK    1  A    between atoms: C_1  and  O_2
REMARK    2  A    between atoms: O_2  and  C_3
REMARK    3  A    between atoms: C_5  and  C_14
REMARK    4  A    between atoms: C_6  and  N_11
REMARK    5  A    between atoms: C_8  and  O_9
REMARK    6  A    between atoms: O_9  and  C_10
REMARK    7  A    between atoms: C_14  and  C_15
REMARK    8  A    between atoms: C_15  and  N_16
REMARK    9  A    between atoms: N_16  and  S_17
REMARK   10  A    between atoms: S_17  and  C_20
REMARK   11  A    between atoms: C_22  and  C_27
REMARK                            x       y       z     vdW  Elec       q    Type
REMARK                         _______ _______ _______ _____ _____    ______ ____
ROOT
ATOM      1  C   UNL     1      -0.792   4.065  -1.899  0.00  0.00    +0.110 C 
ENDROOT
BRANCH   1   2
ATOM      2  N   UNL     1       0.613   4.296  -1.552  0.00  0.00    -0.190 NA
ATOM      3  H   UNL     1       1.214   4.691  -2.202  0.00  0.00    +0.148 HD
BRANCH   2   4
ATOM      4  S   UNL     1       1.173   3.880  -0.050  0.00  0.00    +0.059 S 
ATOM      5  O   UNL     1       0.267   4.440   0.891  0.00  0.00    -0.153 OA
ATOM      6  O   UNL     1       2.563   4.177  -0.039  0.00  0.00    -0.153 OA
BRANCH   4   7
ATOM      7  C   UNL     1       1.031   2.130   0.093  0.00  0.00    +0.120 A 
ATOM      8  C   UNL     1       0.183   1.583   1.034  0.00  0.00    +0.044 A 
ATOM      9  C   UNL     1       0.071   0.196   1.146  0.00  0.00    +0.065 A 
ATOM     10  C   UNL     1       0.820  -0.630   0.304  0.00  0.00    +0.016 A 
ATOM     11  C   UNL     1       1.664  -0.071  -0.632  0.00  0.00    +0.018 A 
ATOM     12  C   UNL     1       1.771   1.306  -0.738  0.00  0.00    +0.044 A 
ATOM     13 BR   UNL     1       2.937   2.064  -2.019  0.00  0.00    -0.048 Br
BRANCH   9  14
ATOM     14  C   UNL     1      -0.836  -0.396   2.150  0.00  0.00    +0.387 C 
ATOM     15  O   UNL     1      -1.486   0.324   2.881  0.00  0.00    -0.241 OA
ATOM     16  O   UNL     1      -0.941  -1.735   2.256  0.00  0.00    -0.241 OA
ENDBRANCH   9  14
ENDBRANCH   4   7
ENDBRANCH   2   4
ENDBRANCH   1   2
BRANCH   1  17
ATOM     17  C   UNL     1      -1.152   4.886  -3.139  0.00  0.00    +0.054 C 
BRANCH  17  20
ATOM     18  C   UNL     1      -4.890   5.346  -3.440  0.00  0.00    +0.162 A 
ATOM     19  C   UNL     1      -3.561   5.562  -3.112  0.00  0.00    +0.055 A 
ATOM     20  C   UNL     1      -2.597   4.649  -3.496  0.00  0.00    -0.012 A 
ATOM     21  C   UNL     1      -2.955   3.522  -4.212  0.00  0.00    +0.133 A 
ATOM     22  C   UNL     1      -4.279   3.297  -4.538  0.00  0.00    +0.082 A 
ATOM     23  C   UNL     1      -5.250   4.209  -4.156  0.00  0.00    +0.164 A 
BRANCH  21  24
ATOM     24  N   UNL     1      -1.918   2.550  -4.625  0.00  0.00    +0.057 N 
ATOM     25  O   UNL     1      -2.215   1.610  -5.342  0.00  0.00    -0.126 OA
ATOM     26  O   UNL     1      -0.768   2.689  -4.249  0.00  0.00    -0.126 OA
ENDBRANCH  21  24
BRANCH  18  28
ATOM     27  C   UNL     1      -5.396   7.388  -2.330  0.00  0.00    +0.277 C 
ATOM     28  O   UNL     1      -5.839   6.244  -3.063  0.00  0.00    -0.491 OA
ENDBRANCH  18  28
BRANCH  23  29
ATOM     29  O   UNL     1      -6.553   3.992  -4.480  0.00  0.00    -0.491 OA
ATOM     30  C   UNL     1      -6.850   2.804  -5.215  0.00  0.00    +0.277 C 
ENDBRANCH  23  29
ENDBRANCH  17  20
ENDBRANCH   1  17
TORSDOF 9
