REMARK  Name = ZINC63351038
REMARK  13 active torsions:
REMARK  status: ('A' for Active; 'I' for Inactive)
REMARK    1  A    between atoms: C_1  and  C_2
REMARK    2  A    between atoms: C_6  and  C_11
REMARK    3  A    between atoms: C_12  and  O_14
REMARK    4  A    between atoms: O_14  and  C_15
REMARK    5  A    between atoms: C_15  and  C_17
REMARK    6  A    between atoms: C_17  and  C_19
REMARK    7  A    between atoms: C_17  and  N_29
REMARK    8  A    between atoms: C_19  and  C_20
REMARK    9  A    between atoms: C_30  and  O_32
REMARK   10  A    between atoms: O_32  and  C_33
REMARK   11  A    between atoms: C_33  and  C_34
REMARK   12  A    between atoms: C_33  and  C_35
REMARK   13  A    between atoms: C_33  and  C_36
REMARK                            x       y       z     vdW  Elec       q    Type
REMARK                         _______ _______ _______ _____ _____    ______ ____
ROOT
ATOM      1  C   UNL     1       0.156  -2.697   4.852  0.00  0.00    +0.189 C 
ENDROOT
BRANCH   1   2
ATOM      2  N   UNL     1       0.468  -1.683   5.862  0.00  0.00    -0.268 N 
ATOM      3  C   UNL     1      -0.384  -0.660   6.076  0.00  0.00    +0.401 C 
ATOM      4  O   UNL     1      -1.411  -0.580   5.431  0.00  0.00    -0.226 OA
ATOM      5  H   UNL     1       1.287  -1.747   6.377  0.00  0.00    +0.153 HD
BRANCH   3   6
ATOM      6  O   UNL     1      -0.097   0.272   7.004  0.00  0.00    -0.445 OA
BRANCH   6   7
ATOM      7  C   UNL     1      -1.045   1.327   7.178  0.00  0.00    +0.107 C 
ATOM      8  C   UNL     1      -2.395   0.738   7.590  0.00  0.00    +0.055 C 
ATOM      9  C   UNL     1      -0.551   2.282   8.267  0.00  0.00    +0.055 C 
ATOM     10  C   UNL     1      -1.203   2.092   5.862  0.00  0.00    +0.055 C 
ENDBRANCH   6   7
ENDBRANCH   3   6
ENDBRANCH   1   2
BRANCH   1  11
ATOM     11  C   UNL     1       0.030  -2.039   3.502  0.00  0.00    +0.333 C 
ATOM     12  O   UNL     1      -0.176  -0.851   3.425  0.00  0.00    -0.248 OA
BRANCH  11  13
ATOM     13  O   UNL     1       0.148  -2.774   2.384  0.00  0.00    -0.424 OA
BRANCH  13  25
ATOM     14  C   UNL     1      -2.397  -1.033  -1.395  0.00  0.00    +0.044 C 
ATOM     15  C   UNL     1      -1.085  -1.254  -0.688  0.00  0.00    -0.043 A 
ATOM     16  C   UNL     1       0.085  -0.795  -1.260  0.00  0.00    +0.050 A 
ATOM     17  C   UNL     1       1.299  -0.994  -0.617  0.00  0.00    +0.143 A 
ATOM     18  C   UNL     1       1.326  -1.664   0.619  0.00  0.00    +0.063 A 
ATOM     19  C   UNL     1       2.611  -1.868   1.288  0.00  0.00    -0.030 A 
ATOM     20  C   UNL     1       3.732  -1.398   0.682  0.00  0.00    +0.096 A 
ATOM     21  C   UNL     1       3.632  -0.734  -0.559  0.00  0.00    +0.337 A 
ATOM     22  O   UNL     1       4.645  -0.317  -1.092  0.00  0.00    -0.245 OA
ATOM     23  O   UNL     1       2.450  -0.551  -1.167  0.00  0.00    -0.422 OA
ATOM     24  C   UNL     1       2.689  -2.580   2.614  0.00  0.00    +0.045 C 
ATOM     25  C   UNL     1       0.131  -2.126   1.191  0.00  0.00    +0.143 A 
ATOM     26  C   UNL     1      -1.067  -1.910   0.532  0.00  0.00    +0.050 A 
ENDBRANCH  13  25
ENDBRANCH  11  13
ENDBRANCH   1  11
BRANCH   1  27
ATOM     27  C   UNL     1      -1.164  -3.384   5.209  0.00  0.00    +0.067 C 
BRANCH  27  28
ATOM     28  C   UNL     1      -1.001  -4.144   6.500  0.00  0.00    -0.039 C 
ATOM     29  C   UNL     1      -1.313  -3.711   7.743  0.00  0.00    -0.001 A 
ATOM     30  C   UNL     1      -1.874  -2.451   8.246  0.00  0.00    +0.010 A 
ATOM     31  C   UNL     1      -2.078  -2.309   9.576  0.00  0.00    +0.001 A 
ATOM     32  C   UNL     1      -1.768  -3.331  10.483  0.00  0.00    +0.002 A 
ATOM     33  C   UNL     1      -1.249  -4.516  10.097  0.00  0.00    +0.026 A 
ATOM     34  C   UNL     1      -0.994  -4.775   8.722  0.00  0.00    +0.043 A 
ATOM     35  N   UNL     1      -0.504  -5.825   8.108  0.00  0.00    -0.380 N 
ATOM     36  C   UNL     1      -0.463  -5.547   6.668  0.00  0.00    +0.144 C 
ATOM     37  H   UNL     1      -0.220  -6.649   8.534  0.00  0.00    +0.160 HD
ENDBRANCH  27  28
ENDBRANCH   1  27
TORSDOF 8
