REMARK  Name = ZINC35829459
REMARK  8 active torsions:
REMARK  status: ('A' for Active; 'I' for Inactive)
REMARK    1  A    between atoms: C_1  and  C_2
REMARK    2  A    between atoms: C_5  and  C_8
REMARK    3  A    between atoms: C_8  and  N_9
REMARK    4  A    between atoms: C_13  and  C_14
REMARK    5  A    between atoms: C_15  and  C_28
REMARK    6  A    between atoms: N_17  and  C_20
REMARK    7  A    between atoms: C_24  and  C_27
REMARK    8  A    between atoms: C_25  and  C_26
REMARK                            x       y       z     vdW  Elec       q    Type
REMARK                         _______ _______ _______ _____ _____    ______ ____
ROOT
ATOM      1  C   UNL     1       5.915  -6.248  -1.038  0.00  0.00    +0.071 A 
ATOM      2  C   UNL     1       6.672  -7.484  -1.278  0.00  0.00    +0.104 A 
ATOM      3  N   UNL     1       7.688  -7.484  -0.446  0.00  0.00    -0.162 NA
ATOM      4  N   UNL     1       7.652  -6.323   0.331  0.00  0.00    -0.195 N 
ATOM      5  C   UNL     1       6.589  -5.571  -0.025  0.00  0.00    +0.281 A 
ATOM      6  O   UNL     1       6.240  -4.377   0.508  0.00  0.00    -0.265 OA
ENDROOT
BRANCH   1  11
ATOM      7  N   UNL     1       1.597  -4.654  -0.466  0.00  0.00    -0.216 N 
ATOM      8  C   UNL     1       2.374  -4.955  -1.524  0.00  0.00    +0.269 C 
ATOM      9  O   UNL     1       2.067  -4.860  -2.698  0.00  0.00    -0.268 OA
ATOM     10  C   UNL     1       3.620  -5.405  -1.011  0.00  0.00    +0.099 C 
ATOM     11  C   UNL     1       4.702  -5.813  -1.729  0.00  0.00    +0.044 C 
ATOM     12  N   UNL     1       3.507  -5.342   0.387  0.00  0.00    -0.265 N 
ATOM     13  C   UNL     1       2.275  -4.879   0.672  0.00  0.00    +0.313 C 
ATOM     14  O   UNL     1       1.840  -4.696   1.793  0.00  0.00    -0.252 OA
ATOM     15  H   UNL     1       4.192  -5.584   1.030  0.00  0.00    +0.157 HD
BRANCH   7  16
ATOM     16  C   UNL     1       0.223  -4.150  -0.544  0.00  0.00    +0.153 C 
BRANCH  16  21
ATOM     17  C   UNL     1       0.293   1.624  -0.751  0.00  0.00    +0.044 C 
ATOM     18  C   UNL     1       0.275   0.118  -0.697  0.00  0.00    -0.050 A 
ATOM     19  C   UNL     1       0.320  -0.616  -1.867  0.00  0.00    +0.003 A 
ATOM     20  C   UNL     1       0.303  -1.997  -1.818  0.00  0.00    +0.005 A 
ATOM     21  C   UNL     1       0.242  -2.644  -0.598  0.00  0.00    -0.030 A 
ATOM     22  C   UNL     1       0.199  -1.910   0.573  0.00  0.00    +0.005 A 
ATOM     23  C   UNL     1       0.220  -0.529   0.523  0.00  0.00    +0.003 A 
ENDBRANCH  16  21
ENDBRANCH   7  16
ENDBRANCH   1  11
BRANCH   4  24
ATOM     24  C   UNL     1       8.581  -5.988   1.324  0.00  0.00    +0.072 A 
ATOM     25  C   UNL     1       9.136  -4.715   1.357  0.00  0.00    +0.028 A 
ATOM     26  C   UNL     1      10.051  -4.388   2.337  0.00  0.00    +0.002 A 
ATOM     27  C   UNL     1      10.416  -5.326   3.286  0.00  0.00    +0.004 A 
ATOM     28  C   UNL     1       9.866  -6.594   3.256  0.00  0.00    -0.046 A 
ATOM     29  C   UNL     1       8.945  -6.926   2.281  0.00  0.00    -0.022 A 
ATOM     30  C   UNL     1       8.341  -8.306   2.252  0.00  0.00    +0.046 C 
ATOM     31  C   UNL     1      10.266  -7.613   4.292  0.00  0.00    +0.044 C 
ENDBRANCH   4  24
BRANCH   2  32
ATOM     32  C   UNL     1       6.348  -8.535  -2.272  0.00  0.00    +0.003 A 
ATOM     33  C   UNL     1       5.019  -8.838  -2.562  0.00  0.00    +0.010 A 
ATOM     34  C   UNL     1       4.724  -9.817  -3.489  0.00  0.00    +0.001 A 
ATOM     35  C   UNL     1       5.745 -10.497  -4.130  0.00  0.00    +0.000 A 
ATOM     36  C   UNL     1       7.066 -10.201  -3.845  0.00  0.00    +0.001 A 
ATOM     37  C   UNL     1       7.373  -9.220  -2.925  0.00  0.00    +0.010 A 
ENDBRANCH   2  32
TORSDOF 5
