REMARK  Name = ZINC40983915
REMARK  12 active torsions:
REMARK  status: ('A' for Active; 'I' for Inactive)
REMARK    1  A    between atoms: C_1  and  C_2
REMARK    2  A    between atoms: C_5  and  N_8
REMARK    3  A    between atoms: C_13  and  C_15
REMARK    4  A    between atoms: C_16  and  C_18
REMARK    5  A    between atoms: N_21  and  C_24
REMARK    6  A    between atoms: C_24  and  C_25
REMARK    7  A    between atoms: C_26  and  C_40
REMARK    8  A    between atoms: C_28  and  C_30
REMARK    9  A    between atoms: C_33  and  O_36
REMARK   10  A    between atoms: O_36  and  C_37
REMARK   11  A    between atoms: C_37  and  C_38
REMARK   12  A    between atoms: C_37  and  C_39
REMARK                            x       y       z     vdW  Elec       q    Type
REMARK                         _______ _______ _______ _____ _____    ______ ____
ROOT
ATOM      1  C   UNL     1      -1.189  -8.967  -1.241  0.00  0.00    +0.072 C 
ATOM      2  C   UNL     1      -2.517  -8.807  -1.986  0.00  0.00    -0.006 C 
ATOM      3  C   UNL     1      -2.457  -9.593  -3.298  0.00  0.00    -0.078 C 
ATOM      4  N   UNL     1      -2.223 -11.013  -3.011  0.00  0.00    +0.383 N 
ATOM      5  C   UNL     1      -0.919 -11.182  -2.360  0.00  0.00    -0.078 C 
ATOM      6  C   UNL     1      -0.919 -10.457  -1.013  0.00  0.00    -0.006 C 
ATOM      7  H   UNL     1      -2.950 -11.356  -2.401  0.00  0.00    -0.081 HD
ENDROOT
BRANCH   1  15
ATOM      8  N   UNL     1       0.079  -4.508   0.215  0.00  0.00    -0.324 N 
ATOM      9  C   UNL     1       0.030  -5.205  -1.078  0.00  0.00    +0.124 C 
ATOM     10  C   UNL     1      -1.202  -6.118  -1.095  0.00  0.00    +0.126 C 
ATOM     11  N   UNL     1      -1.214  -6.915   0.140  0.00  0.00    -0.298 N 
ATOM     12  C   UNL     1      -1.164  -6.218   1.433  0.00  0.00    +0.130 C 
ATOM     13  C   UNL     1       0.074  -5.304   1.450  0.00  0.00    +0.088 C 
ATOM     14  C   UNL     1       0.010  -4.373   2.662  0.00  0.00    +0.029 C 
ATOM     15  C   UNL     1      -1.269  -8.260   0.088  0.00  0.00    +0.219 C 
ATOM     16  O   UNL     1      -1.383  -8.903   1.111  0.00  0.00    -0.275 OA
BRANCH   8  21
ATOM     17  C   UNL     1       0.312   1.154   0.435  0.00  0.00    +0.044 C 
ATOM     18  C   UNL     1       0.251  -0.351   0.376  0.00  0.00    -0.050 A 
ATOM     19  C   UNL     1      -0.890  -0.977  -0.092  0.00  0.00    +0.005 A 
ATOM     20  C   UNL     1      -0.950  -2.355  -0.147  0.00  0.00    +0.023 A 
ATOM     21  C   UNL     1       0.137  -3.113   0.269  0.00  0.00    +0.030 A 
ATOM     22  C   UNL     1       1.281  -2.481   0.738  0.00  0.00    +0.023 A 
ATOM     23  C   UNL     1       1.337  -1.102   0.785  0.00  0.00    +0.005 A 
ENDBRANCH   8  21
ENDBRANCH   1  15
BRANCH   4  24
ATOM     24  C   UNL     1      -2.244 -11.775  -4.267  0.00  0.00    -0.019 C 
BRANCH  24  25
ATOM     25  C   UNL     1      -2.127 -13.246  -3.965  0.00  0.00    +0.066 A 
ATOM     26  C   UNL     1      -0.982 -13.945  -3.863  0.00  0.00    +0.124 A 
ATOM     27  O   UNL     1      -1.316 -15.222  -3.584  0.00  0.00    -0.440 OA
ATOM     28  C   UNL     1      -2.657 -15.289  -3.518  0.00  0.00    +0.228 A 
ATOM     29  N   UNL     1      -3.146 -14.091  -3.743  0.00  0.00    -0.216 NA
ATOM     30  C   UNL     1       0.414 -13.403  -4.030  0.00  0.00    +0.088 C 
BRANCH  28  31
ATOM     31  C   UNL     1      -3.447 -16.504  -3.235  0.00  0.00    +0.037 A 
ATOM     32  C   UNL     1      -4.842 -16.441  -3.201  0.00  0.00    +0.017 A 
ATOM     33  C   UNL     1      -5.575 -17.577  -2.936  0.00  0.00    +0.046 A 
ATOM     34  C   UNL     1      -4.929 -18.784  -2.704  0.00  0.00    +0.121 A 
ATOM     35  C   UNL     1      -3.542 -18.852  -2.736  0.00  0.00    +0.046 A 
ATOM     36  C   UNL     1      -2.802 -17.721  -3.005  0.00  0.00    +0.017 A 
BRANCH  34  37
ATOM     37  O   UNL     1      -5.656 -19.902  -2.443  0.00  0.00    -0.489 OA
BRANCH  37  38
ATOM     38  C   UNL     1      -7.079 -19.779  -2.501  0.00  0.00    +0.167 C 
ATOM     39  C   UNL     1      -7.697 -21.145  -2.805  0.00  0.00    +0.051 C 
ATOM     40  C   UNL     1      -7.601 -19.271  -1.155  0.00  0.00    +0.051 C 
ENDBRANCH  37  38
ENDBRANCH  34  37
ENDBRANCH  28  31
ENDBRANCH  24  25
ENDBRANCH   4  24
TORSDOF 7
