REMARK  Name = ZINC13052242
REMARK  10 active torsions:
REMARK  status: ('A' for Active; 'I' for Inactive)
REMARK    1  A    between atoms: C_1  and  C_2
REMARK    2  A    between atoms: C_2  and  C_4
REMARK    3  A    between atoms: C_2  and  O_35
REMARK    4  A    between atoms: C_4  and  N_5
REMARK    5  A    between atoms: C_11  and  C_32
REMARK    6  A    between atoms: C_15  and  S_16
REMARK    7  A    between atoms: S_16  and  C_17
REMARK    8  A    between atoms: C_17  and  C_18
REMARK    9  A    between atoms: N_20  and  C_21
REMARK   10  A    between atoms: N_20  and  C_29
REMARK                            x       y       z     vdW  Elec       q    Type
REMARK                         _______ _______ _______ _____ _____    ______ ____
ROOT
ATOM      1  N   UNL     1       1.587  -2.610   2.280  0.00  0.00    -0.285 N 
ATOM      2  C   UNL     1       0.818  -3.495   2.954  0.00  0.00    +0.262 A 
ATOM      3  O   UNL     1      -0.088  -3.123   3.675  0.00  0.00    -0.267 OA
ATOM      4  C   UNL     1       1.118  -4.927   2.782  0.00  0.00    +0.065 A 
ATOM      5  C   UNL     1       0.379  -5.912   3.436  0.00  0.00    +0.016 A 
ATOM      6  C   UNL     1       0.687  -7.229   3.250  0.00  0.00    +0.016 A 
ATOM      7  C   UNL     1       1.742  -7.603   2.407  0.00  0.00    +0.065 A 
ATOM      8  C   UNL     1       2.492  -6.637   1.746  0.00  0.00    +0.043 A 
ATOM      9  C   UNL     1       2.185  -5.286   1.928  0.00  0.00    +0.080 A 
ATOM     10  N   UNL     1       2.887  -4.311   1.304  0.00  0.00    -0.223 NA
ATOM     11  C   UNL     1       2.598  -3.044   1.470  0.00  0.00    +0.173 A 
ENDROOT
BRANCH   7  12
ATOM     12  C   UNL     1       2.061  -9.034   2.220  0.00  0.00    +0.387 C 
ATOM     13  O   UNL     1       1.404  -9.887   2.799  0.00  0.00    -0.241 OA
ATOM     14  O   UNL     1       2.980  -9.365   1.485  0.00  0.00    -0.241 OA
ENDBRANCH   7  12
BRANCH   1  15
ATOM     15  C   UNL     1       1.331  -1.174   2.415  0.00  0.00    +0.158 C 
BRANCH  15  17
ATOM     16  C   UNL     1       0.151   0.786   1.411  0.00  0.00    +0.039 C 
ATOM     17  C   UNL     1       0.325  -0.733   1.351  0.00  0.00    +0.131 C 
BRANCH  17  18
ATOM     18  O   UNL     1      -0.933  -1.366   1.593  0.00  0.00    -0.390 OA
ATOM     19  H   UNL     1      -1.319  -1.157   2.454  0.00  0.00    +0.210 HD
ENDBRANCH  17  18
ENDBRANCH  15  17
ENDBRANCH   1  15
BRANCH  11  20
ATOM     20  S   UNL     1       3.561  -1.843   0.612  0.00  0.00    -0.078 S 
BRANCH  20  21
ATOM     21  C   UNL     1       4.760  -2.831  -0.325  0.00  0.00    +0.173 C 
BRANCH  21  22
ATOM     22  C   UNL     1       5.658  -1.914  -1.115  0.00  0.00    +0.226 C 
ATOM     23  O   UNL     1       5.504  -0.713  -1.052  0.00  0.00    -0.275 OA
ATOM     24  N   UNL     1       6.633  -2.429  -1.890  0.00  0.00    -0.293 N 
BRANCH  24  25
ATOM     25  C   UNL     1       7.574  -1.537  -2.572  0.00  0.00    +0.099 C 
ATOM     26  C   UNL     1       8.319  -0.679  -1.537  0.00  0.00    +0.046 C 
ATOM     27  C   UNL     1       9.068   0.474  -2.248  0.00  0.00    +0.168 C 
ATOM     28  S   UNL     1       8.044   0.755  -3.750  0.00  0.00    -0.029 S 
ATOM     29  O   UNL     1       7.396   2.014  -3.638  0.00  0.00    -0.174 OA
ATOM     30  O   UNL     1       8.826   0.471  -4.902  0.00  0.00    -0.174 OA
ATOM     31  C   UNL     1       6.798  -0.583  -3.524  0.00  0.00    +0.188 C 
ENDBRANCH  24  25
BRANCH  24  32
ATOM     32  C   UNL     1       6.751  -3.880  -2.051  0.00  0.00    +0.077 C 
ATOM     33  C   UNL     1       8.050  -4.421  -2.652  0.00  0.00    +0.024 C 
ATOM     34  C   UNL     1       6.761  -4.434  -3.478  0.00  0.00    +0.024 C 
ENDBRANCH  24  32
ENDBRANCH  21  22
ENDBRANCH  20  21
ENDBRANCH  11  20
TORSDOF 9
