REMARK  Name = ZINC09495074
REMARK  8 active torsions:
REMARK  status: ('A' for Active; 'I' for Inactive)
REMARK    1  A    between atoms: C_1  and  C_2
REMARK    2  A    between atoms: C_9  and  N_14
REMARK    3  A    between atoms: C_10  and  C_11
REMARK    4  A    between atoms: C_15  and  C_17
REMARK    5  A    between atoms: C_20  and  S_23
REMARK    6  A    between atoms: S_23  and  N_26
REMARK    7  A    between atoms: N_26  and  C_27
REMARK    8  A    between atoms: N_26  and  C_28
REMARK                            x       y       z     vdW  Elec       q    Type
REMARK                         _______ _______ _______ _____ _____    ______ ____
ROOT
ATOM      1  N   UNL     1       2.847  -5.799  -0.975  0.00  0.00    -0.275 N 
ATOM      2  C   UNL     1       3.082  -5.949  -2.293  0.00  0.00    +0.249 C 
ATOM      3  O   UNL     1       3.164  -4.971  -3.011  0.00  0.00    -0.270 OA
ATOM      4  H   UNL     1       2.782  -6.579  -0.402  0.00  0.00    +0.156 HD
ENDROOT
BRANCH   1  12
ATOM      5  C   UNL     1       1.977   1.519   1.645  0.00  0.00    +0.008 C 
ATOM      6  C   UNL     1       1.784   0.011   1.466  0.00  0.00    -0.009 C 
ATOM      7  C   UNL     1       2.468  -0.734   2.616  0.00  0.00    +0.008 C 
ATOM      8  C   UNL     1       2.075  -2.212   2.584  0.00  0.00    +0.037 C 
ATOM      9  C   UNL     1       2.341  -2.760   1.187  0.00  0.00    -0.023 A 
ATOM     10  C   UNL     1       2.487  -1.931   0.131  0.00  0.00    -0.004 A 
ATOM     11  S   UNL     1       2.773  -3.002  -1.249  0.00  0.00    -0.077 S 
ATOM     12  C   UNL     1       2.700  -4.530  -0.437  0.00  0.00    +0.085 A 
ATOM     13  C   UNL     1       2.456  -4.176   0.882  0.00  0.00    +0.068 A 
ATOM     14  C   UNL     1       2.419  -0.435   0.141  0.00  0.00    +0.046 C 
BRANCH  13  15
ATOM     15  C   UNL     1       2.318  -5.192   1.930  0.00  0.00    +0.244 C 
ATOM     16  O   UNL     1       1.224  -5.660   2.185  0.00  0.00    -0.270 OA
ATOM     17  N   UNL     1       3.405  -5.610   2.610  0.00  0.00    -0.325 N 
ATOM     18  H   UNL     1       4.277  -5.237   2.407  0.00  0.00    +0.145 HD
ATOM     19  H   UNL     1       3.314  -6.282   3.303  0.00  0.00    +0.145 HD
ENDBRANCH  13  15
ENDBRANCH   1  12
BRANCH   2  20
ATOM     20  C   UNL     1       3.239  -7.302  -2.867  0.00  0.00    +0.037 A 
ATOM     21  C   UNL     1       3.151  -8.427  -2.044  0.00  0.00    +0.015 A 
ATOM     22  C   UNL     1       3.295  -9.687  -2.587  0.00  0.00    +0.029 A 
ATOM     23  C   UNL     1       3.535  -9.837  -3.941  0.00  0.00    +0.109 A 
ATOM     24  C   UNL     1       3.629  -8.727  -4.761  0.00  0.00    +0.029 A 
ATOM     25  C   UNL     1       3.482  -7.461  -4.232  0.00  0.00    +0.015 A 
BRANCH  23  26
ATOM     26  S   UNL     1       3.724 -11.450  -4.624  0.00  0.00    +0.074 S 
ATOM     27  O   UNL     1       3.051 -12.344  -3.748  0.00  0.00    -0.150 OA
ATOM     28  O   UNL     1       3.398 -11.348  -6.004  0.00  0.00    -0.150 OA
BRANCH  26  29
ATOM     29  N   UNL     1       5.333 -11.831  -4.545  0.00  0.00    -0.206 N 
ATOM     30  C   UNL     1       5.893 -12.395  -3.314  0.00  0.00    +0.157 C 
BRANCH  29  31
ATOM     31  C   UNL     1       6.158 -11.614  -5.652  0.00  0.00    +0.051 A 
ATOM     32  C   UNL     1       5.893 -12.258  -6.854  0.00  0.00    +0.025 A 
ATOM     33  C   UNL     1       6.707 -12.037  -7.947  0.00  0.00    +0.002 A 
ATOM     34  C   UNL     1       7.791 -11.185  -7.843  0.00  0.00    +0.000 A 
ATOM     35  C   UNL     1       8.060 -10.546  -6.647  0.00  0.00    +0.002 A 
ATOM     36  C   UNL     1       7.247 -10.758  -5.551  0.00  0.00    +0.025 A 
ENDBRANCH  29  31
ENDBRANCH  26  29
ENDBRANCH  23  26
ENDBRANCH   2  20
TORSDOF 6
