REMARK  Name = ZINC09957008
REMARK  9 active torsions:
REMARK  status: ('A' for Active; 'I' for Inactive)
REMARK    1  A    between atoms: C_1  and  C_2
REMARK    2  A    between atoms: C_5  and  O_33
REMARK    3  A    between atoms: C_6  and  N_8
REMARK    4  A    between atoms: C_9  and  S_13
REMARK    5  A    between atoms: S_13  and  C_14
REMARK    6  A    between atoms: C_14  and  C_16
REMARK    7  A    between atoms: C_14  and  C_17
REMARK    8  A    between atoms: C_23  and  C_28
REMARK    9  A    between atoms: O_33  and  C_34
REMARK                            x       y       z     vdW  Elec       q    Type
REMARK                         _______ _______ _______ _____ _____    ______ ____
ROOT
ATOM      1  C   UNL     1      -5.341   6.940  -3.272  0.00  0.00    +0.117 C 
ATOM      2  C   UNL     1      -4.511   7.609  -4.370  0.00  0.00    +0.027 C 
ENDROOT
BRANCH   1   3
ATOM      3  C   UNL     1      -4.426   6.187  -2.341  0.00  0.00    +0.124 A 
ATOM      4  N   UNL     1      -4.213   4.862  -2.542  0.00  0.00    -0.309 N 
ATOM      5  H   UNL     1      -4.653   4.416  -3.283  0.00  0.00    +0.170 HD
ATOM      6  C   UNL     1      -3.405   4.153  -1.732  0.00  0.00    +0.260 A 
ATOM      7  O   UNL     1      -3.224   2.963  -1.926  0.00  0.00    -0.267 OA
ATOM      8  C   UNL     1      -2.761   4.817  -0.640  0.00  0.00    +0.080 A 
ATOM      9  C   UNL     1      -1.851   4.274   0.363  0.00  0.00    +0.010 A 
ATOM     10  C   UNL     1      -1.363   5.106   1.317  0.00  0.00    +0.057 A 
ATOM     11  S   UNL     1      -2.099   6.678   0.910  0.00  0.00    -0.076 S 
ATOM     12  C   UNL     1      -3.040   6.187  -0.511  0.00  0.00    +0.116 A 
ATOM     13  N   UNL     1      -3.853   6.821  -1.353  0.00  0.00    -0.225 NA
BRANCH   9  14
ATOM     14  C   UNL     1      -1.473   2.846   0.343  0.00  0.00    +0.021 A 
ATOM     15  C   UNL     1      -0.226   2.283   0.403  0.00  0.00    +0.016 A 
ATOM     16  C   UNL     1      -0.118   0.908   0.368  0.00  0.00    +0.008 A 
ATOM     17  C   UNL     1      -1.246   0.159   0.276  0.00  0.00    +0.046 A 
ATOM     18  S   UNL     1      -2.522   1.406   0.228  0.00  0.00    -0.097 S 
ENDBRANCH   9  14
ENDBRANCH   1   3
BRANCH   1  19
ATOM     19  S   UNL     1      -6.242   8.204  -2.342  0.00  0.00    -0.073 S 
BRANCH  19  21
ATOM     20  N   UNL     1      -8.238   9.792  -3.476  0.00  0.00    -0.184 N 
ATOM     21  C   UNL     1      -7.313   8.808  -3.605  0.00  0.00    +0.215 A 
ATOM     22  N   UNL     1      -7.363   8.393  -4.853  0.00  0.00    -0.101 NA
ATOM     23  N   UNL     1      -8.258   9.041  -5.507  0.00  0.00    -0.022 NA
ATOM     24  N   UNL     1      -8.831   9.909  -4.745  0.00  0.00    -0.038 NA
BRANCH  20  30
ATOM     25  C   UNL     1      -6.704  12.420   0.389  0.00  0.00    +0.044 C 
ATOM     26  C   UNL     1      -7.816  11.818  -0.432  0.00  0.00    -0.048 A 
ATOM     27  C   UNL     1      -9.132  11.997  -0.047  0.00  0.00    +0.007 A 
ATOM     28  C   UNL     1     -10.156  11.447  -0.796  0.00  0.00    +0.048 A 
ATOM     29  C   UNL     1      -9.865  10.718  -1.938  0.00  0.00    +0.146 A 
ATOM     30  C   UNL     1      -8.539  10.533  -2.323  0.00  0.00    +0.112 A 
ATOM     31  C   UNL     1      -7.517  11.088  -1.566  0.00  0.00    +0.035 A 
BRANCH  29  32
ATOM     32  O   UNL     1     -10.870  10.181  -2.678  0.00  0.00    -0.493 OA
ATOM     33  C   UNL     1     -12.205  10.411  -2.223  0.00  0.00    +0.277 C 
ENDBRANCH  29  32
ENDBRANCH  20  30
ENDBRANCH  19  21
ENDBRANCH   1  19
TORSDOF 6
