REMARK  Name = ZINC11910435
REMARK  9 active torsions:
REMARK  status: ('A' for Active; 'I' for Inactive)
REMARK    1  A    between atoms: C_1  and  C_2
REMARK    2  A    between atoms: C_2  and  O_3
REMARK    3  A    between atoms: O_3  and  C_4
REMARK    4  A    between atoms: C_4  and  C_6
REMARK    5  A    between atoms: N_9  and  C_19
REMARK    6  A    between atoms: C_10  and  C_11
REMARK    7  A    between atoms: C_11  and  N_51
REMARK    8  A    between atoms: C_12  and  C_13
REMARK    9  A    between atoms: C_12  and  N_51
REMARK                            x       y       z     vdW  Elec       q    Type
REMARK                         _______ _______ _______ _____ _____    ______ ____
ROOT
ATOM      1  C   UNL     1      -0.687   6.470   2.823  0.00  0.00    +0.098 A 
ATOM      2  C   UNL     1      -1.177   7.757   2.498  0.00  0.00    +0.150 A 
ATOM      3  N   UNL     1      -2.283   7.610   1.822  0.00  0.00    -0.174 NA
ATOM      4  N   UNL     1      -2.549   6.244   1.678  0.00  0.00    -0.237 N 
ATOM      5  C   UNL     1      -1.574   5.552   2.296  0.00  0.00    +0.042 A 
ENDROOT
BRANCH   4   6
ATOM      6  C   UNL     1      -3.643   5.692   1.009  0.00  0.00    +0.076 A 
ATOM      7  C   UNL     1      -4.437   4.731   1.611  0.00  0.00    +0.048 A 
ATOM      8  C   UNL     1      -5.519   4.200   0.919  0.00  0.00    +0.113 A 
ATOM      9  N   UNL     1      -5.817   4.584  -0.300  0.00  0.00    -0.255 NA
ATOM     10  C   UNL     1      -5.093   5.507  -0.941  0.00  0.00    +0.074 A 
ATOM     11  C   UNL     1      -3.977   6.101  -0.302  0.00  0.00    +0.026 A 
ATOM     12  C   UNL     1      -3.218   7.064  -0.982  0.00  0.00    +0.013 A 
ATOM     13  C   UNL     1      -3.568   7.428  -2.247  0.00  0.00    +0.021 A 
ATOM     14  C   UNL     1      -4.669   6.850  -2.877  0.00  0.00    +0.043 A 
ATOM     15  C   UNL     1      -5.424   5.908  -2.247  0.00  0.00    +0.048 A 
ATOM     16 CL   UNL     1      -5.084   7.340  -4.490  0.00  0.00    -0.083 Cl
ENDBRANCH   4   6
BRANCH   1  17
ATOM     17  C   UNL     1       0.539   6.167   3.580  0.00  0.00    +0.342 C 
ATOM     18  O   UNL     1       0.851   5.012   3.794  0.00  0.00    -0.245 OA
BRANCH  17  19
ATOM     19  O   UNL     1       1.314   7.170   4.037  0.00  0.00    -0.461 OA
BRANCH  19  21
ATOM     20  C   UNL     1       3.254   8.061   5.210  0.00  0.00    +0.048 C 
ATOM     21  C   UNL     1       2.507   6.798   4.776  0.00  0.00    +0.229 C 
ENDBRANCH  19  21
ENDBRANCH  17  19
ENDBRANCH   1  17
BRANCH   5  22
ATOM     22  C   UNL     1      -1.466   4.052   2.391  0.00  0.00    -0.025 C 
BRANCH  22  23
ATOM     23  N   UNL     1      -0.593   3.560   1.309  0.00  0.00    +0.384 N 
ATOM     24  H   UNL     1       0.338   3.984   1.406  0.00  0.00    -0.085 HD
ATOM     25  H   UNL     1      -0.996   3.824   0.402  0.00  0.00    -0.085 HD
BRANCH  23  26
ATOM     26  C   UNL     1      -0.469   2.092   1.377  0.00  0.00    -0.050 C 
BRANCH  26  27
ATOM     27  C   UNL     1       0.441   1.612   0.244  0.00  0.00    +0.101 C 
ATOM     28  C   UNL     1       0.491   0.069   0.212  0.00  0.00    +0.032 C 
ATOM     29  C   UNL     1       1.954  -0.252  -0.165  0.00  0.00    +0.030 C 
ATOM     30  C   UNL     1       2.615   1.136  -0.316  0.00  0.00    +0.160 C 
ATOM     31  O   UNL     1       1.804   2.021   0.488  0.00  0.00    -0.378 OA
ENDBRANCH  26  27
ENDBRANCH  23  26
ENDBRANCH  22  23
ENDBRANCH   5  22
TORSDOF 8
