REMARK  Name = ZINC63627360
REMARK  9 active torsions:
REMARK  status: ('A' for Active; 'I' for Inactive)
REMARK    1  A    between atoms: C_1  and  C_2
REMARK    2  A    between atoms: C_2  and  C_3
REMARK    3  A    between atoms: C_2  and  C_4
REMARK    4  A    between atoms: C_4  and  C_5
REMARK    5  A    between atoms: N_7  and  C_8
REMARK    6  A    between atoms: C_11  and  S_14
REMARK    7  A    between atoms: S_14  and  N_17
REMARK    8  A    between atoms: N_17  and  C_18
REMARK    9  A    between atoms: C_21  and  C_24
REMARK                            x       y       z     vdW  Elec       q    Type
REMARK                         _______ _______ _______ _____ _____    ______ ____
ROOT
ATOM      1  N   UNL     1       9.568   0.207  -1.885  0.00  0.00    -0.216 N 
ATOM      2  H   UNL     1      10.198  -0.208  -2.494  0.00  0.00    +0.174 HD
ENDROOT
BRANCH   1   3
ATOM      3  C   UNL     1       9.541  -0.173  -0.541  0.00  0.00    +0.048 A 
ATOM      4  C   UNL     1       9.474   0.793   0.455  0.00  0.00    +0.025 A 
ATOM      5  C   UNL     1       9.447   0.414   1.782  0.00  0.00    +0.008 A 
ATOM      6  C   UNL     1       9.488  -0.926   2.121  0.00  0.00    -0.021 A 
ATOM      7  C   UNL     1       9.555  -1.891   1.132  0.00  0.00    +0.008 A 
ATOM      8  C   UNL     1       9.576  -1.518  -0.198  0.00  0.00    +0.025 A 
BRANCH   6   9
ATOM      9  C   UNL     1       9.459  -1.337   3.571  0.00  0.00    +0.133 C 
ATOM     10  C   UNL     1      10.848  -1.720   4.032  0.00  0.00    +0.012 C 
ATOM     11  C   UNL     1      10.771  -3.014   4.415  0.00  0.00    -0.002 A 
ATOM     12  C   UNL     1      11.765  -3.953   4.951  0.00  0.00    +0.029 A 
ATOM     13  C   UNL     1      11.381  -5.216   5.249  0.00  0.00    +0.042 A 
ATOM     14  C   UNL     1      10.061  -5.649   5.058  0.00  0.00    +0.022 A 
ATOM     15  C   UNL     1       9.093  -4.845   4.570  0.00  0.00    +0.027 A 
ATOM     16  C   UNL     1       9.385  -3.497   4.223  0.00  0.00    +0.043 A 
ATOM     17  N   UNL     1       8.632  -2.536   3.741  0.00  0.00    -0.374 N 
ATOM     18 CL   UNL     1      12.553  -6.328   5.882  0.00  0.00    -0.084 Cl
ATOM     19  H   UNL     1       7.688  -2.607   3.531  0.00  0.00    +0.161 HD
ENDBRANCH   6   9
ENDBRANCH   1   3
BRANCH   1  20
ATOM     20  S   UNL     1       8.525   1.368  -2.438  0.00  0.00    +0.072 S 
ATOM     21  O   UNL     1       8.745   1.479  -3.837  0.00  0.00    -0.150 OA
ATOM     22  O   UNL     1       8.646   2.476  -1.557  0.00  0.00    -0.150 OA
BRANCH  20  26
ATOM     23  C   UNL     1       4.326  -0.248  -1.915  0.00  0.00    +0.033 A 
ATOM     24  C   UNL     1       4.883   0.571  -0.941  0.00  0.00    +0.025 A 
ATOM     25  C   UNL     1       6.163   1.062  -1.104  0.00  0.00    +0.030 A 
ATOM     26  C   UNL     1       6.891   0.739  -2.234  0.00  0.00    +0.109 A 
ATOM     27  C   UNL     1       6.340  -0.076  -3.206  0.00  0.00    +0.030 A 
ATOM     28  C   UNL     1       5.062  -0.576  -3.046  0.00  0.00    +0.025 A 
BRANCH  23  31
ATOM     29  C   UNL     1       2.085   0.009  -1.159  0.00  0.00    +0.217 C 
ATOM     30  O   UNL     1       2.380   1.088  -0.689  0.00  0.00    -0.275 OA
ATOM     31  N   UNL     1       3.029  -0.747  -1.753  0.00  0.00    -0.285 N 
ATOM     32  H   UNL     1       2.809  -1.638  -2.068  0.00  0.00    +0.155 HD
BRANCH  29  33
ATOM     33  C   UNL     1       0.664  -0.485  -1.079  0.00  0.00    +0.099 C 
BRANCH  33  35
ATOM     34  C   UNL     1      -0.261   1.833  -1.203  0.00  0.00    +0.008 C 
ATOM     35  C   UNL     1      -0.199   0.556  -0.362  0.00  0.00    -0.008 C 
ATOM     36  C   UNL     1      -1.612   0.003  -0.171  0.00  0.00    +0.008 C 
ENDBRANCH  33  35
ENDBRANCH  29  33
ENDBRANCH  23  31
ENDBRANCH  20  26
ENDBRANCH   1  20
TORSDOF 7
