REMARK  Name = ZINC43262666
REMARK  11 active torsions:
REMARK  status: ('A' for Active; 'I' for Inactive)
REMARK    1  A    between atoms: C_1  and  C_2
REMARK    2  A    between atoms: C_2  and  C_3
REMARK    3  A    between atoms: C_3  and  C_5
REMARK    4  A    between atoms: C_3  and  N_21
REMARK    5  A    between atoms: C_5  and  C_7
REMARK    6  A    between atoms: C_5  and  N_13
REMARK    7  A    between atoms: N_13  and  C_14
REMARK    8  A    between atoms: N_13  and  C_18
REMARK    9  A    between atoms: C_14  and  C_15
REMARK   10  A    between atoms: C_18  and  C_19
REMARK   11  A    between atoms: C_18  and  C_20
REMARK                            x       y       z     vdW  Elec       q    Type
REMARK                         _______ _______ _______ _____ _____    ______ ____
ROOT
ATOM      1  C   UNL     1      -0.377  -2.052  -0.618  0.00  0.00    -0.045 C 
ENDROOT
BRANCH   1   2
ATOM      2  C   UNL     1       1.065  -2.423  -0.854  0.00  0.00    -0.024 A 
ATOM      3  C   UNL     1       1.922  -3.079  -0.034  0.00  0.00    +0.010 A 
ATOM      4  C   UNL     1       3.215  -3.313  -0.464  0.00  0.00    +0.023 A 
ATOM      5  C   UNL     1       3.587  -2.879  -1.694  0.00  0.00    +0.055 A 
ATOM      6  S   UNL     1       2.084  -2.120  -2.288  0.00  0.00    -0.088 S 
ATOM      7 BR   UNL     1       5.261  -3.041  -2.558  0.00  0.00    -0.043 Br
ENDBRANCH   1   2
BRANCH   1   8
ATOM      8  N   UNL     1      -1.247  -2.972  -1.363  0.00  0.00    +0.391 N 
ATOM      9  H   UNL     1      -2.147  -2.539  -1.510  0.00  0.00    -0.080 HD
BRANCH   8  10
ATOM     10  C   UNL     1      -0.634  -3.283  -2.661  0.00  0.00    -0.073 C 
ATOM     11  C   UNL     1      -1.454  -4.365  -3.366  0.00  0.00    -0.013 C 
ATOM     12  C   UNL     1      -0.605  -2.021  -3.526  0.00  0.00    -0.013 C 
ENDBRANCH   8  10
BRANCH   8  13
ATOM     13  C   UNL     1      -1.421  -4.212  -0.594  0.00  0.00    +0.019 C 
BRANCH  13  14
ATOM     14  C   UNL     1      -2.724  -4.863  -0.980  0.00  0.00    +0.194 C 
ATOM     15  O   UNL     1      -3.505  -4.278  -1.701  0.00  0.00    -0.278 OA
ATOM     16  N   UNL     1      -3.022  -6.096  -0.524  0.00  0.00    -0.331 N 
ATOM     17  H   UNL     1      -2.398  -6.564   0.052  0.00  0.00    +0.145 HD
ATOM     18  H   UNL     1      -3.861  -6.516  -0.772  0.00  0.00    +0.145 HD
ENDBRANCH  13  14
ENDBRANCH   8  13
ENDBRANCH   1   8
BRANCH   1  19
ATOM     19  C   UNL     1      -0.620  -0.620  -1.098  0.00  0.00    -0.085 C 
BRANCH  19  20
ATOM     20  N   UNL     1       0.274   0.296  -0.377  0.00  0.00    +0.379 N 
ATOM     21  H   UNL     1       1.234   0.040  -0.555  0.00  0.00    -0.090 HD
ATOM     22  H   UNL     1       0.114   1.241  -0.693  0.00  0.00    -0.090 HD
ATOM     23  H   UNL     1       0.089   0.237   0.613  0.00  0.00    -0.090 HD
ENDBRANCH  19  20
BRANCH  19  25
ATOM     24  C   UNL     1      -2.345   1.163  -1.399  0.00  0.00    +0.002 C 
ATOM     25  C   UNL     1      -2.074  -0.231  -0.828  0.00  0.00    -0.021 C 
ENDBRANCH  19  25
ENDBRANCH   1  19
TORSDOF 8
