REMARK  Name = ZINC39676562
REMARK  9 active torsions:
REMARK  status: ('A' for Active; 'I' for Inactive)
REMARK    1  A    between atoms: C_1  and  O_2
REMARK    2  A    between atoms: O_2  and  C_3
REMARK    3  A    between atoms: C_6  and  C_9
REMARK    4  A    between atoms: C_9  and  C_10
REMARK    5  A    between atoms: C_9  and  N_18
REMARK    6  A    between atoms: C_13  and  O_16
REMARK    7  A    between atoms: O_16  and  C_17
REMARK    8  A    between atoms: C_19  and  C_21
REMARK    9  A    between atoms: C_32  and  C_34
REMARK                            x       y       z     vdW  Elec       q    Type
REMARK                         _______ _______ _______ _____ _____    ______ ____
ROOT
ATOM      1  N   UNL     1      -4.935  -2.688   1.583  0.00  0.00    -0.304 N 
ATOM      2  C   UNL     1      -5.926  -3.501   1.998  0.00  0.00    +0.219 C 
ATOM      3  O   UNL     1      -7.050  -3.357   1.567  0.00  0.00    -0.275 OA
ATOM      4  H   UNL     1      -4.036  -2.803   1.928  0.00  0.00    +0.150 HD
ENDROOT
BRANCH   2   5
ATOM      5  C   UNL     1      -5.637  -4.590   2.998  0.00  0.00    +0.100 C 
ATOM      6  C   UNL     1      -6.564  -5.803   2.756  0.00  0.00    +0.121 C 
ATOM      7  N   UNL     1      -6.891  -6.301   4.113  0.00  0.00    -0.296 N 
ATOM      8  C   UNL     1      -7.072  -5.073   4.923  0.00  0.00    +0.115 C 
ATOM      9  C   UNL     1      -5.974  -4.114   4.421  0.00  0.00    -0.004 C 
ATOM     10  C   UNL     1      -4.741  -4.208   5.316  0.00  0.00    -0.010 C 
ATOM     11  C   UNL     1      -5.086  -3.676   6.710  0.00  0.00    -0.082 C 
ATOM     12  N   UNL     1      -5.535  -2.282   6.606  0.00  0.00    +0.379 N 
ATOM     13  C   UNL     1      -6.773  -2.211   5.820  0.00  0.00    -0.082 C 
ATOM     14  C   UNL     1      -6.499  -2.682   4.389  0.00  0.00    -0.010 C 
ATOM     15  C   UNL     1      -6.999  -7.582   4.519  0.00  0.00    +0.247 C 
ATOM     16  O   UNL     1      -6.713  -8.486   3.760  0.00  0.00    -0.270 OA
ATOM     17  H   UNL     1      -5.703  -1.914   7.530  0.00  0.00    -0.086 HD
ATOM     18  H   UNL     1      -4.819  -1.733   6.153  0.00  0.00    -0.086 HD
BRANCH  15  19
ATOM     19  C   UNL     1      -7.467  -7.886   5.888  0.00  0.00    +0.037 A 
ATOM     20  C   UNL     1      -8.208  -6.942   6.602  0.00  0.00    +0.013 A 
ATOM     21  C   UNL     1      -8.642  -7.233   7.879  0.00  0.00    +0.001 A 
ATOM     22  C   UNL     1      -8.344  -8.456   8.452  0.00  0.00    +0.000 A 
ATOM     23  C   UNL     1      -7.610  -9.396   7.750  0.00  0.00    +0.001 A 
ATOM     24  C   UNL     1      -7.175  -9.120   6.470  0.00  0.00    +0.013 A 
ENDBRANCH  15  19
ENDBRANCH   2   5
BRANCH   1  25
ATOM     25  C   UNL     1      -5.216  -1.629   0.610  0.00  0.00    +0.134 C 
BRANCH  25  29
ATOM     26  C   UNL     1      -6.651   1.839   2.655  0.00  0.00    +0.120 A 
ATOM     27  C   UNL     1      -7.219   1.459   1.448  0.00  0.00    +0.046 A 
ATOM     28  C   UNL     1      -6.753   0.338   0.788  0.00  0.00    +0.009 A 
ATOM     29  C   UNL     1      -5.722  -0.406   1.331  0.00  0.00    -0.023 A 
ATOM     30  C   UNL     1      -5.153  -0.029   2.534  0.00  0.00    +0.009 A 
ATOM     31  C   UNL     1      -5.612   1.094   3.194  0.00  0.00    +0.046 A 
BRANCH  26  33
ATOM     32  C   UNL     1      -8.179   3.659   2.691  0.00  0.00    +0.277 C 
ATOM     33  O   UNL     1      -7.107   2.942   3.305  0.00  0.00    -0.495 OA
ENDBRANCH  26  33
ENDBRANCH  25  29
BRANCH  25  34
ATOM     34  C   UNL     1      -3.953  -1.285  -0.137  0.00  0.00    -0.023 A 
ATOM     35  C   UNL     1      -2.746  -1.231   0.536  0.00  0.00    +0.009 A 
ATOM     36  C   UNL     1      -1.587  -0.916  -0.147  0.00  0.00    +0.046 A 
ATOM     37  C   UNL     1      -1.635  -0.654  -1.508  0.00  0.00    +0.120 A 
ATOM     38  C   UNL     1      -2.847  -0.709  -2.181  0.00  0.00    +0.046 A 
ATOM     39  C   UNL     1      -4.002  -1.030  -1.495  0.00  0.00    +0.009 A 
BRANCH  37  40
ATOM     40  O   UNL     1      -0.496  -0.343  -2.182  0.00  0.00    -0.495 OA
ATOM     41  C   UNL     1      -0.620  -0.086  -3.582  0.00  0.00    +0.277 C 
ENDBRANCH  37  40
ENDBRANCH  25  34
ENDBRANCH   1  25
TORSDOF 7
