REMARK  Name = ZINC59516414
REMARK  5 active torsions:
REMARK  status: ('A' for Active; 'I' for Inactive)
REMARK    1  A    between atoms: C_1  and  C_2
REMARK    2  A    between atoms: C_15  and  C_18
REMARK    3  A    between atoms: C_21  and  N_24
REMARK    4  A    between atoms: C_25  and  C_26
REMARK    5  A    between atoms: C_31  and  C_32
REMARK                            x       y       z     vdW  Elec       q    Type
REMARK                         _______ _______ _______ _____ _____    ______ ____
ROOT
ATOM      1  C   UNL     1       2.196   2.097   0.067  0.00  0.00    +0.044 C 
ATOM      2  C   UNL     1       1.980   0.606   0.116  0.00  0.00    -0.050 A 
ATOM      3  C   UNL     1       1.723  -0.093  -1.050  0.00  0.00    +0.005 A 
ATOM      4  C   UNL     1       1.520  -1.457  -1.001  0.00  0.00    +0.023 A 
ATOM      5  C   UNL     1       1.575  -2.129   0.217  0.00  0.00    +0.031 A 
ATOM      6  C   UNL     1       1.843  -1.432   1.381  0.00  0.00    -0.019 A 
ATOM      7  C   UNL     1       2.045  -0.060   1.323  0.00  0.00    +0.009 A 
ATOM      8  C   UNL     1       1.949  -2.111   2.718  0.00  0.00    +0.049 C 
ATOM      9  C   UNL     1       3.256  -1.673   3.360  0.00  0.00    -0.023 C 
ATOM     10  C   UNL     1       4.165  -2.605   3.239  0.00  0.00    -0.030 C 
ATOM     11  C   UNL     1       3.609  -3.811   2.511  0.00  0.00    +0.033 C 
ATOM     12  C   UNL     1       2.062  -3.630   2.611  0.00  0.00    +0.029 C 
ATOM     13  C   UNL     1       1.321  -4.267   1.473  0.00  0.00    +0.105 C 
ATOM     14  N   UNL     1       1.351  -3.501   0.242  0.00  0.00    -0.336 N 
ATOM     15  H   UNL     1       1.186  -3.960  -0.596  0.00  0.00    +0.147 HD
ENDROOT
BRANCH  13  16
ATOM     16  C   UNL     1       1.947  -5.608   1.188  0.00  0.00    -0.027 A 
ATOM     17  C   UNL     1       3.115  -5.680   0.450  0.00  0.00    +0.007 A 
ATOM     18  C   UNL     1       3.692  -6.904   0.185  0.00  0.00    +0.028 A 
ATOM     19  C   UNL     1       3.096  -8.073   0.665  0.00  0.00    +0.064 A 
ATOM     20  C   UNL     1       1.918  -7.992   1.410  0.00  0.00    +0.028 A 
ATOM     21  C   UNL     1       1.354  -6.761   1.672  0.00  0.00    +0.007 A 
BRANCH  19  22
ATOM     22  N   UNL     1       3.664  -9.291   0.406  0.00  0.00    -0.255 NA
ATOM     23  C   UNL     1       3.776 -10.173   1.358  0.00  0.00    +0.119 C 
BRANCH  23  24
ATOM     24  C   UNL     1       4.387 -11.484   1.079  0.00  0.00    -0.004 A 
ATOM     25  C   UNL     1       4.614 -12.389   2.120  0.00  0.00    +0.010 A 
ATOM     26  C   UNL     1       5.187 -13.614   1.851  0.00  0.00    +0.001 A 
ATOM     27  C   UNL     1       5.535 -13.949   0.554  0.00  0.00    +0.000 A 
ATOM     28  C   UNL     1       5.314 -13.058  -0.482  0.00  0.00    +0.004 A 
ATOM     29  C   UNL     1       4.736 -11.832  -0.229  0.00  0.00    -0.042 A 
ATOM     30  C   UNL     1       4.489 -10.866  -1.359  0.00  0.00    +0.044 C 
ENDBRANCH  23  24
ENDBRANCH  19  22
ENDBRANCH  13  16
TORSDOF 3
