REMARK  Name = ZINC06131351
REMARK  5 active torsions:
REMARK  status: ('A' for Active; 'I' for Inactive)
REMARK    1  A    between atoms: C_4  and  S_7
REMARK    2  A    between atoms: S_7  and  N_10
REMARK    3  A    between atoms: N_10  and  C_11
REMARK    4  A    between atoms: C_23  and  N_60
REMARK    5  A    between atoms: C_30  and  C_32
REMARK                            x       y       z     vdW  Elec       q    Type
REMARK                         _______ _______ _______ _____ _____    ______ ____
ROOT
ATOM      1  C   UNL     1       2.443   2.071  -1.167  0.00  0.00    +0.098 C 
ATOM      2  C   UNL     1       2.376   3.195  -2.173  0.00  0.00    -0.022 A 
ATOM      3  C   UNL     1       1.371   3.811  -2.853  0.00  0.00    +0.006 A 
ATOM      4  C   UNL     1       1.654   4.853  -3.739  0.00  0.00    +0.001 A 
ATOM      5  C   UNL     1       2.926   5.295  -3.964  0.00  0.00    +0.008 A 
ATOM      6  C   UNL     1       3.987   4.681  -3.279  0.00  0.00    -0.017 A 
ATOM      7  C   UNL     1       3.677   3.635  -2.391  0.00  0.00    -0.012 A 
ATOM      8  C   UNL     1       4.648   2.957  -1.661  0.00  0.00    -0.051 A 
ATOM      9  C   UNL     1       5.947   3.333  -1.822  0.00  0.00    +0.003 A 
ATOM     10  C   UNL     1       6.278   4.369  -2.698  0.00  0.00    +0.001 A 
ATOM     11  C   UNL     1       5.337   5.043  -3.421  0.00  0.00    +0.008 A 
ATOM     12  C   UNL     1       3.942   1.914  -0.830  0.00  0.00    -0.014 C 
ENDROOT
BRANCH  12  20
ATOM     13  C   UNL     1       5.726   0.293  -0.609  0.00  0.00    -0.059 C 
ATOM     14  C   UNL     1       6.095  -1.173  -0.859  0.00  0.00    +0.089 C 
ATOM     15  N   UNL     1       5.986  -1.443  -2.301  0.00  0.00    -0.299 N 
ATOM     16  C   UNL     1       4.741  -1.065  -2.987  0.00  0.00    +0.089 C 
ATOM     17  C   UNL     1       4.426   0.397  -2.653  0.00  0.00    -0.059 C 
ATOM     18  C   UNL     1       7.000  -2.021  -2.975  0.00  0.00    +0.282 C 
ATOM     19  O   UNL     1       6.941  -2.130  -4.186  0.00  0.00    -0.267 OA
ATOM     20  N   UNL     1       4.388   0.551  -1.183  0.00  0.00    +0.388 N 
ATOM     21  H   UNL     1       3.723  -0.129  -0.795  0.00  0.00    -0.081 HD
BRANCH  18  22
ATOM     22  C   UNL     1       8.174  -2.518  -2.250  0.00  0.00    +0.189 A 
ATOM     23  C   UNL     1       9.322  -2.996  -2.813  0.00  0.00    +0.054 A 
ATOM     24  C   UNL     1      10.170  -3.357  -1.755  0.00  0.00    +0.042 A 
ATOM     25  C   UNL     1       9.511  -3.087  -0.607  0.00  0.00    +0.196 A 
ATOM     26  O   UNL     1       8.311  -2.577  -0.909  0.00  0.00    -0.458 OA
ENDBRANCH  18  22
ENDBRANCH  12  20
BRANCH   1  27
ATOM     27  N   UNL     1       1.685   2.421   0.036  0.00  0.00    -0.184 NA
ATOM     28  H   UNL     1       2.098   2.959   0.730  0.00  0.00    +0.149 HD
BRANCH  27  29
ATOM     29  S   UNL     1       0.123   1.898   0.213  0.00  0.00    +0.059 S 
ATOM     30  O   UNL     1      -0.549   2.212  -0.999  0.00  0.00    -0.153 OA
ATOM     31  O   UNL     1      -0.323   2.372   1.476  0.00  0.00    -0.153 OA
BRANCH  29  35
ATOM     32  C   UNL     1       0.248  -2.618   0.494  0.00  0.00    +0.000 A 
ATOM     33  C   UNL     1       0.337  -1.851   1.641  0.00  0.00    +0.002 A 
ATOM     34  C   UNL     1       0.300  -0.472   1.555  0.00  0.00    +0.028 A 
ATOM     35  C   UNL     1       0.172   0.140   0.323  0.00  0.00    +0.105 A 
ATOM     36  C   UNL     1       0.076  -0.626  -0.824  0.00  0.00    +0.028 A 
ATOM     37  C   UNL     1       0.119  -2.005  -0.739  0.00  0.00    +0.002 A 
ENDBRANCH  29  35
ENDBRANCH  27  29
ENDBRANCH   1  27
TORSDOF 5
