REMARK  Name = ZINC39695833
REMARK  6 active torsions:
REMARK  status: ('A' for Active; 'I' for Inactive)
REMARK    1  A    between atoms: C_1  and  C_2
REMARK    2  A    between atoms: C_9  and  C_11
REMARK    3  A    between atoms: C_11  and  C_13
REMARK    4  A    between atoms: C_11  and  N_14
REMARK    5  A    between atoms: C_15  and  C_17
REMARK    6  A    between atoms: C_28  and  C_30
REMARK                            x       y       z     vdW  Elec       q    Type
REMARK                         _______ _______ _______ _____ _____    ______ ____
ROOT
ATOM      1  C   UNL     1      -1.385  -9.227   0.748  0.00  0.00    +0.100 C 
ATOM      2  C   UNL     1      -2.620  -8.511   0.157  0.00  0.00    +0.121 C 
ATOM      3  N   UNL     1      -3.695  -9.530   0.190  0.00  0.00    -0.296 N 
ATOM      4  C   UNL     1      -3.492 -10.239   1.476  0.00  0.00    +0.115 C 
ATOM      5  C   UNL     1      -1.962 -10.360   1.613  0.00  0.00    -0.004 C 
ATOM      6  C   UNL     1      -1.547 -10.176   3.070  0.00  0.00    -0.010 C 
ATOM      7  C   UNL     1      -2.083 -11.345   3.901  0.00  0.00    -0.082 C 
ATOM      8  N   UNL     1      -1.548 -12.607   3.374  0.00  0.00    +0.379 N 
ATOM      9  C   UNL     1      -2.029 -12.822   2.004  0.00  0.00    -0.082 C 
ATOM     10  C   UNL     1      -1.490 -11.714   1.093  0.00  0.00    -0.010 C 
ATOM     11  C   UNL     1      -4.643  -9.761  -0.740  0.00  0.00    +0.248 C 
ATOM     12  O   UNL     1      -5.519 -10.577  -0.526  0.00  0.00    -0.270 OA
ATOM     13  H   UNL     1      -0.540 -12.570   3.374  0.00  0.00    -0.086 HD
ATOM     14  H   UNL     1      -1.854 -13.370   3.960  0.00  0.00    -0.086 HD
ENDROOT
BRANCH  11  15
ATOM     15  C   UNL     1      -4.618  -9.027  -2.012  0.00  0.00    +0.052 A 
ATOM     16  C   UNL     1      -4.190  -7.739  -2.069  0.00  0.00    +0.059 A 
ATOM     17  S   UNL     1      -4.324  -7.296  -3.681  0.00  0.00    -0.096 S 
ATOM     18  C   UNL     1      -4.957  -8.801  -4.369  0.00  0.00    +0.020 A 
ATOM     19  C   UNL     1      -5.047  -9.664  -3.259  0.00  0.00    +0.001 A 
ATOM     20  C   UNL     1      -5.525 -10.967  -3.493  0.00  0.00    +0.010 A 
ATOM     21  C   UNL     1      -5.877 -11.362  -4.760  0.00  0.00    +0.001 A 
ATOM     22  C   UNL     1      -5.773 -10.494  -5.837  0.00  0.00    +0.001 A 
ATOM     23  C   UNL     1      -5.317  -9.205  -5.636  0.00  0.00    +0.015 A 
ENDBRANCH  11  15
BRANCH   1  25
ATOM     24  N   UNL     1       0.749  -8.445   1.725  0.00  0.00    -0.305 N 
ATOM     25  C   UNL     1      -0.582  -8.275   1.597  0.00  0.00    +0.219 C 
ATOM     26  O   UNL     1      -1.134  -7.356   2.164  0.00  0.00    -0.275 OA
ATOM     27  H   UNL     1       1.190  -9.180   1.271  0.00  0.00    +0.149 HD
BRANCH  24  28
ATOM     28  C   UNL     1       1.529  -7.519   2.550  0.00  0.00    +0.136 C 
ATOM     29  C   UNL     1       1.479  -7.972   4.011  0.00  0.00    +0.036 C 
BRANCH  28  38
ATOM     30  C   UNL     1       8.636  -6.243   0.750  0.00  0.00    +0.044 C 
ATOM     31  C   UNL     1       7.292  -6.906   0.900  0.00  0.00    -0.048 A 
ATOM     32  C   UNL     1       7.091  -8.182   0.394  0.00  0.00    +0.005 A 
ATOM     33  C   UNL     1       5.880  -8.800   0.520  0.00  0.00    +0.030 A 
ATOM     34  C   UNL     1       4.828  -8.145   1.166  0.00  0.00    +0.089 A 
ATOM     35  C   UNL     1       5.030  -6.853   1.680  0.00  0.00    +0.067 A 
ATOM     36  C   UNL     1       6.270  -6.243   1.546  0.00  0.00    +0.031 A 
ATOM     37  N   UNL     1       3.830  -6.478   2.250  0.00  0.00    -0.340 N 
ATOM     38  C   UNL     1       2.960  -7.509   2.077  0.00  0.00    +0.128 A 
ATOM     39  N   UNL     1       3.543  -8.484   1.443  0.00  0.00    -0.231 NA
ATOM     40  H   UNL     1       3.643  -5.635   2.692  0.00  0.00    +0.167 HD
ENDBRANCH  28  38
ENDBRANCH  24  28
ENDBRANCH   1  25
TORSDOF 4
