REMARK  Name = ZINC63530843
REMARK  8 active torsions:
REMARK  status: ('A' for Active; 'I' for Inactive)
REMARK    1  A    between atoms: C_1  and  C_2
REMARK    2  A    between atoms: C_6  and  N_8
REMARK    3  A    between atoms: C_13  and  C_15
REMARK    4  A    between atoms: C_16  and  C_18
REMARK    5  A    between atoms: C_20  and  S_30
REMARK    6  A    between atoms: C_24  and  O_28
REMARK    7  A    between atoms: O_28  and  C_29
REMARK    8  A    between atoms: S_30  and  C_31
REMARK                            x       y       z     vdW  Elec       q    Type
REMARK                         _______ _______ _______ _____ _____    ______ ____
ROOT
ATOM      1  C   UNL     1       1.383  -4.070   6.869  0.00  0.00    +0.204 C 
ATOM      2  C   UNL     1       2.812  -3.687   7.181  0.00  0.00    +0.030 C 
ATOM      3  C   UNL     1       3.118  -4.315   8.381  0.00  0.00    +0.010 A 
ATOM      4  C   UNL     1       4.289  -4.337   9.173  0.00  0.00    +0.014 A 
ATOM      5  C   UNL     1       4.309  -5.051  10.325  0.00  0.00    +0.046 A 
ATOM      6  C   UNL     1       3.190  -5.774  10.759  0.00  0.00    +0.122 A 
ATOM      7  C   UNL     1       2.030  -5.795  10.043  0.00  0.00    +0.071 A 
ATOM      8  C   UNL     1       1.939  -5.073   8.831  0.00  0.00    +0.048 A 
ATOM      9  N   UNL     1       0.945  -4.935   7.969  0.00  0.00    -0.369 N 
ATOM     10  H   UNL     1       0.067  -5.340   8.050  0.00  0.00    +0.161 HD
ENDROOT
BRANCH   1  18
ATOM     11  N   UNL     1       0.156  -2.852   2.293  0.00  0.00    -0.324 N 
ATOM     12  C   UNL     1       0.217  -2.134   3.574  0.00  0.00    +0.124 C 
ATOM     13  C   UNL     1       1.401  -2.676   4.384  0.00  0.00    +0.127 C 
ATOM     14  N   UNL     1       1.329  -4.144   4.397  0.00  0.00    -0.296 N 
ATOM     15  C   UNL     1       1.269  -4.862   3.116  0.00  0.00    +0.130 C 
ATOM     16  C   UNL     1       0.078  -4.319   2.306  0.00  0.00    +0.088 C 
ATOM     17  C   UNL     1      -1.234  -4.758   2.959  0.00  0.00    +0.029 C 
ATOM     18  C   UNL     1       1.319  -4.820   5.563  0.00  0.00    +0.243 C 
ATOM     19  O   UNL     1       1.260  -6.031   5.561  0.00  0.00    -0.273 OA
BRANCH  11  25
ATOM     20  C   UNL     1       0.310  -2.894  -2.619  0.00  0.00    +0.044 C 
ATOM     21  C   UNL     1       0.240  -2.146  -1.312  0.00  0.00    -0.049 A 
ATOM     22  C   UNL     1       0.187  -0.764  -1.309  0.00  0.00    +0.003 A 
ATOM     23  C   UNL     1       0.123  -0.074  -0.113  0.00  0.00    +0.002 A 
ATOM     24  C   UNL     1       0.113  -0.764   1.084  0.00  0.00    +0.023 A 
ATOM     25  C   UNL     1       0.166  -2.152   1.085  0.00  0.00    +0.030 A 
ATOM     26  C   UNL     1       0.225  -2.842  -0.120  0.00  0.00    +0.026 A 
ENDBRANCH  11  25
ENDBRANCH   1  18
BRANCH   6  27
ATOM     27  O   UNL     1       3.262  -6.472  11.920  0.00  0.00    -0.495 OA
ATOM     28  C   UNL     1       4.500  -6.419  12.633  0.00  0.00    +0.277 C 
ENDBRANCH   6  27
BRANCH   2  29
ATOM     29  S   UNL     1       3.810  -2.718   6.275  0.00  0.00    -0.091 S 
BRANCH  29  30
ATOM     30  C   UNL     1       3.139  -1.102   6.483  0.00  0.00    +0.013 A 
ATOM     31  C   UNL     1       2.095  -0.891   7.376  0.00  0.00    +0.015 A 
ATOM     32  C   UNL     1       1.571   0.376   7.537  0.00  0.00    +0.001 A 
ATOM     33  C   UNL     1       2.084   1.435   6.810  0.00  0.00    +0.000 A 
ATOM     34  C   UNL     1       3.122   1.229   5.920  0.00  0.00    +0.001 A 
ATOM     35  C   UNL     1       3.655  -0.035   5.759  0.00  0.00    +0.015 A 
ENDBRANCH  29  30
ENDBRANCH   2  29
TORSDOF 5
