REMARK  Name = ZINC17316943
REMARK  13 active torsions:
REMARK  status: ('A' for Active; 'I' for Inactive)
REMARK    1  A    between atoms: C_1  and  C_2
REMARK    2  A    between atoms: C_2  and  C_3
REMARK    3  A    between atoms: C_4  and  C_36
REMARK    4  A    between atoms: N_7  and  C_10
REMARK    5  A    between atoms: C_10  and  C_12
REMARK    6  A    between atoms: C_10  and  C_13
REMARK    7  A    between atoms: N_15  and  C_16
REMARK    8  A    between atoms: C_17  and  C_24
REMARK    9  A    between atoms: C_24  and  O_26
REMARK   10  A    between atoms: O_26  and  C_27
REMARK   11  A    between atoms: C_27  and  C_28
REMARK   12  A    between atoms: C_30  and  C_35
REMARK   13  A    between atoms: C_32  and  C_34
REMARK                            x       y       z     vdW  Elec       q    Type
REMARK                         _______ _______ _______ _____ _____    ______ ____
ROOT
ATOM      1  C   UNL     1      -0.874   4.300   3.333  0.00  0.00    +0.176 C 
ATOM      2  C   UNL     1       0.641   4.359   3.539  0.00  0.00    +0.041 C 
ENDROOT
BRANCH   1   7
ATOM      3  C   UNL     1      -0.677   0.867   1.899  0.00  0.00    +0.038 A 
ATOM      4  C   UNL     1      -2.006   0.567   1.838  0.00  0.00    +0.050 A 
ATOM      5  N   UNL     1      -2.910   1.454   2.249  0.00  0.00    -0.217 NA
ATOM      6  C   UNL     1      -2.553   2.629   2.719  0.00  0.00    +0.236 A 
ATOM      7  N   UNL     1      -1.245   2.985   2.805  0.00  0.00    -0.265 N 
ATOM      8  C   UNL     1      -0.287   2.120   2.407  0.00  0.00    +0.259 A 
ATOM      9  O   UNL     1       0.893   2.422   2.482  0.00  0.00    -0.267 OA
ATOM     10  N   UNL     1      -3.528   3.519   3.135  0.00  0.00    -0.204 N 
ATOM     11  C   UNL     1      -4.873   3.349   3.017  0.00  0.00    +0.045 A 
ATOM     12  C   UNL     1      -5.471   4.441   3.543  0.00  0.00    +0.048 A 
ATOM     13  C   UNL     1      -4.467   5.307   3.997  0.00  0.00    +0.061 A 
ATOM     14  N   UNL     1      -3.307   4.754   3.758  0.00  0.00    -0.169 NA
ATOM     15  C   UNL     1      -4.688   6.645   4.654  0.00  0.00    +0.067 C 
ATOM     16  C   UNL     1      -5.570   2.158   2.410  0.00  0.00    +0.066 C 
ATOM     17  C   UNL     1      -2.452  -0.770   1.304  0.00  0.00    +0.066 C 
BRANCH   3  19
ATOM     18  C   UNL     1       0.733   0.167  -0.017  0.00  0.00    +0.009 C 
ATOM     19  C   UNL     1       0.356  -0.128   1.436  0.00  0.00    +0.039 C 
ENDBRANCH   3  19
ENDBRANCH   1   7
BRANCH   1  20
ATOM     20  C   UNL     1      -1.290   5.369   2.355  0.00  0.00    +0.240 C 
ATOM     21  O   UNL     1      -1.842   5.062   1.319  0.00  0.00    -0.273 OA
ATOM     22  N   UNL     1      -1.049   6.666   2.632  0.00  0.00    -0.278 N 
ATOM     23  H   UNL     1      -0.608   6.912   3.460  0.00  0.00    +0.155 HD
BRANCH  22  24
ATOM     24  C   UNL     1      -1.431   7.649   1.733  0.00  0.00    +0.086 A 
ATOM     25  C   UNL     1      -1.277   9.022   1.840  0.00  0.00    +0.091 A 
ATOM     26  C   UNL     1      -1.770   9.847   0.737  0.00  0.00    -0.021 A 
ATOM     27  C   UNL     1      -2.337   9.167  -0.275  0.00  0.00    -0.004 A 
ATOM     28  S   UNL     1      -2.225   7.461   0.206  0.00  0.00    -0.077 S 
ATOM     29  C   UNL     1      -2.821  10.082  -1.368  0.00  0.00    +0.043 C 
ATOM     30  C   UNL     1      -2.091  11.418  -1.107  0.00  0.00    +0.010 C 
ATOM     31  C   UNL     1      -1.823  11.339   0.409  0.00  0.00    +0.037 C 
BRANCH  25  32
ATOM     32  C   UNL     1      -0.640   9.624   3.013  0.00  0.00    +0.342 C 
ATOM     33  O   UNL     1       0.563   9.807   3.026  0.00  0.00    -0.245 OA
BRANCH  32  34
ATOM     34  O   UNL     1      -1.387   9.977   4.080  0.00  0.00    -0.461 OA
BRANCH  34  35
ATOM     35  C   UNL     1      -0.688  10.569   5.207  0.00  0.00    +0.229 C 
ATOM     36  C   UNL     1      -1.693  10.901   6.312  0.00  0.00    +0.048 C 
ENDBRANCH  34  35
ENDBRANCH  32  34
ENDBRANCH  25  32
ENDBRANCH  22  24
ENDBRANCH   1  20
TORSDOF 7
