REMARK  Name = ZINC02955054
REMARK  8 active torsions:
REMARK  status: ('A' for Active; 'I' for Inactive)
REMARK    1  A    between atoms: C_1  and  C_2
REMARK    2  A    between atoms: C_3  and  C_29
REMARK    3  A    between atoms: C_4  and  C_21
REMARK    4  A    between atoms: C_10  and  C_11
REMARK    5  A    between atoms: C_14  and  O_17
REMARK    6  A    between atoms: C_25  and  O_27
REMARK    7  A    between atoms: O_27  and  C_28
REMARK    8  A    between atoms: N_31  and  C_32
REMARK                            x       y       z     vdW  Elec       q    Type
REMARK                         _______ _______ _______ _____ _____    ______ ____
ROOT
ATOM      1  C   UNL     1      -0.263   1.078   2.856  0.00  0.00    +0.066 C 
ATOM      2  C   UNL     1      -0.096  -0.059   1.881  0.00  0.00    +0.051 C 
ATOM      3  C   UNL     1      -1.190  -0.569   1.242  0.00  0.00    +0.063 C 
ATOM      4  C   UNL     1      -0.980  -1.708   0.271  0.00  0.00    +0.160 C 
ATOM      5  N   UNL     1       0.416  -2.193   0.084  0.00  0.00    -0.275 N 
ATOM      6  C   UNL     1       0.802  -3.187  -0.728  0.00  0.00    +0.268 A 
ATOM      7  O   UNL     1      -0.008  -3.794  -1.404  0.00  0.00    -0.266 OA
ATOM      8  C   UNL     1       2.232  -3.522  -0.777  0.00  0.00    +0.081 A 
ATOM      9  C   UNL     1       2.871  -4.472  -1.508  0.00  0.00    +0.028 C 
ATOM     10  S   UNL     1       2.901  -2.340   0.382  0.00  0.00    -0.046 S 
ATOM     11  C   UNL     1       1.372  -1.539   0.827  0.00  0.00    +0.178 A 
ATOM     12  N   UNL     1       1.114  -0.552   1.647  0.00  0.00    -0.228 NA
ENDROOT
BRANCH   9  13
ATOM     13  C   UNL     1       4.285  -4.768  -1.249  0.00  0.00    -0.024 A 
ATOM     14  C   UNL     1       4.929  -4.208  -0.139  0.00  0.00    +0.011 A 
ATOM     15  C   UNL     1       6.256  -4.489   0.099  0.00  0.00    +0.046 A 
ATOM     16  C   UNL     1       6.956  -5.327  -0.762  0.00  0.00    +0.117 A 
ATOM     17  C   UNL     1       6.322  -5.885  -1.866  0.00  0.00    +0.046 A 
ATOM     18  C   UNL     1       4.995  -5.615  -2.110  0.00  0.00    +0.011 A 
BRANCH  16  19
ATOM     19  O   UNL     1       8.264  -5.600  -0.523  0.00  0.00    -0.507 OA
ATOM     20  H   UNL     1       8.408  -6.377   0.034  0.00  0.00    +0.292 HD
ENDBRANCH  16  19
ENDBRANCH   9  13
BRANCH   4  21
ATOM     21  C   UNL     1      -1.816  -2.873   0.736  0.00  0.00    -0.016 A 
ATOM     22  C   UNL     1      -1.431  -3.599   1.849  0.00  0.00    +0.006 A 
ATOM     23  C   UNL     1      -2.196  -4.668   2.278  0.00  0.00    +0.004 A 
ATOM     24  C   UNL     1      -3.346  -5.013   1.595  0.00  0.00    +0.045 A 
ATOM     25  C   UNL     1      -3.735  -4.287   0.480  0.00  0.00    +0.120 A 
ATOM     26  C   UNL     1      -2.969  -3.211   0.054  0.00  0.00    +0.051 A 
BRANCH  25  27
ATOM     27  O   UNL     1      -4.866  -4.625  -0.193  0.00  0.00    -0.495 OA
ATOM     28  C   UNL     1      -5.608  -5.740   0.305  0.00  0.00    +0.277 C 
ENDBRANCH  25  27
ENDBRANCH   4  21
BRANCH   3  29
ATOM     29  C   UNL     1      -2.475  -0.049   1.480  0.00  0.00    +0.248 C 
ATOM     30  O   UNL     1      -2.993   0.694   0.664  0.00  0.00    -0.270 OA
ATOM     31  N   UNL     1      -3.134  -0.371   2.611  0.00  0.00    -0.282 N 
ATOM     32  H   UNL     1      -2.686  -0.881   3.304  0.00  0.00    +0.155 HD
BRANCH  31  33
ATOM     33  C   UNL     1      -4.463   0.028   2.784  0.00  0.00    +0.034 A 
ATOM     34  C   UNL     1      -5.304   0.141   1.685  0.00  0.00    +0.023 A 
ATOM     35  C   UNL     1      -6.616   0.535   1.860  0.00  0.00    +0.002 A 
ATOM     36  C   UNL     1      -7.092   0.817   3.127  0.00  0.00    +0.000 A 
ATOM     37  C   UNL     1      -6.257   0.704   4.224  0.00  0.00    +0.002 A 
ATOM     38  C   UNL     1      -4.946   0.306   4.056  0.00  0.00    +0.023 A 
ENDBRANCH  31  33
ENDBRANCH   3  29
TORSDOF 6
