REMARK  Name = ZINC39896781
REMARK  12 active torsions:
REMARK  status: ('A' for Active; 'I' for Inactive)
REMARK    1  A    between atoms: C_1  and  C_2
REMARK    2  A    between atoms: C_2  and  C_3
REMARK    3  A    between atoms: C_6  and  C_9
REMARK    4  A    between atoms: C_9  and  C_10
REMARK    5  A    between atoms: N_14  and  C_32
REMARK    6  A    between atoms: C_16  and  C_17
REMARK    7  A    between atoms: C_16  and  C_19
REMARK    8  A    between atoms: N_21  and  C_22
REMARK    9  A    between atoms: C_22  and  C_24
REMARK   10  A    between atoms: C_22  and  C_25
REMARK   11  A    between atoms: C_35  and  C_39
REMARK   12  A    between atoms: C_36  and  C_38
REMARK                            x       y       z     vdW  Elec       q    Type
REMARK                         _______ _______ _______ _____ _____    ______ ____
ROOT
ATOM      1  C   UNL     1      -6.667  -0.132  -0.076  0.00  0.00    +0.143 C 
ATOM      2  C   UNL     1      -8.037  -0.792  -0.075  0.00  0.00    +0.238 C 
ATOM      3  O   UNL     1      -8.664  -0.977  -1.096  0.00  0.00    -0.274 OA
ATOM      4  N   UNL     1      -8.500  -1.151   1.110  0.00  0.00    -0.232 N 
ATOM      5  C   UNL     1      -7.798  -0.946   2.273  0.00  0.00    +0.098 C 
ATOM      6  C   UNL     1      -8.173  -1.276   3.576  0.00  0.00    +0.141 C 
ATOM      7  S   UNL     1      -6.290  -0.157   1.725  0.00  0.00    -0.095 S 
ENDROOT
BRANCH   4   8
ATOM      8  C   UNL     1      -9.757  -1.765   1.183  0.00  0.00    +0.042 A 
ATOM      9  C   UNL     1     -10.902  -0.992   1.321  0.00  0.00    +0.024 A 
ATOM     10  C   UNL     1     -12.140  -1.600   1.393  0.00  0.00    +0.005 A 
ATOM     11  C   UNL     1     -12.240  -2.978   1.327  0.00  0.00    -0.047 A 
ATOM     12  C   UNL     1     -11.102  -3.750   1.189  0.00  0.00    -0.046 A 
ATOM     13  C   UNL     1      -9.861  -3.148   1.111  0.00  0.00    +0.027 A 
ATOM     14  C   UNL     1     -11.215  -5.251   1.118  0.00  0.00    +0.044 C 
ATOM     15  C   UNL     1     -13.592  -3.638   1.406  0.00  0.00    +0.044 C 
ENDBRANCH   4   8
BRANCH   6  16
ATOM     16  C   UNL     1      -7.237  -1.073   4.680  0.00  0.00    +0.257 C 
ATOM     17  O   UNL     1      -6.129  -0.616   4.463  0.00  0.00    -0.269 OA
ATOM     18  N   UNL     1      -7.599  -1.391   5.939  0.00  0.00    -0.304 N 
ATOM     19  H   UNL     1      -8.482  -1.755   6.112  0.00  0.00    +0.150 HD
BRANCH  18  20
ATOM     20  C   UNL     1      -6.661  -1.188   7.045  0.00  0.00    +0.100 C 
ATOM     21  C   UNL     1      -5.737  -2.402   7.160  0.00  0.00    +0.033 C 
BRANCH  20  22
ATOM     22  C   UNL     1      -7.429  -1.017   8.330  0.00  0.00    -0.027 A 
ATOM     23  C   UNL     1      -8.540  -1.802   8.581  0.00  0.00    +0.005 A 
ATOM     24  C   UNL     1      -9.245  -1.645   9.760  0.00  0.00    +0.000 A 
ATOM     25  C   UNL     1      -8.839  -0.705  10.688  0.00  0.00    +0.000 A 
ATOM     26  C   UNL     1      -7.728   0.079  10.438  0.00  0.00    +0.000 A 
ATOM     27  C   UNL     1      -7.020  -0.081   9.261  0.00  0.00    +0.005 A 
ENDBRANCH  20  22
ENDBRANCH  18  20
ENDBRANCH   6  16
BRANCH   6  28
ATOM     28  C   UNL     1      -9.476  -1.813   3.831  0.00  0.00    +0.107 C 
ATOM     29  N   UNL     1     -10.509  -2.239   4.033  0.00  0.00    -0.191 NA
ENDBRANCH   6  28
BRANCH   1  30
ATOM     30  C   UNL     1      -5.652  -0.961  -0.867  0.00  0.00    +0.059 C 
BRANCH  30  34
ATOM     31  C   UNL     1      -1.873   1.030  -0.864  0.00  0.00    -0.048 A 
ATOM     32  C   UNL     1      -2.179   0.128   0.137  0.00  0.00    +0.004 A 
ATOM     33  C   UNL     1      -3.402  -0.516   0.136  0.00  0.00    +0.004 A 
ATOM     34  C   UNL     1      -4.319  -0.258  -0.865  0.00  0.00    -0.046 A 
ATOM     35  C   UNL     1      -4.013   0.645  -1.866  0.00  0.00    +0.004 A 
ATOM     36  C   UNL     1      -2.792   1.293  -1.863  0.00  0.00    +0.004 A 
BRANCH  31  38
ATOM     37  C   UNL     1      -0.649   3.034  -0.067  0.00  0.00    +0.009 C 
ATOM     38  C   UNL     1      -0.539   1.732  -0.863  0.00  0.00    +0.032 C 
ENDBRANCH  31  38
ENDBRANCH  30  34
ENDBRANCH   1  30
TORSDOF 8
