REMARK  Name = ZINC36206042
REMARK  21 active torsions:
REMARK  status: ('A' for Active; 'I' for Inactive)
REMARK    1  A    between atoms: C_1  and  C_2
REMARK    2  A    between atoms: C_2  and  C_3
REMARK    3  A    between atoms: C_2  and  C_4
REMARK    4  A    between atoms: C_4  and  C_5
REMARK    5  A    between atoms: C_5  and  N_6
REMARK    6  A    between atoms: N_6  and  C_7
REMARK    7  A    between atoms: N_6  and  C_29
REMARK    8  A    between atoms: C_7  and  C_8
REMARK    9  A    between atoms: C_14  and  C_19
REMARK   10  A    between atoms: C_22  and  O_27
REMARK   11  A    between atoms: C_23  and  O_25
REMARK   12  A    between atoms: O_25  and  C_26
REMARK   13  A    between atoms: O_27  and  C_28
REMARK   14  A    between atoms: C_29  and  C_30
REMARK   15  A    between atoms: C_30  and  C_32
REMARK   16  A    between atoms: C_30  and  O_38
REMARK   17  A    between atoms: C_32  and  O_33
REMARK   18  A    between atoms: O_33  and  C_34
REMARK   19  A    between atoms: C_34  and  C_35
REMARK   20  A    between atoms: C_35  and  C_36
REMARK   21  A    between atoms: C_35  and  C_37
REMARK                            x       y       z     vdW  Elec       q    Type
REMARK                         _______ _______ _______ _____ _____    ______ ____
ROOT
ATOM      1  C   UNL     1       2.999  -0.733  -4.782  0.00  0.00    +0.094 A 
ATOM      2  N   UNL     1       2.631  -0.350  -6.031  0.00  0.00    -0.312 N 
ATOM      3  H   UNL     1       2.024   0.399  -6.140  0.00  0.00    +0.170 HD
ATOM      4  C   UNL     1       3.093  -0.989  -7.122  0.00  0.00    +0.260 A 
ATOM      5  O   UNL     1       2.753  -0.633  -8.238  0.00  0.00    -0.267 OA
ATOM      6  C   UNL     1       3.989  -2.093  -6.953  0.00  0.00    +0.080 A 
ATOM      7  C   UNL     1       4.617  -2.934  -7.964  0.00  0.00    +0.004 A 
ATOM      8  C   UNL     1       5.440  -3.932  -7.561  0.00  0.00    +0.056 A 
ATOM      9  S   UNL     1       5.415  -3.796  -5.784  0.00  0.00    -0.076 S 
ATOM     10  C   UNL     1       4.312  -2.415  -5.625  0.00  0.00    +0.116 A 
ATOM     11  N   UNL     1       3.819  -1.732  -4.595  0.00  0.00    -0.229 NA
ENDROOT
BRANCH   7  12
ATOM     12  C   UNL     1       4.361  -2.702  -9.406  0.00  0.00    -0.013 A 
ATOM     13  C   UNL     1       3.053  -2.575  -9.870  0.00  0.00    +0.012 A 
ATOM     14  C   UNL     1       2.814  -2.359 -11.213  0.00  0.00    +0.050 A 
ATOM     15  C   UNL     1       3.875  -2.268 -12.102  0.00  0.00    +0.162 A 
ATOM     16  C   UNL     1       5.183  -2.395 -11.643  0.00  0.00    +0.162 A 
ATOM     17  C   UNL     1       5.427  -2.606 -10.298  0.00  0.00    +0.058 A 
BRANCH  16  18
ATOM     18  O   UNL     1       6.221  -2.306 -12.517  0.00  0.00    -0.491 OA
ATOM     19  C   UNL     1       7.537  -2.445 -11.977  0.00  0.00    +0.277 C 
ENDBRANCH  16  18
BRANCH  15  20
ATOM     20  O   UNL     1       3.636  -2.057 -13.424  0.00  0.00    -0.491 OA
ATOM     21  C   UNL     1       2.269  -1.937 -13.825  0.00  0.00    +0.277 C 
ENDBRANCH  15  20
ENDBRANCH   7  12
BRANCH   1  22
ATOM     22  C   UNL     1       2.458   0.013  -3.589  0.00  0.00    -0.003 C 
BRANCH  22  23
ATOM     23  N   UNL     1       3.111  -0.475  -2.368  0.00  0.00    +0.386 N 
ATOM     24  H   UNL     1       3.026  -1.479  -2.319  0.00  0.00    -0.081 HD
BRANCH  23  25
ATOM     25  C   UNL     1       2.468   0.129  -1.193  0.00  0.00    -0.078 C 
BRANCH  25  26
ATOM     26  C   UNL     1       1.022  -0.363  -1.095  0.00  0.00    -0.016 C 
BRANCH  26  28
ATOM     27  C   UNL     1       0.302   1.677   0.155  0.00  0.00    +0.007 C 
ATOM     28  C   UNL     1       0.396   0.151   0.203  0.00  0.00    -0.019 C 
ATOM     29  C   UNL     1      -1.006  -0.441   0.362  0.00  0.00    +0.007 C 
ENDBRANCH  26  28
ENDBRANCH  25  26
ENDBRANCH  23  25
BRANCH  23  30
ATOM     30  C   UNL     1       4.533  -0.104  -2.392  0.00  0.00    -0.044 C 
BRANCH  30  31
ATOM     31  C   UNL     1       5.240  -0.719  -1.182  0.00  0.00    +0.124 C 
BRANCH  31  32
ATOM     32  O   UNL     1       5.219  -2.144  -1.291  0.00  0.00    -0.391 OA
ATOM     33  H   UNL     1       5.658  -2.484  -2.082  0.00  0.00    +0.210 HD
ENDBRANCH  31  32
BRANCH  31  34
ATOM     34  C   UNL     1       6.690  -0.232  -1.138  0.00  0.00    +0.189 C 
BRANCH  34  35
ATOM     35  O   UNL     1       7.317  -0.712   0.053  0.00  0.00    -0.377 OA
BRANCH  35  36
ATOM     36  C   UNL     1       8.682  -0.312   0.193  0.00  0.00    +0.163 C 
BRANCH  36  37
ATOM     37  C   UNL     1       9.249  -0.878   1.496  0.00  0.00    +0.009 C 
ATOM     38  C   UNL     1      10.742  -0.556   1.586  0.00  0.00    +0.009 C 
ATOM     39  C   UNL     1       8.519  -0.251   2.685  0.00  0.00    +0.009 C 
ENDBRANCH  36  37
ENDBRANCH  35  36
ENDBRANCH  34  35
ENDBRANCH  31  34
ENDBRANCH  30  31
ENDBRANCH  23  30
ENDBRANCH  22  23
ENDBRANCH   1  22
TORSDOF 15
