REMARK  Name = ZINC57006054
REMARK  5 active torsions:
REMARK  status: ('A' for Active; 'I' for Inactive)
REMARK    1  A    between atoms: C_1  and  C_2
REMARK    2  A    between atoms: C_2  and  C_4
REMARK    3  A    between atoms: C_2  and  N_12
REMARK    4  A    between atoms: N_15  and  C_16
REMARK    5  A    between atoms: C_25  and  O_27
REMARK                            x       y       z     vdW  Elec       q    Type
REMARK                         _______ _______ _______ _____ _____    ______ ____
ROOT
ATOM      1  N   UNL     1       0.688  -0.476  -1.203  0.00  0.00    -0.293 N 
ATOM      2  C   UNL     1       0.006  -0.608  -2.358  0.00  0.00    +0.301 C 
ATOM      3  O   UNL     1      -1.178  -0.335  -2.400  0.00  0.00    -0.253 OA
ATOM      4  N   UNL     1       0.637  -1.043  -3.467  0.00  0.00    -0.290 N 
ATOM      5  H   UNL     1       1.632  -0.695  -1.170  0.00  0.00    +0.151 HD
ATOM      6  H   UNL     1       1.582  -1.261  -3.434  0.00  0.00    +0.151 HD
ENDROOT
BRANCH   4   7
ATOM      7  C   UNL     1      -0.104  -1.186  -4.723  0.00  0.00    +0.134 C 
ATOM      8  C   UNL     1      -0.737  -2.558  -4.806  0.00  0.00    -0.021 A 
ATOM      9  C   UNL     1      -1.879  -3.058  -4.203  0.00  0.00    +0.006 A 
ATOM     10  C   UNL     1      -2.269  -4.364  -4.428  0.00  0.00    +0.000 A 
ATOM     11  C   UNL     1      -1.517  -5.175  -5.257  0.00  0.00    +0.000 A 
ATOM     12  C   UNL     1      -0.378  -4.679  -5.860  0.00  0.00    +0.004 A 
ATOM     13  C   UNL     1       0.015  -3.370  -5.636  0.00  0.00    -0.040 A 
ATOM     14  C   UNL     1       1.204  -2.598  -6.167  0.00  0.00    +0.069 C 
ATOM     15  C   UNL     1       0.861  -1.110  -5.926  0.00  0.00    +0.143 C 
BRANCH  15  16
ATOM     16  O   UNL     1       2.033  -0.364  -5.590  0.00  0.00    -0.389 OA
ATOM     17  H   UNL     1       2.671  -0.288  -6.313  0.00  0.00    +0.210 HD
ENDBRANCH  15  16
ENDBRANCH   4   7
BRANCH   1  19
ATOM     18  C   UNL     1      -0.019   1.526   0.010  0.00  0.00    +0.033 C 
ATOM     19  C   UNL     1       0.002  -0.004   0.002  0.00  0.00    +0.102 C 
BRANCH  19  20
ATOM     20  C   UNL     1       0.731  -0.503   1.223  0.00  0.00    -0.026 A 
ATOM     21  C   UNL     1       2.113  -0.513   1.246  0.00  0.00    +0.008 A 
ATOM     22  C   UNL     1       2.783  -0.970   2.365  0.00  0.00    +0.040 A 
ATOM     23  C   UNL     1       2.070  -1.419   3.464  0.00  0.00    +0.142 A 
ATOM     24  C   UNL     1       0.685  -1.408   3.440  0.00  0.00    +0.076 A 
ATOM     25  C   UNL     1       0.017  -0.945   2.321  0.00  0.00    +0.028 A 
ATOM     26 CL   UNL     1      -0.212  -1.970   4.816  0.00  0.00    -0.081 Cl
ATOM     27  F   UNL     1       2.724  -1.866   4.558  0.00  0.00    -0.204 F 
ENDBRANCH  19  20
ENDBRANCH   1  19
TORSDOF 4
