REMARK  Name = ZINC16940685
REMARK  6 active torsions:
REMARK  status: ('A' for Active; 'I' for Inactive)
REMARK    1  A    between atoms: C_1  and  S_2
REMARK    2  A    between atoms: S_2  and  N_5
REMARK    3  A    between atoms: N_5  and  N_6
REMARK    4  A    between atoms: N_13  and  N_14
REMARK    5  A    between atoms: N_14  and  S_15
REMARK    6  A    between atoms: S_15  and  C_18
REMARK                            x       y       z     vdW  Elec       q    Type
REMARK                         _______ _______ _______ _____ _____    ______ ____
ROOT
ATOM      1  N   UNL     1       0.993  -1.760  -1.719  0.00  0.00    -0.146 NA
ATOM      2  C   UNL     1       1.617  -2.080  -2.818  0.00  0.00    +0.067 C 
ATOM      3  C   UNL     1       2.155  -1.194  -3.775  0.00  0.00    +0.029 C 
ATOM      4  C   UNL     1       2.738  -1.858  -4.799  0.00  0.00    -0.036 C 
ATOM      5  C   UNL     1       2.647  -3.252  -4.628  0.00  0.00    -0.036 C 
ATOM      6  C   UNL     1       3.230  -3.917  -5.652  0.00  0.00    +0.029 C 
ATOM      7  C   UNL     1       3.768  -3.030  -6.608  0.00  0.00    +0.067 C 
ATOM      8  N   UNL     1       4.392  -3.351  -7.708  0.00  0.00    -0.146 NA
ATOM      9  C   UNL     1       3.477  -1.633  -6.105  0.00  0.00    +0.092 C 
ATOM     10  C   UNL     1       1.914  -3.478  -3.319  0.00  0.00    +0.092 C 
ENDROOT
BRANCH   1  11
ATOM     11  N   UNL     1       0.795  -0.411  -1.394  0.00  0.00    +0.001 NA
BRANCH  11  13
ATOM     12  C   UNL     1      -0.022   1.810   0.012  0.00  0.00    +0.222 C 
ATOM     13  S   UNL     1       0.002  -0.004   0.002  0.00  0.00    +0.076 S 
ATOM     14  O   UNL     1       0.835  -0.488   1.046  0.00  0.00    -0.152 OA
ATOM     15  O   UNL     1      -1.315  -0.510  -0.168  0.00  0.00    -0.152 OA
ENDBRANCH  11  13
ENDBRANCH   1  11
BRANCH   8  16
ATOM     16  N   UNL     1       4.584  -4.699  -8.037  0.00  0.00    +0.001 NA
BRANCH  16  17
ATOM     17  S   UNL     1       5.376  -5.106  -9.433  0.00  0.00    +0.076 S 
ATOM     18  O   UNL     1       4.546  -4.616 -10.477  0.00  0.00    -0.152 OA
ATOM     19  O   UNL     1       6.695  -4.607  -9.261  0.00  0.00    -0.152 OA
ATOM     20  C   UNL     1       5.392  -6.920  -9.448  0.00  0.00    +0.222 C 
ENDBRANCH  16  17
ENDBRANCH   8  16
TORSDOF 4
