REMARK  Name = ZINC07158881
REMARK  8 active torsions:
REMARK  status: ('A' for Active; 'I' for Inactive)
REMARK    1  A    between atoms: C_1  and  C_2
REMARK    2  A    between atoms: C_6  and  O_8
REMARK    3  A    between atoms: O_8  and  C_9
REMARK    4  A    between atoms: C_9  and  C_11
REMARK    5  A    between atoms: C_9  and  C_12
REMARK    6  A    between atoms: C_12  and  O_14
REMARK    7  A    between atoms: O_14  and  C_15
REMARK    8  A    between atoms: C_15  and  C_16
REMARK                            x       y       z     vdW  Elec       q    Type
REMARK                         _______ _______ _______ _____ _____    ______ ____
ROOT
ATOM      1  O   UNL     1       2.175   8.018  -0.573  0.00  0.00    -0.457 OA
ENDROOT
BRANCH   1   2
ATOM      2  C   UNL     1       1.083   7.244  -0.467  0.00  0.00    +0.348 C 
ATOM      3  O   UNL     1       0.014   7.652  -0.854  0.00  0.00    -0.247 OA
BRANCH   2   4
ATOM      4  C   UNL     1       1.192   5.866   0.134  0.00  0.00    +0.278 C 
ATOM      5  C   UNL     1       1.588   5.982   1.607  0.00  0.00    +0.064 C 
BRANCH   4   6
ATOM      6  O   UNL     1      -0.069   5.201   0.031  0.00  0.00    -0.478 OA
BRANCH   6  12
ATOM      7  C   UNL     1      -2.475   0.980  -0.432  0.00  0.00    +0.044 C 
ATOM      8  C   UNL     1      -1.202   1.751  -0.198  0.00  0.00    -0.047 A 
ATOM      9  C   UNL     1      -0.013   1.076   0.011  0.00  0.00    +0.003 A 
ATOM     10  C   UNL     1       1.157   1.781   0.222  0.00  0.00    +0.004 A 
ATOM     11  C   UNL     1       1.142   3.162   0.228  0.00  0.00    +0.046 A 
ATOM     12  C   UNL     1      -0.050   3.842   0.024  0.00  0.00    +0.122 A 
ATOM     13  C   UNL     1      -1.224   3.132  -0.186  0.00  0.00    +0.049 A 
ENDBRANCH   6  12
ENDBRANCH   4   6
ENDBRANCH   2   4
ENDBRANCH   1   2
BRANCH   1  14
ATOM     14  C   UNL     1       1.996   9.332  -1.163  0.00  0.00    +0.271 C 
BRANCH  14  15
ATOM     15  C   UNL     1       3.320  10.051  -1.199  0.00  0.00    +0.033 A 
ATOM     16  C   UNL     1       4.455   9.433  -0.711  0.00  0.00    +0.030 A 
ATOM     17  C   UNL     1       5.671  10.092  -0.745  0.00  0.00    +0.042 A 
ATOM     18  C   UNL     1       5.752  11.371  -1.266  0.00  0.00    +0.029 A 
ATOM     19  C   UNL     1       4.618  11.994  -1.753  0.00  0.00    +0.022 A 
ATOM     20  C   UNL     1       3.401  11.332  -1.728  0.00  0.00    +0.135 A 
ATOM     21  O   UNL     1       2.280  11.928  -2.216  0.00  0.00    -0.465 OA
ATOM     22  C   UNL     1       2.332  13.345  -2.405  0.00  0.00    +0.394 C 
ATOM     23  O   UNL     1       3.546  13.671  -3.091  0.00  0.00    -0.339 OA
ATOM     24  C   UNL     1       4.716  13.391  -2.311  0.00  0.00    +0.202 C 
ATOM     25 CL   UNL     1       7.097   9.313  -0.132  0.00  0.00    -0.084 Cl
ENDBRANCH  14  15
ENDBRANCH   1  14
TORSDOF 6
