REMARK  Name = ZINC39710672
REMARK  15 active torsions:
REMARK  status: ('A' for Active; 'I' for Inactive)
REMARK    1  A    between atoms: C_1  and  C_2
REMARK    2  A    between atoms: C_2  and  C_3
REMARK    3  A    between atoms: C_3  and  C_4
REMARK    4  A    between atoms: C_3  and  C_5
REMARK    5  A    between atoms: C_3  and  N_6
REMARK    6  A    between atoms: C_7  and  C_12
REMARK    7  A    between atoms: C_12  and  C_14
REMARK    8  A    between atoms: C_12  and  N_27
REMARK    9  A    between atoms: C_20  and  C_26
REMARK   10  A    between atoms: N_27  and  C_28
REMARK   11  A    between atoms: N_27  and  C_37
REMARK   12  A    between atoms: C_28  and  C_29
REMARK   13  A    between atoms: C_32  and  O_35
REMARK   14  A    between atoms: O_35  and  C_36
REMARK   15  A    between atoms: C_37  and  C_38
REMARK                            x       y       z     vdW  Elec       q    Type
REMARK                         _______ _______ _______ _____ _____    ______ ____
ROOT
ATOM      1  C   UNL     1       2.543  -3.908  -2.382  0.00  0.00    +0.115 C 
ENDROOT
BRANCH   1   2
ATOM      2  C   UNL     1       2.604  -5.407  -2.086  0.00  0.00    +0.119 C 
ATOM      3  C   UNL     1       1.964  -6.138  -3.250  0.00  0.00    -0.003 C 
ATOM      4  C   UNL     1       0.901  -6.945  -2.973  0.00  0.00    -0.007 A 
ATOM      5  C   UNL     1       0.224  -7.686  -4.037  0.00  0.00    +0.010 A 
ATOM      6  C   UNL     1      -0.832  -8.478  -3.715  0.00  0.00    +0.004 A 
ATOM      7  C   UNL     1      -1.276  -8.595  -2.397  0.00  0.00    -0.049 A 
ATOM      8  C   UNL     1      -0.691  -7.933  -1.365  0.00  0.00    +0.027 A 
ATOM      9  C   UNL     1       0.410  -7.088  -1.591  0.00  0.00    +0.041 A 
ATOM     10  N   UNL     1       0.977  -6.444  -0.570  0.00  0.00    -0.284 N 
ATOM     11  C   UNL     1       2.011  -5.634  -0.713  0.00  0.00    +0.226 C 
ATOM     12  O   UNL     1       2.485  -5.073   0.257  0.00  0.00    -0.275 OA
ATOM     13  C   UNL     1      -2.453  -9.490  -2.108  0.00  0.00    +0.044 C 
ATOM     14  H   UNL     1       0.612  -6.576   0.319  0.00  0.00    +0.155 HD
ENDBRANCH   1   2
BRANCH   1  16
ATOM     15  N   UNL     1       0.473  -3.679  -1.053  0.00  0.00    -0.179 NA
ATOM     16  C   UNL     1       1.085  -3.446  -2.378  0.00  0.00    +0.236 C 
ATOM     17  N   UNL     1       0.284  -4.261  -3.302  0.00  0.00    -0.148 NA
ATOM     18  N   UNL     1      -0.597  -4.840  -2.662  0.00  0.00    -0.069 NA
ATOM     19  N   UNL     1      -0.558  -4.548  -1.299  0.00  0.00    -0.179 N 
ATOM     20  H   UNL     1      -1.165  -4.903  -0.631  0.00  0.00    +0.191 HD
BRANCH  15  21
ATOM     21  C   UNL     1      -0.023  -2.424  -0.474  0.00  0.00    +0.037 C 
ATOM     22  C   UNL     1      -0.997  -1.761  -1.451  0.00  0.00    +0.029 C 
ATOM     23  C   UNL     1       1.154  -1.483  -0.210  0.00  0.00    +0.029 C 
BRANCH  21  25
ATOM     24  C   UNL     1      -1.261  -1.412   1.446  0.00  0.00    +0.006 C 
ATOM     25  C   UNL     1      -0.744  -2.719   0.843  0.00  0.00    +0.020 C 
ENDBRANCH  21  25
ENDBRANCH  15  21
ENDBRANCH   1  16
BRANCH   1  26
ATOM     26  N   UNL     1       3.137  -3.644  -3.699  0.00  0.00    -0.288 NA
BRANCH  26  27
ATOM     27  C   UNL     1       3.175  -2.203  -3.981  0.00  0.00    +0.120 C 
BRANCH  27  28
ATOM     28  C   UNL     1       3.605  -1.981  -5.408  0.00  0.00    -0.033 A 
ATOM     29  C   UNL     1       4.947  -1.841  -5.711  0.00  0.00    +0.008 A 
ATOM     30  C   UNL     1       5.344  -1.637  -7.018  0.00  0.00    +0.046 A 
ATOM     31  C   UNL     1       4.394  -1.573  -8.028  0.00  0.00    +0.120 A 
ATOM     32  C   UNL     1       3.049  -1.714  -7.721  0.00  0.00    +0.046 A 
ATOM     33  C   UNL     1       2.658  -1.923  -6.413  0.00  0.00    +0.008 A 
BRANCH  31  34
ATOM     34  O   UNL     1       4.782  -1.372  -9.315  0.00  0.00    -0.495 OA
ATOM     35  C   UNL     1       3.750  -1.317 -10.302  0.00  0.00    +0.277 C 
ENDBRANCH  31  34
ENDBRANCH  27  28
ENDBRANCH  26  27
BRANCH  26  36
ATOM     36  C   UNL     1       4.478  -4.236  -3.800  0.00  0.00    +0.116 C 
BRANCH  36  37
ATOM     37  C   UNL     1       5.426  -3.518  -2.838  0.00  0.00    +0.132 C 
ATOM     38  C   UNL     1       6.866  -4.039  -3.035  0.00  0.00    +0.035 C 
ATOM     39  C   UNL     1       7.398  -4.097  -1.577  0.00  0.00    +0.031 C 
ATOM     40  C   UNL     1       6.109  -4.486  -0.809  0.00  0.00    +0.160 C 
ATOM     41  O   UNL     1       5.046  -3.792  -1.485  0.00  0.00    -0.375 OA
ENDBRANCH  36  37
ENDBRANCH  26  36
ENDBRANCH   1  26
TORSDOF 10
