REMARK  Name = ZINC35778046
REMARK  15 active torsions:
REMARK  status: ('A' for Active; 'I' for Inactive)
REMARK    1  A    between atoms: C_1  and  C_2
REMARK    2  A    between atoms: C_2  and  C_3
REMARK    3  A    between atoms: C_3  and  N_4
REMARK    4  A    between atoms: N_4  and  C_5
REMARK    5  A    between atoms: N_4  and  C_26
REMARK    6  A    between atoms: C_5  and  C_6
REMARK    7  A    between atoms: C_7  and  C_25
REMARK    8  A    between atoms: N_9  and  C_19
REMARK    9  A    between atoms: C_10  and  O_11
REMARK   10  A    between atoms: O_11  and  C_12
REMARK   11  A    between atoms: C_16  and  C_18
REMARK   12  A    between atoms: C_26  and  C_27
REMARK   13  A    between atoms: C_27  and  C_29
REMARK   14  A    between atoms: C_27  and  O_36
REMARK   15  A    between atoms: C_29  and  C_30
REMARK                            x       y       z     vdW  Elec       q    Type
REMARK                         _______ _______ _______ _____ _____    ______ ____
ROOT
ATOM      1  C   UNL     1       2.927  -1.719  -2.225  0.00  0.00    +0.021 A 
ATOM      2  C   UNL     1       3.154  -0.361  -2.470  0.00  0.00    +0.065 A 
ATOM      3  N   UNL     1       4.268  -0.014  -1.878  0.00  0.00    -0.168 NA
ATOM      4  N   UNL     1       4.795  -1.139  -1.232  0.00  0.00    -0.200 N 
ATOM      5  C   UNL     1       3.949  -2.180  -1.455  0.00  0.00    +0.225 A 
ATOM      6  C   UNL     1       2.265   0.548  -3.279  0.00  0.00    +0.068 C 
ENDROOT
BRANCH   4   7
ATOM      7  C   UNL     1       5.980  -1.183  -0.484  0.00  0.00    +0.069 A 
ATOM      8  C   UNL     1       6.035  -1.922   0.690  0.00  0.00    +0.028 A 
ATOM      9  C   UNL     1       7.204  -1.964   1.424  0.00  0.00    +0.002 A 
ATOM     10  C   UNL     1       8.319  -1.270   0.991  0.00  0.00    +0.000 A 
ATOM     11  C   UNL     1       8.267  -0.533  -0.178  0.00  0.00    +0.002 A 
ATOM     12  C   UNL     1       7.103  -0.493  -0.920  0.00  0.00    +0.028 A 
ENDBRANCH   4   7
BRANCH   1  13
ATOM     13  C   UNL     1       1.756  -2.527  -2.721  0.00  0.00    -0.036 C 
BRANCH  13  14
ATOM     14  N   UNL     1       0.747  -2.630  -1.659  0.00  0.00    +0.384 N 
ATOM     15  H   UNL     1       1.174  -3.000  -0.823  0.00  0.00    -0.081 HD
BRANCH  14  16
ATOM     16  C   UNL     1       0.195  -1.298  -1.377  0.00  0.00    -0.079 C 
BRANCH  16  18
ATOM     17  C   UNL     1      -1.066   0.630  -2.343  0.00  0.00    +0.002 C 
ATOM     18  C   UNL     1      -0.578  -0.797  -2.598  0.00  0.00    -0.022 C 
ENDBRANCH  16  18
ENDBRANCH  14  16
BRANCH  14  19
ATOM     19  C   UNL     1      -0.333  -3.525  -2.094  0.00  0.00    -0.046 C 
BRANCH  19  20
ATOM     20  C   UNL     1      -1.328  -3.720  -0.948  0.00  0.00    +0.102 C 
BRANCH  20  21
ATOM     21  O   UNL     1      -0.656  -4.301   0.172  0.00  0.00    -0.393 OA
ATOM     22  H   UNL     1      -0.259  -5.164  -0.012  0.00  0.00    +0.210 HD
ENDBRANCH  20  21
BRANCH  20  23
ATOM     23  C   UNL     1      -2.456  -4.647  -1.403  0.00  0.00    +0.064 C 
BRANCH  23  24
ATOM     24  C   UNL     1      -3.498  -4.742  -0.318  0.00  0.00    -0.045 A 
ATOM     25  C   UNL     1      -3.394  -5.717   0.656  0.00  0.00    +0.004 A 
ATOM     26  C   UNL     1      -4.350  -5.804   1.651  0.00  0.00    +0.000 A 
ATOM     27  C   UNL     1      -5.408  -4.915   1.673  0.00  0.00    +0.000 A 
ATOM     28  C   UNL     1      -5.511  -3.939   0.699  0.00  0.00    +0.000 A 
ATOM     29  C   UNL     1      -4.553  -3.850  -0.294  0.00  0.00    +0.004 A 
ENDBRANCH  23  24
ENDBRANCH  20  23
ENDBRANCH  19  20
ENDBRANCH  14  19
ENDBRANCH  13  14
ENDBRANCH   1  13
BRANCH   5  30
ATOM     30  O   UNL     1       4.098  -3.449  -0.995  0.00  0.00    -0.438 OA
BRANCH  30  31
ATOM     31  C   UNL     1       4.865  -4.304  -1.721  0.00  0.00    +0.131 A 
ATOM     32  C   UNL     1       5.558  -3.845  -2.832  0.00  0.00    +0.046 A 
ATOM     33  C   UNL     1       6.336  -4.716  -3.568  0.00  0.00    +0.004 A 
ATOM     34  C   UNL     1       6.426  -6.046  -3.198  0.00  0.00    +0.003 A 
ATOM     35  C   UNL     1       5.737  -6.506  -2.092  0.00  0.00    -0.047 A 
ATOM     36  C   UNL     1       4.961  -5.637  -1.349  0.00  0.00    +0.049 A 
ATOM     37  C   UNL     1       5.837  -7.956  -1.692  0.00  0.00    +0.044 C 
ENDBRANCH  30  31
ENDBRANCH   5  30
TORSDOF 12
