REMARK  Name = ZINC43015267
REMARK  7 active torsions:
REMARK  status: ('A' for Active; 'I' for Inactive)
REMARK    1  A    between atoms: C_1  and  C_2
REMARK    2  A    between atoms: N_5  and  C_18
REMARK    3  A    between atoms: C_7  and  N_9
REMARK    4  A    between atoms: C_10  and  C_12
REMARK    5  A    between atoms: C_18  and  C_19
REMARK    6  A    between atoms: N_21  and  C_22
REMARK    7  A    between atoms: C_25  and  N_29
REMARK                            x       y       z     vdW  Elec       q    Type
REMARK                         _______ _______ _______ _____ _____    ______ ____
ROOT
ATOM      1  C   UNL     1      -2.621  -2.094   1.546  0.00  0.00    +0.019 C 
ENDROOT
BRANCH   1   5
ATOM      2  C   UNL     1      -0.002   1.535   0.047  0.00  0.00    +0.007 C 
ATOM      3  C   UNL     1       0.011   0.005   0.025  0.00  0.00    -0.012 C 
ATOM      4  C   UNL     1      -1.429  -0.545   0.107  0.00  0.00    -0.073 C 
ATOM      5  N   UNL     1      -1.318  -1.760   0.955  0.00  0.00    +0.387 N 
ATOM      6  C   UNL     1      -0.349  -1.378   2.014  0.00  0.00    -0.055 C 
ATOM      7  C   UNL     1       0.724  -0.543   1.278  0.00  0.00    +0.058 C 
ATOM      8  H   UNL     1      -0.964  -2.536   0.416  0.00  0.00    -0.081 HD
BRANCH   7   9
ATOM      9  N   UNL     1       1.181   0.560   2.127  0.00  0.00    -0.310 N 
ATOM     10  C   UNL     1       2.221   0.379   2.965  0.00  0.00    +0.251 C 
ATOM     11  O   UNL     1       2.780  -0.701   3.018  0.00  0.00    -0.270 OA
ATOM     12  H   UNL     1       0.736   1.421   2.085  0.00  0.00    +0.149 HD
BRANCH  10  13
ATOM     13  C   UNL     1       2.678   1.482   3.813  0.00  0.00    +0.075 A 
ATOM     14  C   UNL     1       3.720   1.507   4.729  0.00  0.00    +0.022 A 
ATOM     15  C   UNL     1       3.912   2.700   5.383  0.00  0.00    +0.028 A 
ATOM     16  C   UNL     1       3.094   3.746   5.099  0.00  0.00    +0.079 A 
ATOM     17  S   UNL     1       2.046   3.145   3.932  0.00  0.00    -0.072 S 
ATOM     18 CL   UNL     1       3.129   5.342   5.781  0.00  0.00    -0.076 Cl
ENDBRANCH  10  13
ENDBRANCH   7   9
ENDBRANCH   1   5
BRANCH   1  19
ATOM     19  C   UNL     1      -2.511  -3.395   2.300  0.00  0.00    +0.201 C 
ATOM     20  O   UNL     1      -1.452  -3.985   2.341  0.00  0.00    -0.278 OA
ATOM     21  N   UNL     1      -3.590  -3.902   2.929  0.00  0.00    -0.285 N 
ATOM     22  H   UNL     1      -4.419  -3.400   2.950  0.00  0.00    +0.155 HD
BRANCH  21  23
ATOM     23  C   UNL     1      -3.513  -5.154   3.553  0.00  0.00    +0.069 A 
ATOM     24  C   UNL     1      -2.331  -5.554   4.163  0.00  0.00    +0.028 A 
ATOM     25  C   UNL     1      -2.255  -6.788   4.778  0.00  0.00    +0.028 A 
ATOM     26  C   UNL     1      -3.360  -7.630   4.786  0.00  0.00    +0.052 A 
ATOM     27  C   UNL     1      -4.542  -7.232   4.176  0.00  0.00    +0.066 A 
ATOM     28  C   UNL     1      -4.621  -5.994   3.566  0.00  0.00    +0.146 A 
ATOM     29  F   UNL     1      -5.772  -5.603   2.977  0.00  0.00    -0.203 F 
BRANCH  26  30
ATOM     30  N   UNL     1      -3.281  -8.882   5.409  0.00  0.00    -0.284 N 
ATOM     31  C   UNL     1      -3.378 -10.013   4.661  0.00  0.00    +0.095 A 
ATOM     32  C   UNL     1      -3.305 -11.233   5.241  0.00  0.00    +0.018 A 
ATOM     33  C   UNL     1      -3.126 -11.340   6.628  0.00  0.00    +0.007 A 
ATOM     34  C   UNL     1      -3.028 -10.203   7.377  0.00  0.00    +0.071 A 
ATOM     35  C   UNL     1      -3.104  -8.952   6.742  0.00  0.00    +0.256 A 
ATOM     36  O   UNL     1      -3.013  -7.928   7.401  0.00  0.00    -0.267 OA
ENDBRANCH  26  30
ENDBRANCH  21  23
ENDBRANCH   1  19
TORSDOF 6
