REMARK  Name = ZINC19911278
REMARK  7 active torsions:
REMARK  status: ('A' for Active; 'I' for Inactive)
REMARK    1  A    between atoms: C_1  and  C_2
REMARK    2  A    between atoms: C_2  and  C_3
REMARK    3  A    between atoms: C_2  and  N_4
REMARK    4  A    between atoms: C_7  and  C_8
REMARK    5  A    between atoms: C_17  and  C_25
REMARK    6  A    between atoms: C_19  and  C_23
REMARK    7  A    between atoms: C_20  and  N_22
REMARK                            x       y       z     vdW  Elec       q    Type
REMARK                         _______ _______ _______ _____ _____    ______ ____
ROOT
ATOM      1  N   UNL     1      -1.545  -0.296  -0.400  0.00  0.00    -0.292 NA
ATOM      2  C   UNL     1      -2.116   0.095   0.902  0.00  0.00    +0.124 C 
ATOM      3  C   UNL     1      -3.538  -0.425   0.933  0.00  0.00    +0.010 C 
ATOM      4  C   UNL     1      -4.540   0.314   1.444  0.00  0.00    +0.018 C 
ATOM      5  C   UNL     1      -3.784  -1.774   0.382  0.00  0.00    +0.136 C 
ATOM      6  C   UNL     1      -2.821  -2.394  -0.300  0.00  0.00    -0.000 C 
ATOM      7  C   UNL     1      -1.474  -1.753  -0.517  0.00  0.00    +0.120 C 
ATOM      8  C   UNL     1      -3.060  -3.768  -0.878  0.00  0.00    +0.097 C 
ATOM      9  C   UNL     1      -4.238  -4.419  -0.212  0.00  0.00    +0.098 C 
ATOM     10  C   UNL     1      -5.138  -3.678   0.482  0.00  0.00    +0.199 C 
ATOM     11  O   UNL     1      -4.996  -2.346   0.590  0.00  0.00    -0.441 OA
ENDROOT
BRANCH   4  12
ATOM     12  C   UNL     1      -4.242   1.580   2.136  0.00  0.00    -0.007 A 
ATOM     13  C   UNL     1      -3.049   1.737   2.855  0.00  0.00    +0.011 A 
ATOM     14  C   UNL     1      -2.819   2.946   3.486  0.00  0.00    +0.020 A 
ATOM     15  C   UNL     1      -3.764   3.952   3.389  0.00  0.00    +0.111 A 
ATOM     16  N   UNL     1      -4.878   3.777   2.706  0.00  0.00    -0.263 NA
ATOM     17  C   UNL     1      -5.143   2.647   2.083  0.00  0.00    +0.118 A 
ENDBRANCH   4  12
BRANCH   8  18
ATOM     18  C   UNL     1      -3.331  -3.647  -2.355  0.00  0.00    -0.017 A 
ATOM     19  C   UNL     1      -2.511  -4.284  -3.275  0.00  0.00    +0.007 A 
ATOM     20  C   UNL     1      -2.799  -4.145  -4.623  0.00  0.00    +0.020 A 
ATOM     21  C   UNL     1      -3.886  -3.382  -5.005  0.00  0.00    +0.111 A 
ATOM     22  N   UNL     1      -4.645  -2.791  -4.103  0.00  0.00    -0.263 NA
ATOM     23  C   UNL     1      -4.405  -2.906  -2.811  0.00  0.00    +0.115 A 
ENDBRANCH   8  18
BRANCH   1  25
ATOM     24  C   UNL     1      -0.357   1.837  -0.592  0.00  0.00    +0.024 C 
ATOM     25  C   UNL     1      -0.223   0.313  -0.598  0.00  0.00    +0.051 C 
ATOM     26  C   UNL     1       0.714  -0.121   0.532  0.00  0.00    +0.024 C 
ENDBRANCH   1  25
BRANCH  10  27
ATOM     27  N   UNL     1      -6.207  -4.296   1.081  0.00  0.00    -0.328 N 
ATOM     28  H   UNL     1      -6.315  -5.257   1.008  0.00  0.00    +0.145 HD
ATOM     29  H   UNL     1      -6.854  -3.772   1.579  0.00  0.00    +0.145 HD
ENDBRANCH  10  27
BRANCH   9  30
ATOM     30  C   UNL     1      -4.414  -5.837  -0.310  0.00  0.00    +0.101 C 
ATOM     31  N   UNL     1      -4.553  -6.962  -0.388  0.00  0.00    -0.191 NA
ENDBRANCH   9  30
TORSDOF 5
