REMARK  Name = ZINC28292304
REMARK  12 active torsions:
REMARK  status: ('A' for Active; 'I' for Inactive)
REMARK    1  A    between atoms: C_1  and  C_2
REMARK    2  A    between atoms: C_4  and  C_34
REMARK    3  A    between atoms: C_6  and  C_33
REMARK    4  A    between atoms: C_7  and  C_11
REMARK    5  A    between atoms: N_13  and  C_14
REMARK    6  A    between atoms: C_14  and  C_15
REMARK    7  A    between atoms: C_15  and  C_17
REMARK    8  A    between atoms: C_15  and  N_27
REMARK    9  A    between atoms: C_20  and  C_23
REMARK   10  A    between atoms: C_23  and  C_24
REMARK   11  A    between atoms: C_23  and  C_25
REMARK   12  A    between atoms: C_23  and  C_26
REMARK                            x       y       z     vdW  Elec       q    Type
REMARK                         _______ _______ _______ _____ _____    ______ ____
ROOT
ATOM      1  C   UNL     1       6.128   0.727   0.000  0.00  0.00    +0.128 C 
ENDROOT
BRANCH   1   4
ATOM      2  C   UNL     1       3.808   0.756   0.745  0.00  0.00    +0.280 C 
ATOM      3  O   UNL     1       3.736   1.914   0.379  0.00  0.00    -0.267 OA
ATOM      4  N   UNL     1       4.961   0.074   0.599  0.00  0.00    -0.307 N 
ATOM      5  H   UNL     1       5.026  -0.973   0.930  0.00  0.00    +0.149 HD
BRANCH   2  12
ATOM      6  C   UNL     1      -1.047  -3.887   3.871  0.00  0.00    +0.044 C 
ATOM      7  C   UNL     1      -0.465  -2.634   3.268  0.00  0.00    -0.047 A 
ATOM      8  C   UNL     1      -1.255  -1.499   3.148  0.00  0.00    +0.007 A 
ATOM      9  C   UNL     1      -0.747  -0.356   2.599  0.00  0.00    -0.039 A 
ATOM     10  C   UNL     1       0.579  -0.330   2.159  0.00  0.00    +0.027 A 
ATOM     11  C   UNL     1       1.428   0.688   1.541  0.00  0.00    +0.008 A 
ATOM     12  C   UNL     1       2.637   0.101   1.345  0.00  0.00    +0.193 A 
ATOM     13  O   UNL     1       2.601  -1.174   1.786  0.00  0.00    -0.450 OA
ATOM     14  C   UNL     1       1.386  -1.476   2.283  0.00  0.00    +0.137 A 
ATOM     15  C   UNL     1       0.846  -2.627   2.845  0.00  0.00    +0.050 A 
ATOM     16  C   UNL     1       1.040   2.102   1.192  0.00  0.00    +0.048 C 
ATOM     17  C   UNL     1      -1.612   0.871   2.468  0.00  0.00    +0.044 C 
ENDBRANCH   2  12
ENDBRANCH   1   4
BRANCH   1  18
ATOM     18  C   UNL     1       7.328  -0.221   0.059  0.00  0.00    +0.104 C 
BRANCH  18  19
ATOM     19  C   UNL     1       8.504   0.415  -0.638  0.00  0.00    -0.029 A 
ATOM     20  C   UNL     1       8.335   1.014  -1.872  0.00  0.00    +0.005 A 
ATOM     21  C   UNL     1       9.412   1.601  -2.508  0.00  0.00    +0.004 A 
ATOM     22  C   UNL     1      10.661   1.580  -1.915  0.00  0.00    -0.042 A 
ATOM     23  C   UNL     1      10.831   0.975  -0.684  0.00  0.00    +0.004 A 
ATOM     24  C   UNL     1       9.752   0.393  -0.045  0.00  0.00    +0.005 A 
BRANCH  22  25
ATOM     25  C   UNL     1      11.836   2.215  -2.612  0.00  0.00    -0.013 C 
ATOM     26  C   UNL     1      12.912   1.157  -2.865  0.00  0.00    +0.015 C 
ATOM     27  C   UNL     1      11.379   2.808  -3.946  0.00  0.00    +0.015 C 
ATOM     28  C   UNL     1      12.411   3.326  -1.731  0.00  0.00    +0.015 C 
ENDBRANCH  22  25
ENDBRANCH  18  19
BRANCH  18  29
ATOM     29  N   UNL     1       6.987  -1.484  -0.609  0.00  0.00    -0.290 NA
ATOM     30  C   UNL     1       8.009  -2.509  -0.351  0.00  0.00    +0.113 C 
ATOM     31  C   UNL     1       7.586  -3.822  -1.014  0.00  0.00    +0.175 C 
ATOM     32  O   UNL     1       7.383  -3.601  -2.412  0.00  0.00    -0.377 OA
ATOM     33  C   UNL     1       6.393  -2.609  -2.700  0.00  0.00    +0.175 C 
ATOM     34  C   UNL     1       6.804  -1.284  -2.054  0.00  0.00    +0.113 C 
ENDBRANCH  18  29
ENDBRANCH   1  18
TORSDOF 6
