REMARK  Name = ZINC06723172
REMARK  13 active torsions:
REMARK  status: ('A' for Active; 'I' for Inactive)
REMARK    1  A    between atoms: C_1  and  C_2
REMARK    2  A    between atoms: C_2  and  C_3
REMARK    3  A    between atoms: C_2  and  C_4
REMARK    4  A    between atoms: C_2  and  N_5
REMARK    5  A    between atoms: N_8  and  C_9
REMARK    6  A    between atoms: N_8  and  C_26
REMARK    7  A    between atoms: C_9  and  C_10
REMARK    8  A    between atoms: C_12  and  N_19
REMARK    9  A    between atoms: C_15  and  N_16
REMARK   10  A    between atoms: N_16  and  C_17
REMARK   11  A    between atoms: N_16  and  C_18
REMARK   12  A    between atoms: C_20  and  C_22
REMARK   13  A    between atoms: C_26  and  C_27
REMARK                            x       y       z     vdW  Elec       q    Type
REMARK                         _______ _______ _______ _____ _____    ______ ____
ROOT
ATOM      1  C   UNL     1       2.757   0.241   0.368  0.00  0.00    -0.007 A 
ATOM      2  C   UNL     1       3.458   1.386   0.692  0.00  0.00    +0.030 A 
ATOM      3  C   UNL     1       2.797   2.604   0.775  0.00  0.00    +0.034 A 
ATOM      4  C   UNL     1       1.431   2.671   0.533  0.00  0.00    +0.025 A 
ATOM      5  C   UNL     1       0.731   1.526   0.209  0.00  0.00    +0.025 A 
ATOM      6  C   UNL     1       1.392   0.307   0.125  0.00  0.00    +0.034 A 
ENDROOT
BRANCH   3   7
ATOM      7  N   UNL     1       3.508   3.766   1.104  0.00  0.00    -0.285 N 
ATOM      8  C   UNL     1       2.926   4.722   1.854  0.00  0.00    +0.220 C 
ATOM      9  O   UNL     1       1.762   4.615   2.177  0.00  0.00    -0.275 OA
ATOM     10  H   UNL     1       4.419   3.882   0.791  0.00  0.00    +0.155 HD
BRANCH   8  11
ATOM     11  C   UNL     1       3.722   5.925   2.292  0.00  0.00    +0.075 C 
ATOM     12  C   UNL     1       4.609   5.663   3.520  0.00  0.00    +0.013 C 
ATOM     13  C   UNL     1       4.203   7.064   4.013  0.00  0.00    +0.001 C 
ATOM     14  C   UNL     1       2.925   6.904   3.171  0.00  0.00    +0.013 C 
ENDBRANCH   8  11
ENDBRANCH   3   7
BRANCH   6  15
ATOM     15  N   UNL     1       0.682  -0.853  -0.203  0.00  0.00    -0.336 N 
ATOM     16  C   UNL     1      -0.269  -1.206   0.860  0.00  0.00    +0.129 C 
ATOM     17  C   UNL     1      -0.003  -0.704  -1.494  0.00  0.00    +0.129 C 
ENDBRANCH   6  15
BRANCH   1  18
ATOM     18  C   UNL     1       3.475  -1.081   0.278  0.00  0.00    +0.146 C 
BRANCH  18  22
ATOM     19  N   UNL     1       3.462  -2.452  -3.133  0.00  0.00    -0.294 N 
ATOM     20  C   UNL     1       3.077  -2.144  -1.878  0.00  0.00    +0.303 C 
ATOM     21  O   UNL     1       2.037  -2.591  -1.435  0.00  0.00    -0.253 OA
ATOM     22  N   UNL     1       3.846  -1.342  -1.115  0.00  0.00    -0.279 N 
ATOM     23  H   UNL     1       4.325  -2.155  -3.462  0.00  0.00    +0.151 HD
BRANCH  19  25
ATOM     24  C   UNL     1       1.266  -2.473  -4.210  0.00  0.00    +0.031 C 
ATOM     25  C   UNL     1       2.577  -3.234  -3.999  0.00  0.00    +0.028 C 
ATOM     26  C   UNL     1       3.257  -3.461  -5.351  0.00  0.00    +0.031 C 
ATOM     27  C   UNL     1       2.283  -4.584  -3.343  0.00  0.00    +0.031 C 
ENDBRANCH  19  25
BRANCH  22  28
ATOM     28  C   UNL     1       5.052  -0.731  -1.679  0.00  0.00    +0.141 C 
BRANCH  28  29
ATOM     29  C   UNL     1       6.247  -1.659  -1.456  0.00  0.00    +0.136 C 
ATOM     30  C   UNL     1       7.521  -1.025  -2.045  0.00  0.00    +0.035 C 
ATOM     31  C   UNL     1       8.486  -0.919  -0.839  0.00  0.00    +0.031 C 
ATOM     32  C   UNL     1       7.896  -1.966   0.141  0.00  0.00    +0.160 C 
ATOM     33  O   UNL     1       6.471  -1.837  -0.047  0.00  0.00    -0.375 OA
ENDBRANCH  28  29
ENDBRANCH  22  28
ENDBRANCH  18  22
ENDBRANCH   1  18
TORSDOF 8
