REMARK  Name = ZINC12542721
REMARK  12 active torsions:
REMARK  status: ('A' for Active; 'I' for Inactive)
REMARK    1  A    between atoms: C_1  and  C_2
REMARK    2  A    between atoms: C_2  and  C_3
REMARK    3  A    between atoms: C_3  and  C_5
REMARK    4  A    between atoms: C_3  and  N_32
REMARK    5  A    between atoms: C_8  and  S_16
REMARK    6  A    between atoms: N_9  and  C_10
REMARK    7  A    between atoms: S_16  and  C_17
REMARK    8  A    between atoms: C_17  and  C_18
REMARK    9  A    between atoms: N_20  and  C_21
REMARK   10  A    between atoms: C_26  and  C_27
REMARK   11  A    between atoms: N_32  and  C_33
REMARK   12  A    between atoms: N_32  and  C_34
REMARK                            x       y       z     vdW  Elec       q    Type
REMARK                         _______ _______ _______ _____ _____    ______ ____
ROOT
ATOM      1  C   UNL     1      -1.111  -2.308  -0.042  0.00  0.00    +0.121 A 
ATOM      2  N   UNL     1      -0.671  -3.208  -0.875  0.00  0.00    -0.135 NA
ATOM      3  N   UNL     1      -0.716  -4.372  -0.332  0.00  0.00    -0.123 NA
ATOM      4  C   UNL     1      -1.191  -4.276   0.888  0.00  0.00    +0.192 A 
ATOM      5  N   UNL     1      -1.452  -2.955   1.113  0.00  0.00    -0.304 N 
ENDROOT
BRANCH   5   6
ATOM      6  C   UNL     1      -1.991  -2.356   2.336  0.00  0.00    +0.091 C 
ATOM      7  C   UNL     1      -1.043  -2.639   3.503  0.00  0.00    +0.025 C 
ATOM      8  C   UNL     1      -1.606  -2.013   4.781  0.00  0.00    +0.002 C 
ATOM      9  C   UNL     1      -2.980  -2.615   5.082  0.00  0.00    +0.000 C 
ATOM     10  C   UNL     1      -3.928  -2.332   3.915  0.00  0.00    +0.002 C 
ATOM     11  C   UNL     1      -3.365  -2.958   2.637  0.00  0.00    +0.025 C 
ENDBRANCH   5   6
BRANCH   1  12
ATOM     12  C   UNL     1      -1.216  -0.827  -0.301  0.00  0.00    +0.000 C 
BRANCH  12  13
ATOM     13  N   UNL     1      -1.806  -0.603  -1.628  0.00  0.00    +0.383 N 
ATOM     14  C   UNL     1      -3.188  -1.103  -1.640  0.00  0.00    -0.096 C 
ATOM     15  C   UNL     1      -1.803   0.835  -1.929  0.00  0.00    -0.096 C 
ATOM     16  H   UNL     1      -1.265  -1.094  -2.324  0.00  0.00    -0.082 HD
ENDBRANCH  12  13
BRANCH  12  18
ATOM     17  C   UNL     1       0.787  -0.421   1.135  0.00  0.00    +0.002 C 
ATOM     18  C   UNL     1       0.178  -0.200  -0.251  0.00  0.00    -0.011 C 
ENDBRANCH  12  18
ENDBRANCH   1  12
BRANCH   4  19
ATOM     19  S   UNL     1      -1.437  -5.601   2.024  0.00  0.00    -0.077 S 
BRANCH  19  20
ATOM     20  C   UNL     1      -0.888  -7.069   1.111  0.00  0.00    +0.173 C 
BRANCH  20  21
ATOM     21  C   UNL     1      -1.048  -8.290   1.980  0.00  0.00    +0.227 C 
ATOM     22  O   UNL     1      -1.489  -8.180   3.105  0.00  0.00    -0.275 OA
ATOM     23  N   UNL     1      -0.701  -9.504   1.508  0.00  0.00    -0.284 N 
ATOM     24  H   UNL     1      -0.427  -9.604   0.583  0.00  0.00    +0.155 HD
BRANCH  23  25
ATOM     25  C   UNL     1      -0.737 -10.619   2.352  0.00  0.00    +0.045 A 
ATOM     26  C   UNL     1      -0.616 -10.456   3.726  0.00  0.00    +0.025 A 
ATOM     27  C   UNL     1      -0.651 -11.559   4.557  0.00  0.00    +0.022 A 
ATOM     28  C   UNL     1      -0.806 -12.825   4.022  0.00  0.00    +0.042 A 
ATOM     29  C   UNL     1      -0.926 -12.991   2.653  0.00  0.00    +0.034 A 
ATOM     30  C   UNL     1      -0.898 -11.891   1.818  0.00  0.00    +0.077 A 
ATOM     31 CL   UNL     1      -0.849 -14.209   5.069  0.00  0.00    -0.084 Cl
BRANCH  30  32
ATOM     32  C   UNL     1      -1.035 -12.071   0.328  0.00  0.00    +0.419 C 
ATOM     33  F   UNL     1      -1.185 -13.431   0.035  0.00  0.00    -0.166 F 
ATOM     34  F   UNL     1      -2.158 -11.370  -0.125  0.00  0.00    -0.166 F 
ATOM     35  F   UNL     1       0.110 -11.580  -0.308  0.00  0.00    -0.166 F 
ENDBRANCH  30  32
ENDBRANCH  23  25
ENDBRANCH  20  21
ENDBRANCH  19  20
ENDBRANCH   4  19
TORSDOF 9
