REMARK  Name = ZINC01864783
REMARK  8 active torsions:
REMARK  status: ('A' for Active; 'I' for Inactive)
REMARK    1  A    between atoms: C_1  and  C_2
REMARK    2  A    between atoms: C_3  and  O_30
REMARK    3  A    between atoms: C_9  and  O_13
REMARK    4  A    between atoms: O_13  and  C_14
REMARK    5  A    between atoms: C_15  and  N_27
REMARK    6  A    between atoms: C_17  and  C_23
REMARK    7  A    between atoms: C_19  and  N_20
REMARK    8  A    between atoms: O_30  and  C_31
REMARK                            x       y       z     vdW  Elec       q    Type
REMARK                         _______ _______ _______ _____ _____    ______ ____
ROOT
ATOM      1  C   UNL     1      -7.849   6.850  -3.567  0.00  0.00    +0.090 C 
ATOM      2  C   UNL     1      -6.536   6.112  -3.606  0.00  0.00    +0.148 A 
ATOM      3  C   UNL     1      -5.999   5.811  -4.805  0.00  0.00    +0.213 A 
ATOM      4  C   UNL     1      -4.758   5.115  -4.865  0.00  0.00    +0.235 A 
ATOM      5  O   UNL     1      -4.242   4.826  -5.931  0.00  0.00    -0.283 OA
ATOM      6  C   UNL     1      -4.124   4.758  -3.584  0.00  0.00    +0.068 A 
ATOM      7  C   UNL     1      -2.907   4.076  -3.540  0.00  0.00    +0.019 A 
ATOM      8  C   UNL     1      -2.347   3.767  -2.334  0.00  0.00    +0.047 A 
ATOM      9  C   UNL     1      -2.988   4.120  -1.148  0.00  0.00    +0.132 A 
ATOM     10  C   UNL     1      -4.196   4.798  -1.174  0.00  0.00    +0.093 A 
ATOM     11  C   UNL     1      -4.775   5.124  -2.393  0.00  0.00    +0.143 A 
ATOM     12  O   UNL     1      -5.950   5.784  -2.447  0.00  0.00    -0.456 OA
ENDROOT
BRANCH   9  13
ATOM     13  O   UNL     1      -2.421   3.802   0.044  0.00  0.00    -0.451 OA
BRANCH  13  14
ATOM     14  C   UNL     1      -1.236   3.137   0.029  0.00  0.00    +0.189 A 
ATOM     15  C   UNL     1      -1.218   1.750   0.017  0.00  0.00    +0.171 A 
ATOM     16  C   UNL     1      -0.013   1.076   0.008  0.00  0.00    +0.049 A 
ATOM     17  C   UNL     1       1.176   1.783   0.000  0.00  0.00    +0.059 A 
ATOM     18  C   UNL     1       1.161   3.165   0.007  0.00  0.00    +0.049 A 
ATOM     19  C   UNL     1      -0.043   3.844   0.022  0.00  0.00    +0.171 A 
BRANCH  17  20
ATOM     20  C   UNL     1       2.490   1.045  -0.015  0.00  0.00    +0.418 C 
ATOM     21  F   UNL     1       2.884   0.823  -1.339  0.00  0.00    -0.166 F 
ATOM     22  F   UNL     1       3.462   1.810   0.639  0.00  0.00    -0.166 F 
ATOM     23  F   UNL     1       2.343  -0.182   0.640  0.00  0.00    -0.166 F 
ENDBRANCH  17  20
BRANCH  19  24
ATOM     24  N   UNL     1      -0.058   5.324   0.028  0.00  0.00    +0.060 N 
ATOM     25  O   UNL     1       0.990   5.944   0.021  0.00  0.00    -0.126 OA
ATOM     26  O   UNL     1      -1.119   5.922   0.041  0.00  0.00    -0.126 OA
ENDBRANCH  19  24
BRANCH  15  27
ATOM     27  N   UNL     1      -2.490   0.992   0.019  0.00  0.00    +0.060 N 
ATOM     28  O   UNL     1      -2.474  -0.226   0.013  0.00  0.00    -0.126 OA
ATOM     29  O   UNL     1      -3.553   1.587   0.028  0.00  0.00    -0.126 OA
ENDBRANCH  15  27
ENDBRANCH  13  14
ENDBRANCH   9  13
BRANCH   3  30
ATOM     30  O   UNL     1      -6.639   6.170  -5.952  0.00  0.00    -0.449 OA
BRANCH  30  31
ATOM     31  C   UNL     1      -7.526   5.292  -6.489  0.00  0.00    +0.129 A 
ATOM     32  C   UNL     1      -7.753   4.069  -5.873  0.00  0.00    +0.047 A 
ATOM     33  C   UNL     1      -8.659   3.181  -6.418  0.00  0.00    +0.019 A 
ATOM     34  C   UNL     1      -9.332   3.504  -7.583  0.00  0.00    +0.018 A 
ATOM     35  C   UNL     1      -9.103   4.720  -8.202  0.00  0.00    +0.019 A 
ATOM     36  C   UNL     1      -8.202   5.615  -7.657  0.00  0.00    +0.047 A 
ATOM     37 BR   UNL     1     -10.567   2.283  -8.330  0.00  0.00    -0.050 Br
ENDBRANCH  30  31
ENDBRANCH   3  30
TORSDOF 7
