REMARK  Name = ZINC23178658
REMARK  9 active torsions:
REMARK  status: ('A' for Active; 'I' for Inactive)
REMARK    1  A    between atoms: C_1  and  N_2
REMARK    2  A    between atoms: N_2  and  C_3
REMARK    3  A    between atoms: N_2  and  C_4
REMARK    4  A    between atoms: C_4  and  C_6
REMARK    5  A    between atoms: C_4  and  C_25
REMARK    6  A    between atoms: C_6  and  N_7
REMARK    7  A    between atoms: C_8  and  C_10
REMARK    8  A    between atoms: C_11  and  C_12
REMARK    9  A    between atoms: C_15  and  N_18
REMARK                            x       y       z     vdW  Elec       q    Type
REMARK                         _______ _______ _______ _____ _____    ______ ____
ROOT
ATOM      1  N   UNL     1       3.221   5.072   0.545  0.00  0.00    -0.313 N 
ATOM      2  C   UNL     1       3.481   6.138   1.328  0.00  0.00    +0.237 C 
ATOM      3  O   UNL     1       3.128   6.139   2.493  0.00  0.00    -0.271 OA
ATOM      4  H   UNL     1       3.541   5.072  -0.507  0.00  0.00    +0.149 HD
ENDROOT
BRANCH   2   5
ATOM      5  C   UNL     1       4.189   7.294   0.778  0.00  0.00    +0.068 C 
ATOM      6  C   UNL     1       4.449   8.362   1.562  0.00  0.00    +0.013 C 
BRANCH   6   7
ATOM      7  C   UNL     1       5.160   9.523   1.010  0.00  0.00    -0.025 A 
ATOM      8  C   UNL     1       5.573   9.522  -0.328  0.00  0.00    +0.010 A 
ATOM      9  C   UNL     1       6.230  10.610  -0.842  0.00  0.00    +0.025 A 
ATOM     10  C   UNL     1       6.498  11.710  -0.031  0.00  0.00    +0.051 A 
ATOM     11  C   UNL     1       6.095  11.713   1.302  0.00  0.00    +0.025 A 
ATOM     12  C   UNL     1       5.431  10.631   1.821  0.00  0.00    +0.010 A 
BRANCH  10  13
ATOM     13  N   UNL     1       7.171  12.809  -0.554  0.00  0.00    -0.207 N 
ATOM     14  C   UNL     1       7.102  14.203  -0.078  0.00  0.00    +0.133 C 
ATOM     15  C   UNL     1       8.424  14.943  -0.365  0.00  0.00    +0.045 C 
ATOM     16  C   UNL     1       8.778  14.576  -1.838  0.00  0.00    +0.190 C 
ATOM     17  S   UNL     1       8.222  12.823  -1.861  0.00  0.00    +0.046 S 
ATOM     18  O   UNL     1       9.286  11.952  -1.501  0.00  0.00    -0.155 OA
ATOM     19  O   UNL     1       7.413  12.566  -3.001  0.00  0.00    -0.155 OA
ENDBRANCH  10  13
ENDBRANCH   6   7
ENDBRANCH   2   5
BRANCH   1  20
ATOM     20  C   UNL     1       2.513   3.914   1.096  0.00  0.00    +0.094 C 
BRANCH  20  21
ATOM     21  C   UNL     1       2.511   2.781   0.069  0.00  0.00    -0.020 C 
BRANCH  21  22
ATOM     22  C   UNL     1       1.695   1.628   0.594  0.00  0.00    -0.041 A 
ATOM     23  C   UNL     1       2.327   0.500   1.084  0.00  0.00    +0.003 A 
ATOM     24  C   UNL     1       1.579  -0.557   1.565  0.00  0.00    +0.000 A 
ATOM     25  C   UNL     1       0.198  -0.491   1.551  0.00  0.00    +0.001 A 
ATOM     26  C   UNL     1      -0.435   0.638   1.066  0.00  0.00    +0.020 A 
ATOM     27  C   UNL     1       0.314   1.697   0.584  0.00  0.00    +0.043 A 
ATOM     28 CL   UNL     1      -0.480   3.113  -0.031  0.00  0.00    -0.083 Cl
ENDBRANCH  21  22
BRANCH  21  30
ATOM     29  C   UNL     1       4.561   3.201  -1.151  0.00  0.00    -0.096 C 
ATOM     30  N   UNL     1       3.891   2.336  -0.171  0.00  0.00    +0.382 N 
ATOM     31  C   UNL     1       4.650   2.277   1.085  0.00  0.00    -0.096 C 
ATOM     32  H   UNL     1       3.850   1.319  -0.589  0.00  0.00    -0.082 HD
ENDBRANCH  21  30
ENDBRANCH  20  21
ENDBRANCH   1  20
TORSDOF 7
