REMARK  Name = ZINC22444258
REMARK  9 active torsions:
REMARK  status: ('A' for Active; 'I' for Inactive)
REMARK    1  A    between atoms: C_4  and  C_7
REMARK    2  A    between atoms: C_10  and  S_18
REMARK    3  A    between atoms: N_11  and  C_12
REMARK    4  A    between atoms: S_18  and  C_19
REMARK    5  A    between atoms: C_19  and  C_20
REMARK    6  A    between atoms: N_22  and  C_23
REMARK    7  A    between atoms: C_23  and  C_24
REMARK    8  A    between atoms: C_24  and  C_26
REMARK    9  A    between atoms: C_24  and  N_31
REMARK                            x       y       z     vdW  Elec       q    Type
REMARK                         _______ _______ _______ _____ _____    ______ ____
ROOT
ATOM      1  C   UNL     1      -0.807  -4.085  -2.931  0.00  0.00    +0.173 C 
ENDROOT
BRANCH   1   2
ATOM      2  C   UNL     1      -1.558  -3.896  -4.224  0.00  0.00    +0.223 C 
ATOM      3  O   UNL     1      -1.912  -2.786  -4.563  0.00  0.00    -0.275 OA
ATOM      4  N   UNL     1      -1.837  -4.959  -5.003  0.00  0.00    -0.316 N 
ATOM      5  H   UNL     1      -1.516  -5.966  -4.695  0.00  0.00    +0.149 HD
BRANCH   4   6
ATOM      6  C   UNL     1      -2.567  -4.776  -6.260  0.00  0.00    +0.096 C 
BRANCH   6   7
ATOM      7  C   UNL     1      -2.861  -6.142  -6.883  0.00  0.00    +0.016 C 
BRANCH   7   8
ATOM      8  N   UNL     1      -1.606  -6.888  -7.042  0.00  0.00    +0.387 N 
ATOM      9  C   UNL     1      -0.622  -6.107  -7.802  0.00  0.00    -0.078 C 
ATOM     10  C   UNL     1       0.716  -6.851  -7.823  0.00  0.00    -0.019 C 
ATOM     11  C   UNL     1       0.519  -8.225  -8.469  0.00  0.00    -0.004 C 
ATOM     12  C   UNL     1      -0.545  -9.000  -7.687  0.00  0.00    -0.019 C 
ATOM     13  C   UNL     1      -1.846  -8.194  -7.670  0.00  0.00    -0.078 C 
ATOM     14  H   UNL     1      -1.189  -7.069  -6.040  0.00  0.00    -0.081 HD
ENDBRANCH   7   8
BRANCH   7  15
ATOM     15  C   UNL     1      -3.794  -6.913  -5.985  0.00  0.00    +0.093 A 
ATOM     16  C   UNL     1      -5.122  -7.042  -6.156  0.00  0.00    +0.043 A 
ATOM     17  C   UNL     1      -5.596  -7.841  -5.090  0.00  0.00    +0.041 A 
ATOM     18  C   UNL     1      -4.529  -8.152  -4.332  0.00  0.00    +0.195 A 
ATOM     19  O   UNL     1      -3.439  -7.592  -4.882  0.00  0.00    -0.469 OA
ENDBRANCH   7  15
ENDBRANCH   6   7
ENDBRANCH   4   6
ENDBRANCH   1   2
BRANCH   1  20
ATOM     20  S   UNL     1      -0.590  -2.482  -2.119  0.00  0.00    -0.076 S 
BRANCH  20  24
ATOM     21  C   UNL     1       1.364  -3.003   1.227  0.00  0.00    +0.169 A 
ATOM     22  N   UNL     1       1.272  -4.223   0.751  0.00  0.00    -0.128 NA
ATOM     23  N   UNL     1       0.644  -4.213  -0.369  0.00  0.00    -0.122 NA
ATOM     24  C   UNL     1       0.290  -2.985  -0.678  0.00  0.00    +0.197 A 
ATOM     25  N   UNL     1       0.733  -2.171   0.328  0.00  0.00    -0.270 N 
BRANCH  21  29
ATOM     26  C   UNL     1       3.243  -1.841   4.855  0.00  0.00    +0.000 A 
ATOM     27  C   UNL     1       2.340  -0.990   4.244  0.00  0.00    +0.001 A 
ATOM     28  C   UNL     1       1.726  -1.361   3.065  0.00  0.00    +0.011 A 
ATOM     29  C   UNL     1       2.018  -2.599   2.490  0.00  0.00    +0.020 A 
ATOM     30  C   UNL     1       2.926  -3.455   3.114  0.00  0.00    +0.011 A 
ATOM     31  C   UNL     1       3.537  -3.069   4.289  0.00  0.00    +0.001 A 
ENDBRANCH  21  29
BRANCH  25  32
ATOM     32  C   UNL     1       0.581  -0.780   0.422  0.00  0.00    +0.051 A 
ATOM     33  C   UNL     1      -0.677  -0.230   0.621  0.00  0.00    +0.026 A 
ATOM     34  C   UNL     1      -0.824   1.141   0.714  0.00  0.00    +0.002 A 
ATOM     35  C   UNL     1       0.282   1.964   0.610  0.00  0.00    +0.000 A 
ATOM     36  C   UNL     1       1.538   1.418   0.412  0.00  0.00    +0.002 A 
ATOM     37  C   UNL     1       1.690   0.049   0.318  0.00  0.00    +0.026 A 
ENDBRANCH  25  32
ENDBRANCH  20  24
ENDBRANCH   1  20
TORSDOF 9
