REMARK  Name = ZINC05758789
REMARK  11 active torsions:
REMARK  status: ('A' for Active; 'I' for Inactive)
REMARK    1  A    between atoms: C_1  and  C_2
REMARK    2  A    between atoms: C_2  and  C_4
REMARK    3  A    between atoms: C_2  and  C_10
REMARK    4  A    between atoms: C_4  and  C_5
REMARK    5  A    between atoms: C_5  and  C_6
REMARK    6  A    between atoms: C_6  and  C_7
REMARK    7  A    between atoms: C_7  and  C_8
REMARK    8  A    between atoms: C_7  and  C_9
REMARK    9  A    between atoms: C_16  and  C_35
REMARK   10  A    between atoms: C_27  and  C_34
REMARK   11  A    between atoms: C_30  and  O_33
REMARK                            x       y       z     vdW  Elec       q    Type
REMARK                         _______ _______ _______ _____ _____    ______ ____
ROOT
ATOM      1  C   UNL     1      -1.426  -0.542   0.140  0.00  0.00    -0.002 C 
ATOM      2  C   UNL     1      -1.414  -2.079   0.332  0.00  0.00    +0.004 C 
ATOM      3  C   UNL     1      -2.147  -2.359   1.673  0.00  0.00    +0.005 C 
ATOM      4  C   UNL     1      -3.037  -1.123   1.842  0.00  0.00    +0.006 C 
ATOM      5  C   UNL     1      -2.079   0.018   1.400  0.00  0.00    -0.025 C 
ATOM      6  C   UNL     1      -2.908   1.276   1.234  0.00  0.00    +0.007 C 
ATOM      7  C   UNL     1      -3.463   1.645   2.621  0.00  0.00    +0.005 C 
ATOM      8  C   UNL     1      -4.278   0.500   3.212  0.00  0.00    +0.010 C 
ATOM      9  C   UNL     1      -3.486  -0.821   3.259  0.00  0.00    +0.067 C 
ATOM     10  C   UNL     1      -4.426  -1.904   3.750  0.00  0.00    +0.160 C 
ATOM     11  O   UNL     1      -4.543  -2.962   3.168  0.00  0.00    -0.292 OA
ATOM     12  C   UNL     1      -5.186  -1.602   4.968  0.00  0.00    +0.046 C 
ATOM     13  C   UNL     1      -5.374  -0.337   5.344  0.00  0.00    -0.058 C 
ATOM     14  C   UNL     1      -4.821   0.869   4.580  0.00  0.00    -0.007 C 
ATOM     15  C   UNL     1      -5.931   1.912   4.417  0.00  0.00    +0.014 C 
ATOM     16  C   UNL     1      -6.523   2.257   5.784  0.00  0.00    +0.032 C 
ATOM     17  C   UNL     1      -7.178   1.009   6.381  0.00  0.00    +0.119 C 
ATOM     18  C   UNL     1      -6.153  -0.089   6.623  0.00  0.00    +0.062 C 
ATOM     19  C   UNL     1      -3.692   1.520   5.380  0.00  0.00    +0.016 C 
ATOM     20  C   UNL     1      -1.014   0.243   2.476  0.00  0.00    +0.012 C 
ENDROOT
BRANCH   1  22
ATOM     21  C   UNL     1      -0.033   1.497  -0.241  0.00  0.00    +0.008 C 
ATOM     22  C   UNL     1       0.003  -0.013   0.003  0.00  0.00    -0.010 C 
BRANCH  22  23
ATOM     23  C   UNL     1       0.691  -0.704  -1.175  0.00  0.00    +0.003 C 
BRANCH  23  24
ATOM     24  C   UNL     1       2.157  -0.269  -1.236  0.00  0.00    +0.001 C 
BRANCH  24  25
ATOM     25  C   UNL     1       2.845  -0.959  -2.415  0.00  0.00    +0.003 C 
BRANCH  25  26
ATOM     26  C   UNL     1       4.311  -0.524  -2.476  0.00  0.00    -0.017 C 
ATOM     27  C   UNL     1       5.044  -1.024  -1.230  0.00  0.00    +0.007 C 
ATOM     28  C   UNL     1       4.967  -1.116  -3.725  0.00  0.00    +0.007 C 
ENDBRANCH  25  26
ENDBRANCH  24  25
ENDBRANCH  23  24
ENDBRANCH  22  23
ENDBRANCH   1  22
BRANCH  17  29
ATOM     29  O   UNL     1      -7.829   1.351   7.606  0.00  0.00    -0.391 OA
ATOM     30  H   UNL     1      -8.266   0.606   8.040  0.00  0.00    +0.210 HD
ENDBRANCH  17  29
TORSDOF 6
