REMARK  Name = ZINC31558006
REMARK  10 active torsions:
REMARK  status: ('A' for Active; 'I' for Inactive)
REMARK    1  A    between atoms: C_1  and  C_2
REMARK    2  A    between atoms: C_2  and  O_3
REMARK    3  A    between atoms: O_3  and  C_4
REMARK    4  A    between atoms: C_4  and  C_6
REMARK    5  A    between atoms: C_7  and  C_20
REMARK    6  A    between atoms: C_12  and  C_14
REMARK    7  A    between atoms: C_20  and  N_21
REMARK    8  A    between atoms: C_25  and  C_27
REMARK    9  A    between atoms: N_29  and  C_30
REMARK   10  A    between atoms: C_30  and  C_31
REMARK                            x       y       z     vdW  Elec       q    Type
REMARK                         _______ _______ _______ _____ _____    ______ ____
ROOT
ATOM      1  C   UNL     1      -1.223  -2.143  -0.189  0.00  0.00    +0.076 C 
ATOM      2  C   UNL     1      -2.431  -2.667   0.113  0.00  0.00    +0.008 C 
ATOM      3  N   UNL     1      -2.575  -3.999   0.378  0.00  0.00    -0.274 N 
ATOM      4  C   UNL     1      -1.558  -4.871   0.374  0.00  0.00    +0.304 C 
ATOM      5  O   UNL     1      -1.784  -6.038   0.627  0.00  0.00    -0.252 OA
ATOM      6  N   UNL     1      -0.294  -4.497   0.096  0.00  0.00    -0.288 N 
ATOM      7  C   UNL     1      -0.033  -3.080  -0.210  0.00  0.00    +0.143 C 
ATOM      8  H   UNL     1      -3.568  -4.409   0.613  0.00  0.00    +0.156 HD
ATOM      9  H   UNL     1       0.534  -5.221   0.095  0.00  0.00    +0.151 HD
ENDROOT
BRANCH   7  10
ATOM     10  C   UNL     1       0.979  -2.569   0.783  0.00  0.00    -0.023 A 
ATOM     11  C   UNL     1       0.814  -2.825   2.131  0.00  0.00    +0.006 A 
ATOM     12  C   UNL     1       1.745  -2.360   3.042  0.00  0.00    +0.000 A 
ATOM     13  C   UNL     1       2.835  -1.630   2.605  0.00  0.00    +0.000 A 
ATOM     14  C   UNL     1       2.996  -1.370   1.257  0.00  0.00    +0.000 A 
ATOM     15  C   UNL     1       2.068  -1.839   0.346  0.00  0.00    +0.006 A 
ENDBRANCH   7  10
BRANCH   1  16
ATOM     16  C   UNL     1      -1.074  -0.764  -0.469  0.00  0.00    +0.339 C 
ATOM     17  O   UNL     1      -0.928  -0.390  -1.617  0.00  0.00    -0.245 OA
BRANCH  16  18
ATOM     18  O   UNL     1      -1.094   0.135   0.537  0.00  0.00    -0.462 OA
BRANCH  18  20
ATOM     19  C   UNL     1      -0.985   2.372   1.444  0.00  0.00    +0.048 C 
ATOM     20  C   UNL     1      -0.937   1.510   0.181  0.00  0.00    +0.229 C 
ENDBRANCH  18  20
ENDBRANCH  16  18
ENDBRANCH   1  16
BRANCH   2  21
ATOM     21  C   UNL     1      -3.640  -1.769   0.150  0.00  0.00    -0.025 C 
BRANCH  21  22
ATOM     22  N   UNL     1      -4.566  -2.149  -0.925  0.00  0.00    +0.391 N 
ATOM     23  C   UNL     1      -4.069  -1.689  -2.239  0.00  0.00    -0.077 C 
ATOM     24  C   UNL     1      -5.346  -1.344  -3.046  0.00  0.00    -0.020 C 
ATOM     25  C   UNL     1      -6.256  -0.733  -1.947  0.00  0.00    -0.008 C 
ATOM     26  C   UNL     1      -5.904  -1.571  -0.700  0.00  0.00    +0.020 C 
ATOM     27  H   UNL     1      -4.632  -3.247  -0.914  0.00  0.00    -0.080 HD
BRANCH  26  28
ATOM     28  C   UNL     1      -5.881  -0.687   0.521  0.00  0.00    +0.200 C 
ATOM     29  O   UNL     1      -5.027   0.166   0.636  0.00  0.00    -0.278 OA
ATOM     30  N   UNL     1      -6.810  -0.845   1.484  0.00  0.00    -0.310 N 
ATOM     31  H   UNL     1      -7.585  -1.619   1.380  0.00  0.00    +0.149 HD
BRANCH  30  32
ATOM     32  C   UNL     1      -6.788   0.013   2.671  0.00  0.00    +0.178 C 
BRANCH  32  33
ATOM     33  C   UNL     1      -7.924  -0.366   3.587  0.00  0.00    +0.122 A 
ATOM     34  C   UNL     1      -7.870  -1.284   4.568  0.00  0.00    +0.046 A 
ATOM     35  C   UNL     1      -9.149  -1.315   5.170  0.00  0.00    +0.041 A 
ATOM     36  C   UNL     1      -9.910  -0.420   4.515  0.00  0.00    +0.195 A 
ATOM     37  O   UNL     1      -9.163   0.152   3.557  0.00  0.00    -0.466 OA
ENDBRANCH  32  33
ENDBRANCH  30  32
ENDBRANCH  26  28
ENDBRANCH  21  22
ENDBRANCH   2  21
TORSDOF 9
