REMARK  Name = ZINC20271628
REMARK  7 active torsions:
REMARK  status: ('A' for Active; 'I' for Inactive)
REMARK    1  A    between atoms: C_1  and  O_2
REMARK    2  A    between atoms: O_2  and  C_3
REMARK    3  A    between atoms: C_6  and  C_13
REMARK    4  A    between atoms: C_13  and  N_14
REMARK    5  A    between atoms: C_20  and  C_23
REMARK    6  A    between atoms: C_23  and  N_24
REMARK    7  A    between atoms: C_25  and  C_27
REMARK                            x       y       z     vdW  Elec       q    Type
REMARK                         _______ _______ _______ _____ _____    ______ ____
ROOT
ATOM      1  N   UNL     1       4.240   2.253  -1.364  0.00  0.00    +0.383 N 
ATOM      2  C   UNL     1       4.573   0.880  -1.762  0.00  0.00    -0.076 C 
ATOM      3  C   UNL     1       5.038   0.870  -3.221  0.00  0.00    +0.016 C 
ATOM      4  C   UNL     1       6.246   1.790  -3.372  0.00  0.00    +0.067 C 
ATOM      5  C   UNL     1       6.703   1.828  -4.841  0.00  0.00    +0.037 C 
ATOM      6  C   UNL     1       8.246   1.881  -4.749  0.00  0.00    +0.036 C 
ATOM      7  C   UNL     1       8.532   1.877  -3.231  0.00  0.00    +0.136 C 
ATOM      8  O   UNL     1       7.365   1.266  -2.635  0.00  0.00    -0.369 OA
ATOM      9  C   UNL     1       5.908   3.197  -2.890  0.00  0.00    +0.016 C 
ATOM     10  C   UNL     1       5.414   3.131  -1.441  0.00  0.00    -0.076 C 
ATOM     11  H   UNL     1       3.491   2.634  -2.075  0.00  0.00    -0.081 HD
ENDROOT
BRANCH   1  12
ATOM     12  C   UNL     1       3.647   2.284  -0.020  0.00  0.00    -0.042 C 
BRANCH  12  16
ATOM     13  C   UNL     1      -0.308   0.591  -0.146  0.00  0.00    +0.128 A 
ATOM     14  C   UNL     1       0.744  -0.100   0.387  0.00  0.00    +0.046 A 
ATOM     15  C   UNL     1       2.020   0.456   0.423  0.00  0.00    +0.006 A 
ATOM     16  C   UNL     1       2.258   1.703  -0.071  0.00  0.00    -0.056 A 
ATOM     17  C   UNL     1       1.202   2.446  -0.626  0.00  0.00    -0.013 A 
ATOM     18  C   UNL     1      -0.098   1.885  -0.666  0.00  0.00    +0.024 A 
ATOM     19  C   UNL     1      -1.152   2.627  -1.222  0.00  0.00    +0.012 A 
ATOM     20  C   UNL     1      -0.912   3.873  -1.715  0.00  0.00    +0.001 A 
ATOM     21  C   UNL     1       0.366   4.426  -1.676  0.00  0.00    +0.001 A 
ATOM     22  C   UNL     1       1.412   3.736  -1.145  0.00  0.00    +0.009 A 
BRANCH  13  24
ATOM     23  C   UNL     1      -1.681  -1.278   0.372  0.00  0.00    +0.277 C 
ATOM     24  O   UNL     1      -1.547   0.036  -0.174  0.00  0.00    -0.495 OA
ENDBRANCH  13  24
ENDBRANCH  12  16
ENDBRANCH   1  12
BRANCH   7  25
ATOM     25  C   UNL     1       9.781   1.047  -2.927  0.00  0.00    +0.136 C 
BRANCH  25  26
ATOM     26  N   UNL     1      10.033   1.056  -1.484  0.00  0.00    -0.309 N 
ATOM     27  C   UNL     1      11.089   0.386  -0.980  0.00  0.00    +0.246 C 
ATOM     28  O   UNL     1      11.831  -0.226  -1.723  0.00  0.00    -0.270 OA
ATOM     29  H   UNL     1       9.362   1.610  -0.811  0.00  0.00    +0.149 HD
BRANCH  27  30
ATOM     30  C   UNL     1      11.344   0.395   0.476  0.00  0.00    +0.055 A 
ATOM     31  C   UNL     1      12.437  -0.296   1.012  0.00  0.00    +0.016 A 
ATOM     32  C   UNL     1      12.632  -0.256   2.381  0.00  0.00    +0.020 A 
ATOM     33  C   UNL     1      11.749   0.460   3.169  0.00  0.00    +0.111 A 
ATOM     34  N   UNL     1      10.727   1.103   2.637  0.00  0.00    -0.263 NA
ATOM     35  C   UNL     1      10.503   1.099   1.339  0.00  0.00    +0.123 A 
ENDBRANCH  27  30
ENDBRANCH  25  26
ENDBRANCH   7  25
TORSDOF 6
