REMARK  Name = ZINC02601405
REMARK  7 active torsions:
REMARK  status: ('A' for Active; 'I' for Inactive)
REMARK    1  A    between atoms: C_1  and  C_2
REMARK    2  A    between atoms: C_2  and  C_3
REMARK    3  A    between atoms: C_3  and  C_4
REMARK    4  A    between atoms: C_4  and  C_5
REMARK    5  A    between atoms: N_7  and  C_8
REMARK    6  A    between atoms: C_8  and  C_28
REMARK    7  A    between atoms: N_16  and  C_21
REMARK                            x       y       z     vdW  Elec       q    Type
REMARK                         _______ _______ _______ _____ _____    ______ ____
ROOT
ATOM      1  C   UNL     1      -3.066  -4.832   0.657  0.00  0.00    +0.240 C 
ATOM      2  C   UNL     1      -3.828  -6.112   0.407  0.00  0.00    +0.097 A 
ATOM      3  C   UNL     1      -3.974  -6.938  -0.715  0.00  0.00    +0.262 A 
ATOM      4  O   UNL     1      -3.413  -6.660  -1.761  0.00  0.00    -0.267 OA
ATOM      5  N   UNL     1      -4.743  -8.043  -0.626  0.00  0.00    -0.274 N 
ATOM      6  H   UNL     1      -4.850  -8.621  -1.398  0.00  0.00    +0.173 HD
ATOM      7  C   UNL     1      -5.360  -8.346   0.530  0.00  0.00    +0.335 A 
ATOM      8  O   UNL     1      -6.049  -9.346   0.593  0.00  0.00    -0.246 OA
ATOM      9  N   UNL     1      -5.232  -7.567   1.618  0.00  0.00    -0.249 N 
ATOM     10  C   UNL     1      -4.457  -6.425   1.576  0.00  0.00    +0.125 A 
ATOM     11  N   UNL     1      -4.184  -5.491   2.546  0.00  0.00    -0.269 N 
ATOM     12  C   UNL     1      -3.374  -4.513   2.106  0.00  0.00    +0.256 C 
ATOM     13  O   UNL     1      -2.970  -3.563   2.742  0.00  0.00    -0.272 OA
ATOM     14  H   UNL     1      -4.537  -5.534   3.449  0.00  0.00    +0.156 HD
ENDROOT
BRANCH   9  15
ATOM     15  C   UNL     1      -5.891  -7.916   2.805  0.00  0.00    +0.053 A 
ATOM     16  C   UNL     1      -5.258  -8.725   3.739  0.00  0.00    +0.029 A 
ATOM     17  C   UNL     1      -5.909  -9.068   4.908  0.00  0.00    +0.040 A 
ATOM     18  C   UNL     1      -7.192  -8.605   5.149  0.00  0.00    +0.124 A 
ATOM     19  C   UNL     1      -7.825  -7.798   4.218  0.00  0.00    +0.040 A 
ATOM     20  C   UNL     1      -7.175  -7.449   3.050  0.00  0.00    +0.029 A 
ATOM     21  F   UNL     1      -7.827  -8.942   6.292  0.00  0.00    -0.205 F 
ENDBRANCH   9  15
BRANCH   1  24
ATOM     22  C   UNL     1      -0.760  -4.046   0.732  0.00  0.00    +0.214 C 
ATOM     23  O   UNL     1      -1.170  -2.974   1.123  0.00  0.00    -0.276 OA
ATOM     24  N   UNL     1      -1.628  -5.044   0.470  0.00  0.00    -0.291 N 
ATOM     25  H   UNL     1      -1.300  -5.902   0.157  0.00  0.00    +0.150 HD
BRANCH  22  26
ATOM     26  C   UNL     1       0.719  -4.264   0.540  0.00  0.00    +0.096 C 
BRANCH  26  27
ATOM     27  C   UNL     1       1.474  -2.985   0.906  0.00  0.00    +0.009 C 
BRANCH  27  29
ATOM     28  C   UNL     1       3.731  -1.927   1.076  0.00  0.00    +0.004 C 
ATOM     29  C   UNL     1       2.975  -3.206   0.711  0.00  0.00    -0.003 C 
ENDBRANCH  27  29
ENDBRANCH  26  27
ENDBRANCH  22  26
ENDBRANCH   1  24
BRANCH   1  30
ATOM     30  C   UNL     1      -3.567  -3.715  -0.260  0.00  0.00    +0.424 C 
ATOM     31  F   UNL     1      -3.344  -4.071  -1.595  0.00  0.00    -0.167 F 
ATOM     32  F   UNL     1      -4.937  -3.521  -0.052  0.00  0.00    -0.167 F 
ATOM     33  F   UNL     1      -2.880  -2.531   0.028  0.00  0.00    -0.167 F 
ENDBRANCH   1  30
TORSDOF 6
