REMARK  Name = ZINC34829798
REMARK  6 active torsions:
REMARK  status: ('A' for Active; 'I' for Inactive)
REMARK    1  A    between atoms: C_1  and  C_2
REMARK    2  A    between atoms: C_7  and  C_8
REMARK    3  A    between atoms: N_17  and  C_18
REMARK    4  A    between atoms: C_18  and  C_19
REMARK    5  A    between atoms: C_25  and  C_28
REMARK    6  A    between atoms: C_29  and  C_31
REMARK                            x       y       z     vdW  Elec       q    Type
REMARK                         _______ _______ _______ _____ _____    ______ ____
ROOT
ATOM      1  C   UNL     1      -1.432  -2.317   2.745  0.00  0.00    +0.020 C 
ENDROOT
BRANCH   1   2
ATOM      2  C   UNL     1      -1.672  -3.360   3.807  0.00  0.00    +0.199 C 
ATOM      3  O   UNL     1      -0.731  -3.885   4.364  0.00  0.00    -0.278 OA
ATOM      4  N   UNL     1      -2.931  -3.709   4.136  0.00  0.00    -0.300 N 
ATOM      5  C   UNL     1      -4.080  -3.086   3.465  0.00  0.00    +0.126 C 
ATOM      6  C   UNL     1      -5.000  -2.478   4.531  0.00  0.00    +0.127 C 
ATOM      7  N   UNL     1      -5.249  -3.489   5.568  0.00  0.00    -0.292 N 
ATOM      8  C   UNL     1      -4.100  -4.113   6.239  0.00  0.00    +0.091 C 
ATOM      9  C   UNL     1      -3.179  -4.724   5.169  0.00  0.00    +0.130 C 
ATOM     10  C   UNL     1      -3.337  -3.055   7.039  0.00  0.00    +0.029 C 
ATOM     11  C   UNL     1      -6.508  -3.838   5.898  0.00  0.00    +0.247 C 
ATOM     12  O   UNL     1      -7.448  -3.387   5.272  0.00  0.00    -0.270 OA
BRANCH  11  13
ATOM     13  C   UNL     1      -6.747  -4.770   7.020  0.00  0.00    +0.037 A 
ATOM     14  C   UNL     1      -6.003  -4.656   8.196  0.00  0.00    +0.014 A 
ATOM     15  C   UNL     1      -6.230  -5.528   9.239  0.00  0.00    +0.021 A 
ATOM     16  C   UNL     1      -7.195  -6.515   9.123  0.00  0.00    +0.041 A 
ATOM     17  C   UNL     1      -7.937  -6.633   7.959  0.00  0.00    +0.021 A 
ATOM     18  C   UNL     1      -7.722  -5.763   6.911  0.00  0.00    +0.014 A 
ATOM     19 CL   UNL     1      -7.475  -7.610  10.441  0.00  0.00    -0.084 Cl
ENDBRANCH  11  13
ENDBRANCH   1   2
BRANCH   1  28
ATOM     20  C   UNL     1       0.242  -1.191   1.457  0.00  0.00    -0.005 C 
ATOM     21  C   UNL     1       1.738  -0.909   1.350  0.00  0.00    -0.047 A 
ATOM     22  C   UNL     1       2.356  -0.405   0.208  0.00  0.00    +0.010 A 
ATOM     23  C   UNL     1       3.692  -0.187   0.203  0.00  0.00    +0.045 A 
ATOM     24  S   UNL     1       4.156  -0.695   1.852  0.00  0.00    -0.101 S 
ATOM     25  C   UNL     1       2.544  -1.154   2.421  0.00  0.00    -0.010 A 
ATOM     26  C   UNL     1       2.117  -1.686   3.750  0.00  0.00    +0.024 C 
ATOM     27  C   UNL     1       0.583  -1.585   3.818  0.00  0.00    -0.072 C 
ATOM     28  N   UNL     1       0.013  -2.118   2.572  0.00  0.00    +0.393 N 
ATOM     29  H   UNL     1       0.447  -3.004   2.362  0.00  0.00    -0.080 HD
BRANCH  20  36
ATOM     30  C   UNL     1      -0.571   0.491  -0.747  0.00  0.00    +0.044 C 
ATOM     31  C   UNL     1      -0.636  -1.008  -0.879  0.00  0.00    -0.049 A 
ATOM     32  C   UNL     1      -1.080  -1.579  -2.058  0.00  0.00    +0.003 A 
ATOM     33  C   UNL     1      -1.140  -2.954  -2.180  0.00  0.00    +0.000 A 
ATOM     34  C   UNL     1      -0.756  -3.760  -1.124  0.00  0.00    +0.000 A 
ATOM     35  C   UNL     1      -0.312  -3.189   0.054  0.00  0.00    +0.002 A 
ATOM     36  C   UNL     1      -0.247  -1.813   0.175  0.00  0.00    -0.054 A 
ENDBRANCH  20  36
ENDBRANCH   1  28
TORSDOF 4
