REMARK  Name = ZINC39037788
REMARK  9 active torsions:
REMARK  status: ('A' for Active; 'I' for Inactive)
REMARK    1  A    between atoms: C_1  and  S_2
REMARK    2  A    between atoms: S_2  and  C_3
REMARK    3  A    between atoms: C_3  and  C_4
REMARK    4  A    between atoms: C_4  and  C_5
REMARK    5  A    between atoms: C_5  and  C_7
REMARK    6  A    between atoms: C_5  and  N_24
REMARK    7  A    between atoms: C_25  and  C_27
REMARK    8  A    between atoms: C_27  and  O_28
REMARK    9  A    between atoms: O_28  and  C_29
REMARK                            x       y       z     vdW  Elec       q    Type
REMARK                         _______ _______ _______ _____ _____    ______ ____
ROOT
ATOM      1  C   UNL     1       1.701  -2.297  -2.965  0.00  0.00    +0.160 C 
ENDROOT
BRANCH   1   2
ATOM      2  C   UNL     1       1.806  -3.790  -3.136  0.00  0.00    +0.236 C 
ATOM      3  O   UNL     1       2.894  -4.327  -3.119  0.00  0.00    -0.274 OA
ATOM      4  N   UNL     1       0.693  -4.529  -3.309  0.00  0.00    -0.300 N 
ATOM      5  C   UNL     1      -0.620  -3.884  -3.446  0.00  0.00    +0.106 C 
ATOM      6  C   UNL     1      -1.284  -4.386  -4.732  0.00  0.00    +0.009 C 
ATOM      7  C   UNL     1      -1.332  -5.914  -4.714  0.00  0.00    -0.037 C 
ATOM      8  C   UNL     1       0.088  -6.476  -4.650  0.00  0.00    +0.009 C 
ATOM      9  C   UNL     1       0.769  -5.995  -3.370  0.00  0.00    +0.106 C 
ATOM     10  C   UNL     1      -2.031  -6.421  -5.976  0.00  0.00    +0.140 C 
ATOM     11  C   UNL     1      -3.469  -5.921  -5.880  0.00  0.00    +0.042 C 
ATOM     12  N   UNL     1      -3.684  -5.253  -6.945  0.00  0.00    -0.243 NA
ATOM     13  C   UNL     1      -2.566  -5.151  -7.706  0.00  0.00    +0.216 C 
ATOM     14  N   UNL     1      -1.533  -5.791  -7.200  0.00  0.00    -0.264 NA
ATOM     15  C   UNL     1      -4.298  -6.144  -4.640  0.00  0.00    +0.034 C 
ATOM     16  C   UNL     1      -3.408  -5.723  -3.455  0.00  0.00    -0.076 C 
ATOM     17  N   UNL     1      -2.097  -6.370  -3.545  0.00  0.00    +0.385 N 
ATOM     18  H   UNL     1      -2.229  -7.369  -3.608  0.00  0.00    -0.085 HD
ATOM     19  H   UNL     1      -1.572  -6.163  -2.709  0.00  0.00    -0.085 HD
ENDBRANCH   1   2
BRANCH   1  20
ATOM     20  N   UNL     1       2.974  -1.672  -3.334  0.00  0.00    -0.301 N 
ATOM     21  C   UNL     1       3.000  -0.390  -3.748  0.00  0.00    +0.251 C 
ATOM     22  O   UNL     1       1.970   0.247  -3.816  0.00  0.00    -0.272 OA
ATOM     23  H   UNL     1       3.798  -2.181  -3.280  0.00  0.00    +0.150 HD
BRANCH  21  24
ATOM     24  C   UNL     1       4.309   0.253  -4.127  0.00  0.00    +0.324 C 
BRANCH  24  25
ATOM     25  O   UNL     1       4.078   1.605  -4.529  0.00  0.00    -0.483 OA
BRANCH  25  26
ATOM     26  C   UNL     1       5.163   2.331  -4.905  0.00  0.00    +0.121 A 
ATOM     27  C   UNL     1       6.424   1.753  -4.893  0.00  0.00    +0.047 A 
ATOM     28  C   UNL     1       7.526   2.493  -5.275  0.00  0.00    +0.023 A 
ATOM     29  C   UNL     1       7.373   3.810  -5.670  0.00  0.00    +0.041 A 
ATOM     30  C   UNL     1       6.116   4.389  -5.683  0.00  0.00    +0.023 A 
ATOM     31  C   UNL     1       5.011   3.650  -5.308  0.00  0.00    +0.047 A 
ATOM     32 CL   UNL     1       8.759   4.738  -6.150  0.00  0.00    -0.084 Cl
ENDBRANCH  25  26
ENDBRANCH  24  25
ENDBRANCH  21  24
ENDBRANCH   1  20
BRANCH   1  33
ATOM     33  C   UNL     1       1.377  -1.972  -1.506  0.00  0.00    +0.042 C 
BRANCH  33  34
ATOM     34  C   UNL     1       1.120  -0.471  -1.362  0.00  0.00    +0.071 C 
BRANCH  34  36
ATOM     35  C   UNL     1       0.462   1.707   0.369  0.00  0.00    +0.084 C 
ATOM     36  S   UNL     1       0.736  -0.086   0.368  0.00  0.00    -0.164 S 
ENDBRANCH  34  36
ENDBRANCH  33  34
ENDBRANCH   1  33
TORSDOF 8
