REMARK  Name = ZINC39467608
REMARK  8 active torsions:
REMARK  status: ('A' for Active; 'I' for Inactive)
REMARK    1  A    between atoms: C_1  and  C_2
REMARK    2  A    between atoms: C_2  and  C_3
REMARK    3  A    between atoms: C_2  and  S_4
REMARK    4  A    between atoms: S_4  and  C_7
REMARK    5  A    between atoms: P_16  and  C_32
REMARK    6  A    between atoms: C_24  and  C_25
REMARK    7  A    between atoms: C_30  and  O_31
REMARK    8  A    between atoms: C_37  and  O_38
REMARK                            x       y       z     vdW  Elec       q    Type
REMARK                         _______ _______ _______ _____ _____    ______ ____
ROOT
ATOM      1  C   UNL     1       2.535   0.073  -0.732  0.00  0.00    +0.092 C 
ATOM      2  C   UNL     1       3.717  -0.532  -0.742  0.00  0.00    +0.004 C 
ATOM      3  C   UNL     1       4.957   0.243  -1.095  0.00  0.00    +0.017 C 
ATOM      4  C   UNL     1       6.031  -0.692  -1.632  0.00  0.00    -0.003 C 
ATOM      5  C   UNL     1       6.995   0.050  -2.568  0.00  0.00    -0.020 C 
ATOM      6  C   UNL     1       8.334  -0.694  -2.457  0.00  0.00    +0.157 C 
ATOM      7  O   UNL     1       9.312  -0.095  -3.322  0.00  0.00    -0.316 OA
ATOM      8  P   UNL     1       9.516   1.516  -3.215  0.00  0.00    +0.291 P 
ATOM      9  O   UNL     1      10.136   2.040  -4.452  0.00  0.00    -0.269 OA
ATOM     10  N   UNL     1       7.994   2.123  -3.035  0.00  0.00    -0.288 NA
ATOM     11  N   UNL     1       7.122   1.454  -2.199  0.00  0.00    +0.398 N 
ATOM     12  C   UNL     1       5.857   2.189  -2.354  0.00  0.00    -0.046 C 
ATOM     13  C   UNL     1       4.634   1.278  -2.171  0.00  0.00    +0.005 C 
ATOM     14  C   UNL     1       3.441   2.094  -1.750  0.00  0.00    -0.014 C 
ATOM     15  C   UNL     1       2.446   1.511  -1.065  0.00  0.00    +0.006 C 
ATOM     16  H   UNL     1       7.725   2.930  -3.501  0.00  0.00    +0.111 HD
ATOM     17  H   UNL     1       7.438   1.524  -1.243  0.00  0.00    -0.055 HD
ENDROOT
BRANCH  15  18
ATOM     18  C   UNL     1       1.268   2.305  -0.640  0.00  0.00    +0.025 A 
ATOM     19  C   UNL     1       0.288   2.653  -1.567  0.00  0.00    +0.012 A 
ATOM     20  C   UNL     1      -0.807   3.392  -1.167  0.00  0.00    +0.001 A 
ATOM     21  C   UNL     1      -0.935   3.790   0.152  0.00  0.00    +0.004 A 
ATOM     22  C   UNL     1       0.032   3.451   1.079  0.00  0.00    +0.046 A 
ATOM     23  C   UNL     1       1.133   2.704   0.693  0.00  0.00    +0.125 A 
BRANCH  23  24
ATOM     24  O   UNL     1       2.081   2.365   1.605  0.00  0.00    -0.506 OA
ATOM     25  H   UNL     1       2.794   3.013   1.690  0.00  0.00    +0.292 HD
ENDBRANCH  23  24
ENDBRANCH  15  18
BRANCH   8  26
ATOM     26  C   UNL     1      10.538   1.929  -1.774  0.00  0.00    +0.091 A 
ATOM     27  C   UNL     1       9.944   2.160  -0.548  0.00  0.00    +0.018 A 
ATOM     28  C   UNL     1      10.722   2.475   0.550  0.00  0.00    +0.001 A 
ATOM     29  C   UNL     1      12.097   2.559   0.424  0.00  0.00    +0.004 A 
ATOM     30  C   UNL     1      12.695   2.329  -0.799  0.00  0.00    +0.046 A 
ATOM     31  C   UNL     1      11.917   2.007  -1.901  0.00  0.00    +0.131 A 
BRANCH  31  32
ATOM     32  O   UNL     1      12.504   1.774  -3.105  0.00  0.00    -0.506 OA
ATOM     33  H   UNL     1      12.607   2.565  -3.652  0.00  0.00    +0.292 HD
ENDBRANCH  31  32
ENDBRANCH   8  26
BRANCH   1  34
ATOM     34  S   UNL     1       1.079  -0.835  -0.330  0.00  0.00    -0.001 S 
ATOM     35  O   UNL     1       0.405  -0.032   0.629  0.00  0.00    -0.169 OA
ATOM     36  O   UNL     1       1.544  -2.134   0.011  0.00  0.00    -0.169 OA
BRANCH  34  38
ATOM     37  C   UNL     1       0.931  -1.647  -2.938  0.00  0.00    +0.032 C 
ATOM     38  C   UNL     1       0.128  -0.897  -1.873  0.00  0.00    +0.130 C 
ATOM     39  C   UNL     1      -1.196  -1.623  -1.627  0.00  0.00    +0.032 C 
ENDBRANCH  34  38
ENDBRANCH   1  34
TORSDOF 6
