REMARK  Name = ZINC59734072
REMARK  8 active torsions:
REMARK  status: ('A' for Active; 'I' for Inactive)
REMARK    1  A    between atoms: C_1  and  C_2
REMARK    2  A    between atoms: N_5  and  C_8
REMARK    3  A    between atoms: C_8  and  C_9
REMARK    4  A    between atoms: C_12  and  C_15
REMARK    5  A    between atoms: C_15  and  N_16
REMARK    6  A    between atoms: N_16  and  C_17
REMARK    7  A    between atoms: C_20  and  N_30
REMARK    8  A    between atoms: C_21  and  C_23
REMARK                            x       y       z     vdW  Elec       q    Type
REMARK                         _______ _______ _______ _____ _____    ______ ____
ROOT
ATOM      1  N   UNL     1       1.880  -4.691   7.235  0.00  0.00    -0.340 N 
ATOM      2  H   UNL     1       1.673  -3.846   6.807  0.00  0.00    +0.146 HD
ENDROOT
BRANCH   1   3
ATOM      3  C   UNL     1       2.529  -4.708   8.472  0.00  0.00    +0.028 A 
ATOM      4  C   UNL     1       2.831  -5.920   9.082  0.00  0.00    +0.025 A 
ATOM      5  C   UNL     1       3.474  -5.942  10.305  0.00  0.00    +0.035 A 
ATOM      6  C   UNL     1       3.821  -4.760  10.929  0.00  0.00    +0.138 A 
ATOM      7  C   UNL     1       3.522  -3.538  10.325  0.00  0.00    +0.069 A 
ATOM      8  C   UNL     1       2.878  -3.516   9.088  0.00  0.00    +0.038 A 
BRANCH   7   9
ATOM      9  C   UNL     1       3.893  -2.271  10.991  0.00  0.00    +0.249 C 
ATOM     10  O   UNL     1       3.502  -2.040  12.118  0.00  0.00    -0.270 OA
ATOM     11  N   UNL     1       4.664  -1.372  10.348  0.00  0.00    -0.297 N 
ATOM     12  C   UNL     1       5.115  -1.472   8.953  0.00  0.00    +0.108 C 
ATOM     13  C   UNL     1       5.991  -0.235   8.664  0.00  0.00    +0.020 C 
ATOM     14  C   UNL     1       6.448   0.205  10.080  0.00  0.00    +0.020 C 
ATOM     15  C   UNL     1       5.190  -0.122  10.926  0.00  0.00    +0.108 C 
ENDBRANCH   7   9
BRANCH   6  16
ATOM     16  N   UNL     1       4.509  -4.789  12.239  0.00  0.00    +0.057 N 
ATOM     17  O   UNL     1       4.661  -5.839  12.819  0.00  0.00    -0.126 OA
ATOM     18  O   UNL     1       4.918  -3.763  12.730  0.00  0.00    -0.126 OA
ENDBRANCH   6  16
ENDBRANCH   1   3
BRANCH   1  19
ATOM     19  C   UNL     1       1.511  -5.951   6.584  0.00  0.00    +0.136 C 
BRANCH  19  23
ATOM     20  C   UNL     1      -0.426  -5.123   2.868  0.00  0.00    -0.064 A 
ATOM     21  C   UNL     1       0.947  -5.278   2.912  0.00  0.00    +0.002 A 
ATOM     22  C   UNL     1       1.574  -5.546   4.115  0.00  0.00    +0.005 A 
ATOM     23  C   UNL     1       0.828  -5.658   5.273  0.00  0.00    -0.030 A 
ATOM     24  C   UNL     1      -0.545  -5.502   5.229  0.00  0.00    +0.005 A 
ATOM     25  C   UNL     1      -1.171  -5.229   4.027  0.00  0.00    +0.002 A 
BRANCH  20  26
ATOM     26  C   UNL     1      -1.109  -4.831   1.557  0.00  0.00    -0.043 C 
BRANCH  26  31
ATOM     27  C   UNL     1      -0.836   0.574  -0.241  0.00  0.00    +0.007 C 
ATOM     28  C   UNL     1      -0.702  -0.947  -0.149  0.00  0.00    -0.018 C 
ATOM     29  C   UNL     1      -2.093  -1.577  -0.035  0.00  0.00    -0.016 C 
ATOM     30  C   UNL     1      -1.948  -3.091   0.137  0.00  0.00    -0.078 C 
ATOM     31  N   UNL     1      -1.178  -3.377   1.354  0.00  0.00    +0.382 N 
ATOM     32  C   UNL     1       0.180  -2.838   1.222  0.00  0.00    -0.078 C 
ATOM     33  C   UNL     1       0.118  -1.314   1.092  0.00  0.00    -0.016 C 
ATOM     34  H   UNL     1      -1.633  -2.950   2.147  0.00  0.00    -0.081 HD
ENDBRANCH  26  31
ENDBRANCH  20  26
ENDBRANCH  19  23
ENDBRANCH   1  19
TORSDOF 7
