REMARK  Name = ZINC20998121
REMARK  9 active torsions:
REMARK  status: ('A' for Active; 'I' for Inactive)
REMARK    1  A    between atoms: C_1  and  C_2
REMARK    2  A    between atoms: C_8  and  S_11
REMARK    3  A    between atoms: S_11  and  C_12
REMARK    4  A    between atoms: C_12  and  C_13
REMARK    5  A    between atoms: N_15  and  C_16
REMARK    6  A    between atoms: C_16  and  C_17
REMARK    7  A    between atoms: C_17  and  C_30
REMARK    8  A    between atoms: N_20  and  C_23
REMARK    9  A    between atoms: C_23  and  C_24
REMARK                            x       y       z     vdW  Elec       q    Type
REMARK                         _______ _______ _______ _____ _____    ______ ____
ROOT
ATOM      1  C   UNL     1      -0.735   1.618  -1.235  0.00  0.00    +0.008 C 
ATOM      2  C   UNL     1      -0.196   1.000   0.058  0.00  0.00    -0.006 C 
ATOM      3  C   UNL     1      -1.140   1.340   1.214  0.00  0.00    -0.077 C 
ATOM      4  N   UNL     1      -2.481   0.816   0.921  0.00  0.00    +0.382 N 
ATOM      5  C   UNL     1      -3.039   1.430  -0.290  0.00  0.00    -0.077 C 
ATOM      6  C   UNL     1      -2.151   1.093  -1.490  0.00  0.00    -0.006 C 
ATOM      7  H   UNL     1      -2.386  -0.264   0.736  0.00  0.00    -0.081 HD
ENDROOT
BRANCH   1   8
ATOM      8  C   UNL     1       0.160   1.238  -2.386  0.00  0.00    -0.040 A 
ATOM      9  C   UNL     1       1.239   0.400  -2.175  0.00  0.00    +0.004 A 
ATOM     10  C   UNL     1       2.057   0.048  -3.232  0.00  0.00    +0.000 A 
ATOM     11  C   UNL     1       1.802   0.542  -4.498  0.00  0.00    +0.000 A 
ATOM     12  C   UNL     1       0.727   1.384  -4.708  0.00  0.00    +0.000 A 
ATOM     13  C   UNL     1      -0.095   1.732  -3.652  0.00  0.00    +0.004 A 
ENDBRANCH   1   8
BRANCH   1  14
ATOM     14  C   UNL     1      -0.772   3.142  -1.097  0.00  0.00    +0.115 C 
BRANCH  14  17
ATOM     15  C   UNL     1       0.793   4.958  -0.664  0.00  0.00    +0.223 C 
ATOM     16  O   UNL     1      -0.150   5.718  -0.604  0.00  0.00    -0.275 OA
ATOM     17  N   UNL     1       0.589   3.648  -0.906  0.00  0.00    -0.314 N 
ATOM     18  H   UNL     1       1.445   2.959  -0.960  0.00  0.00    +0.149 HD
BRANCH  15  19
ATOM     19  C   UNL     1       2.194   5.479  -0.467  0.00  0.00    +0.171 C 
BRANCH  19  20
ATOM     20  S   UNL     1       2.137   7.266  -0.163  0.00  0.00    -0.095 S 
BRANCH  20  28
ATOM     21  C   UNL     1       7.385   4.947  -0.163  0.00  0.00    +0.090 C 
ATOM     22  C   UNL     1       7.257   6.428   0.083  0.00  0.00    +0.152 A 
ATOM     23  N   UNL     1       8.242   7.264   0.303  0.00  0.00    -0.132 NA
ATOM     24  N   UNL     1       7.784   8.455   0.474  0.00  0.00    -0.128 NA
ATOM     25  C   UNL     1       6.465   8.434   0.369  0.00  0.00    +0.178 A 
ATOM     26  N   UNL     1       6.106   7.133   0.117  0.00  0.00    -0.196 N 
ATOM     27  N   UNL     1       4.760   6.795  -0.039  0.00  0.00    -0.157 NA
ATOM     28  C   UNL     1       3.828   7.717   0.044  0.00  0.00    +0.118 A 
ATOM     29  C   UNL     1       4.163   9.061   0.302  0.00  0.00    +0.040 A 
ATOM     30  C   UNL     1       5.464   9.420   0.463  0.00  0.00    +0.053 A 
ENDBRANCH  20  28
ENDBRANCH  19  20
ENDBRANCH  15  19
ENDBRANCH  14  17
ENDBRANCH   1  14
BRANCH   4  31
ATOM     31  C   UNL     1      -3.380   1.002   2.068  0.00  0.00    -0.043 C 
BRANCH  31  32
ATOM     32  C   UNL     1      -2.675   0.583   3.332  0.00  0.00    -0.064 A 
ATOM     33  C   UNL     1      -2.768  -0.724   3.774  0.00  0.00    +0.002 A 
ATOM     34  C   UNL     1      -2.117  -1.110   4.931  0.00  0.00    +0.000 A 
ATOM     35  C   UNL     1      -1.383  -0.186   5.652  0.00  0.00    +0.000 A 
ATOM     36  C   UNL     1      -1.296   1.122   5.213  0.00  0.00    +0.000 A 
ATOM     37  C   UNL     1      -1.942   1.506   4.053  0.00  0.00    +0.002 A 
ENDBRANCH  31  32
ENDBRANCH   4  31
TORSDOF 8
