REMARK  Name = ZINC13008133
REMARK  9 active torsions:
REMARK  status: ('A' for Active; 'I' for Inactive)
REMARK    1  A    between atoms: C_1  and  C_2
REMARK    2  A    between atoms: C_5  and  C_32
REMARK    3  A    between atoms: C_6  and  N_8
REMARK    4  A    between atoms: C_9  and  C_11
REMARK    5  A    between atoms: N_13  and  C_14
REMARK    6  A    between atoms: C_14  and  C_15
REMARK    7  A    between atoms: C_15  and  C_17
REMARK    8  A    between atoms: C_15  and  N_66
REMARK    9  A    between atoms: N_25  and  C_26
REMARK                            x       y       z     vdW  Elec       q    Type
REMARK                         _______ _______ _______ _____ _____    ______ ____
ROOT
ATOM      1  C   UNL     1      -3.378   6.282  -1.021  0.00  0.00    -0.020 C 
ENDROOT
BRANCH   1   2
ATOM      2  C   UNL     1      -2.595   5.092  -0.529  0.00  0.00    -0.059 A 
ATOM      3  C   UNL     1      -2.281   4.976   0.813  0.00  0.00    +0.004 A 
ATOM      4  C   UNL     1      -1.568   3.887   1.268  0.00  0.00    +0.023 A 
ATOM      5  C   UNL     1      -1.159   2.895   0.378  0.00  0.00    +0.033 A 
ATOM      6  C   UNL     1      -1.476   3.023  -0.969  0.00  0.00    -0.025 A 
ATOM      7  C   UNL     1      -2.191   4.113  -1.419  0.00  0.00    +0.007 A 
ATOM      8  C   UNL     1      -0.907   1.822  -1.699  0.00  0.00    +0.056 C 
ATOM      9  C   UNL     1       0.098   1.244  -0.677  0.00  0.00    +0.109 C 
ATOM     10  N   UNL     1      -0.444   1.712   0.617  0.00  0.00    -0.332 N 
ATOM     11  C   UNL     1       0.633   1.930   1.591  0.00  0.00    +0.129 C 
ENDBRANCH   1   2
BRANCH   1  17
ATOM     12  C   UNL     1      -5.678   7.014  -0.841  0.00  0.00    -0.078 C 
ATOM     13  C   UNL     1      -6.863   7.137   0.121  0.00  0.00    -0.019 C 
ATOM     14  C   UNL     1      -6.507   8.124   1.236  0.00  0.00    -0.004 C 
ATOM     15  C   UNL     1      -5.245   7.638   1.954  0.00  0.00    -0.019 C 
ATOM     16  C   UNL     1      -4.108   7.500   0.940  0.00  0.00    -0.078 C 
ATOM     17  N   UNL     1      -4.503   6.519  -0.093  0.00  0.00    +0.385 N 
ATOM     18  H   UNL     1      -4.749   5.633   0.365  0.00  0.00    -0.081 HD
ENDBRANCH   1  17
BRANCH   1  19
ATOM     19  C   UNL     1      -2.463   7.508  -1.073  0.00  0.00    +0.094 C 
BRANCH  19  22
ATOM     20  C   UNL     1      -2.644   9.876  -1.617  0.00  0.00    +0.299 C 
ATOM     21  O   UNL     1      -1.516  10.028  -1.198  0.00  0.00    -0.265 OA
ATOM     22  N   UNL     1      -3.210   8.653  -1.599  0.00  0.00    -0.309 N 
ATOM     23  H   UNL     1      -4.112   8.531  -1.934  0.00  0.00    +0.149 HD
BRANCH  20  25
ATOM     24  N   UNL     1      -2.840  12.266  -2.171  0.00  0.00    -0.278 N 
ATOM     25  C   UNL     1      -3.406  11.043  -2.153  0.00  0.00    +0.303 C 
ATOM     26  O   UNL     1      -4.535  10.891  -2.572  0.00  0.00    -0.265 OA
ATOM     27  H   UNL     1      -1.916  12.377  -1.898  0.00  0.00    +0.155 HD
BRANCH  24  33
ATOM     28  C   UNL     1      -6.550  14.130  -4.803  0.00  0.00    +0.044 C 
ATOM     29  C   UNL     1      -5.389  14.307  -3.858  0.00  0.00    -0.049 A 
ATOM     30  C   UNL     1      -5.058  15.570  -3.400  0.00  0.00    +0.004 A 
ATOM     31  C   UNL     1      -3.993  15.737  -2.534  0.00  0.00    +0.005 A 
ATOM     32  C   UNL     1      -3.255  14.644  -2.124  0.00  0.00    -0.029 A 
ATOM     33  C   UNL     1      -3.585  13.375  -2.583  0.00  0.00    +0.037 A 
ATOM     34  C   UNL     1      -4.652  13.210  -3.457  0.00  0.00    +0.027 A 
ATOM     35  C   UNL     1      -2.095  14.827  -1.181  0.00  0.00    +0.045 C 
ENDBRANCH  24  33
ENDBRANCH  20  25
ENDBRANCH  19  22
ENDBRANCH   1  19
TORSDOF 6
