REMARK  Name = ZINC25868390
REMARK  7 active torsions:
REMARK  status: ('A' for Active; 'I' for Inactive)
REMARK    1  A    between atoms: C_1  and  C_2
REMARK    2  A    between atoms: C_2  and  C_3
REMARK    3  A    between atoms: C_2  and  C_4
REMARK    4  A    between atoms: C_5  and  C_18
REMARK    5  A    between atoms: C_6  and  N_17
REMARK    6  A    between atoms: C_10  and  N_16
REMARK    7  A    between atoms: C_11  and  C_13
REMARK                            x       y       z     vdW  Elec       q    Type
REMARK                         _______ _______ _______ _____ _____    ______ ____
ROOT
ATOM      1  C   UNL     1      -6.260   0.654   0.775  0.00  0.00    -0.013 A 
ATOM      2  C   UNL     1      -7.133  -0.420   0.883  0.00  0.00    +0.095 A 
ATOM      3  C   UNL     1      -6.638  -1.739   0.805  0.00  0.00    +0.135 A 
ATOM      4  N   UNL     1      -5.345  -1.952   0.628  0.00  0.00    -0.224 NA
ATOM      5  C   UNL     1      -4.489  -0.956   0.521  0.00  0.00    +0.113 A 
ATOM      6  C   UNL     1      -4.881   0.403   0.586  0.00  0.00    +0.034 A 
ATOM      7  C   UNL     1      -3.797   1.364   0.454  0.00  0.00    +0.054 A 
ATOM      8  C   UNL     1      -2.518   0.886   0.271  0.00  0.00    +0.097 A 
ATOM      9  S   UNL     1      -2.731  -0.882   0.284  0.00  0.00    -0.062 S 
ENDROOT
BRANCH   8  10
ATOM     10  C   UNL     1      -1.319   1.625   0.116  0.00  0.00    +0.250 C 
ATOM     11  O   UNL     1      -1.348   2.842   0.132  0.00  0.00    -0.270 OA
ATOM     12  N   UNL     1      -0.147   0.980  -0.048  0.00  0.00    -0.325 N 
ATOM     13  H   UNL     1       0.784   1.554  -0.168  0.00  0.00    +0.145 HD
ATOM     14  H   UNL     1      -0.121  -0.120  -0.062  0.00  0.00    +0.145 HD
ENDBRANCH   8  10
BRANCH   1  16
ATOM     15  C   UNL     1      -7.860   2.278  -0.202  0.00  0.00    +0.012 C 
ATOM     16  C   UNL     1      -6.775   2.068   0.856  0.00  0.00    +0.015 C 
ATOM     17  C   UNL     1      -7.363   2.317   2.246  0.00  0.00    +0.012 C 
ENDBRANCH   1  16
BRANCH   7  18
ATOM     18  N   UNL     1      -4.046   2.728   0.506  0.00  0.00    -0.356 N 
ATOM     19  H   UNL     1      -3.216   3.443   0.404  0.00  0.00    +0.142 HD
ATOM     20  H   UNL     1      -5.073   3.094   0.649  0.00  0.00    +0.142 HD
ENDBRANCH   7  18
BRANCH   3  21
ATOM     21  N   UNL     1      -7.506  -2.810   0.913  0.00  0.00    -0.342 N 
ATOM     22  H   UNL     1      -7.121  -3.838   0.852  0.00  0.00    +0.144 HD
ATOM     23  H   UNL     1      -8.582  -2.633   1.060  0.00  0.00    +0.144 HD
ENDBRANCH   3  21
BRANCH   2  24
ATOM     24  C   UNL     1      -8.533  -0.190   1.075  0.00  0.00    +0.103 C 
ATOM     25  N   UNL     1      -9.644  -0.007   1.227  0.00  0.00    -0.191 NA
ENDBRANCH   2  24
TORSDOF 5
