REMARK  Name = ZINC63541081
REMARK  6 active torsions:
REMARK  status: ('A' for Active; 'I' for Inactive)
REMARK    1  A    between atoms: C_4  and  C_7
REMARK    2  A    between atoms: C_11  and  C_21
REMARK    3  A    between atoms: C_16  and  C_18
REMARK    4  A    between atoms: N_23  and  C_24
REMARK    5  A    between atoms: C_24  and  C_25
REMARK    6  A    between atoms: C_25  and  C_26
REMARK                            x       y       z     vdW  Elec       q    Type
REMARK                         _______ _______ _______ _____ _____    ______ ____
ROOT
ATOM      1  C   UNL     1       3.698  -0.688  -0.037  0.00  0.00    +0.070 C 
ATOM      2  N   UNL     1       4.810   0.004  -0.039  0.00  0.00    -0.254 NA
ATOM      3  C   UNL     1       6.103  -0.684  -0.051  0.00  0.00    +0.246 C 
ATOM      4  C   UNL     1       7.098   0.011   0.850  0.00  0.00    +0.073 C 
ATOM      5  H   UNL     1       7.190  -2.947   1.973  0.00  0.00    +0.170 HD
ATOM      6  C   UNL     1       7.533  -0.910   1.735  0.00  0.00    +0.100 C 
ATOM      7  N   UNL     1       6.935  -2.120   1.535  0.00  0.00    -0.269 N 
ATOM      8  N   UNL     1       5.900  -2.002   0.590  0.00  0.00    -0.223 N 
ATOM      9  C   UNL     1       4.835  -2.813   0.290  0.00  0.00    +0.095 C 
ATOM     10  C   UNL     1       3.695  -2.154  -0.045  0.00  0.00    +0.054 C 
ENDROOT
BRANCH   1  14
ATOM     11  C   UNL     1      -0.017   1.379   0.010  0.00  0.00    +0.000 A 
ATOM     12  C   UNL     1       1.169   2.092   0.002  0.00  0.00    +0.001 A 
ATOM     13  C   UNL     1       2.377   1.427  -0.013  0.00  0.00    +0.010 A 
ATOM     14  C   UNL     1       2.402   0.033  -0.021  0.00  0.00    +0.000 A 
ATOM     15  C   UNL     1       1.205  -0.680  -0.013  0.00  0.00    +0.010 A 
ATOM     16  C   UNL     1       0.002  -0.004   0.002  0.00  0.00    +0.001 A 
ENDBRANCH   1  14
BRANCH   4  17
ATOM     17  C   UNL     1       7.497   1.366   0.779  0.00  0.00    +0.245 C 
ATOM     18  O   UNL     1       8.312   1.803   1.570  0.00  0.00    -0.270 OA
ATOM     19  N   UNL     1       6.974   2.173  -0.166  0.00  0.00    -0.311 N 
ATOM     20  H   UNL     1       6.325   1.825  -0.796  0.00  0.00    +0.149 HD
BRANCH  19  21
ATOM     21  C   UNL     1       7.387   3.577  -0.240  0.00  0.00    +0.109 C 
BRANCH  21  22
ATOM     22  C   UNL     1       6.651   4.265  -1.390  0.00  0.00    +0.052 C 
BRANCH  22  23
ATOM     23  C   UNL     1       7.076   5.709  -1.466  0.00  0.00    -0.040 C 
ATOM     24  C   UNL     1       8.041   6.232  -2.257  0.00  0.00    -0.001 A 
ATOM     25  C   UNL     1       8.950   5.636  -3.243  0.00  0.00    +0.010 A 
ATOM     26  C   UNL     1       9.829   6.434  -3.891  0.00  0.00    +0.001 A 
ATOM     27  C   UNL     1       9.895   7.812  -3.644  0.00  0.00    +0.002 A 
ATOM     28  C   UNL     1       9.093   8.432  -2.752  0.00  0.00    +0.026 A 
ATOM     29  C   UNL     1       8.130   7.690  -2.014  0.00  0.00    +0.043 A 
ATOM     30  N   UNL     1       7.254   8.054  -1.109  0.00  0.00    -0.380 N 
ATOM     31  C   UNL     1       6.505   6.868  -0.679  0.00  0.00    +0.144 C 
ATOM     32  H   UNL     1       7.120   8.957  -0.782  0.00  0.00    +0.160 HD
ENDBRANCH  22  23
ENDBRANCH  21  22
ENDBRANCH  19  21
ENDBRANCH   4  17
BRANCH   9  33
ATOM     33  C   UNL     1       4.922  -4.317   0.333  0.00  0.00    +0.387 C 
ATOM     34  F   UNL     1       3.685  -4.865  -0.021  0.00  0.00    -0.202 F 
ATOM     35  F   UNL     1       5.900  -4.754  -0.567  0.00  0.00    -0.202 F 
ENDBRANCH   9  33
TORSDOF 6
