REMARK  Name = ZINC09489351
REMARK  10 active torsions:
REMARK  status: ('A' for Active; 'I' for Inactive)
REMARK    1  A    between atoms: C_1  and  C_2
REMARK    2  A    between atoms: C_2  and  N_3
REMARK    3  A    between atoms: N_3  and  C_4
REMARK    4  A    between atoms: N_3  and  C_11
REMARK    5  A    between atoms: C_4  and  C_5
REMARK    6  A    between atoms: C_14  and  C_17
REMARK    7  A    between atoms: N_21  and  C_28
REMARK    8  A    between atoms: N_24  and  C_27
REMARK    9  A    between atoms: C_35  and  C_37
REMARK   10  A    between atoms: C_35  and  C_38
REMARK                            x       y       z     vdW  Elec       q    Type
REMARK                         _______ _______ _______ _____ _____    ______ ____
ROOT
ATOM      1  C   UNL     1      -1.320   2.102   0.020  0.00  0.00    +0.092 C 
ATOM      2  C   UNL     1      -2.455   1.223   0.461  0.00  0.00    +0.067 A 
ATOM      3  C   UNL     1      -2.336  -0.134   0.441  0.00  0.00    +0.116 A 
ATOM      4  N   UNL     1      -3.396  -0.913   0.839  0.00  0.00    -0.284 N 
ATOM      5  C   UNL     1      -4.543  -0.342   1.249  0.00  0.00    +0.333 A 
ATOM      6  O   UNL     1      -5.472  -1.045   1.597  0.00  0.00    -0.246 OA
ATOM      7  N   UNL     1      -4.678   0.997   1.279  0.00  0.00    -0.264 N 
ATOM      8  C   UNL     1      -3.663   1.797   0.897  0.00  0.00    +0.262 A 
ATOM      9  O   UNL     1      -3.792   3.008   0.927  0.00  0.00    -0.267 OA
ATOM     10  C   UNL     1      -5.939   1.590   1.732  0.00  0.00    +0.157 C 
ATOM     11  C   UNL     1      -3.276  -2.373   0.817  0.00  0.00    +0.155 C 
ATOM     12  N   UNL     1      -1.166  -0.718   0.025  0.00  0.00    -0.303 N 
ATOM     13  C   UNL     1       0.002  -0.004   0.002  0.00  0.00    +0.017 C 
ATOM     14  C   UNL     1      -0.016   1.345   0.009  0.00  0.00    +0.024 C 
ATOM     15  C   UNL     1       1.179   2.086   0.002  0.00  0.00    +0.162 C 
ATOM     16  O   UNL     1       1.127   3.300  -0.002  0.00  0.00    -0.292 OA
ATOM     17  C   UNL     1       2.519   1.405  -0.001  0.00  0.00    +0.086 C 
ATOM     18  C   UNL     1       2.388   0.043   0.691  0.00  0.00    -0.023 C 
ATOM     19  C   UNL     1       1.306  -0.763  -0.029  0.00  0.00    +0.058 C 
ATOM     20  C   UNL     1       1.991   0.246   2.154  0.00  0.00    +0.011 C 
ATOM     21  C   UNL     1       3.721  -0.705   0.619  0.00  0.00    +0.011 C 
ATOM     22  H   UNL     1      -1.166  -1.647  -0.255  0.00  0.00    +0.153 HD
ENDROOT
BRANCH   1  26
ATOM     23  C   UNL     1      -2.118   3.570  -3.914  0.00  0.00    +0.030 A 
ATOM     24  C   UNL     1      -1.988   4.457  -2.854  0.00  0.00    +0.023 A 
ATOM     25  C   UNL     1      -1.730   3.980  -1.584  0.00  0.00    +0.006 A 
ATOM     26  C   UNL     1      -1.601   2.620  -1.367  0.00  0.00    -0.035 A 
ATOM     27  C   UNL     1      -1.725   1.734  -2.422  0.00  0.00    +0.006 A 
ATOM     28  C   UNL     1      -1.989   2.204  -3.694  0.00  0.00    +0.023 A 
BRANCH  23  29
ATOM     29  N   UNL     1      -2.378   4.049  -5.200  0.00  0.00    -0.326 N 
BRANCH  29  31
ATOM     30  C   UNL     1      -1.144   6.084  -5.764  0.00  0.00    +0.024 C 
ATOM     31  C   UNL     1      -2.514   5.490  -5.431  0.00  0.00    +0.102 C 
ENDBRANCH  29  31
BRANCH  29  32
ATOM     32  C   UNL     1      -2.516   3.112  -6.318  0.00  0.00    +0.140 C 
BRANCH  32  33
ATOM     33  C   UNL     1      -3.959   2.699  -6.452  0.00  0.00    -0.030 A 
ATOM     34  C   UNL     1      -4.426   1.589  -5.773  0.00  0.00    +0.005 A 
ATOM     35  C   UNL     1      -5.751   1.214  -5.893  0.00  0.00    +0.000 A 
ATOM     36  C   UNL     1      -6.606   1.941  -6.700  0.00  0.00    +0.000 A 
ATOM     37  C   UNL     1      -6.137   3.047  -7.383  0.00  0.00    +0.000 A 
ATOM     38  C   UNL     1      -4.814   3.426  -7.259  0.00  0.00    +0.005 A 
ENDBRANCH  32  33
ENDBRANCH  29  32
ENDBRANCH  23  29
ENDBRANCH   1  26
TORSDOF 5
