REMARK  Name = ZINC05346973
REMARK  7 active torsions:
REMARK  status: ('A' for Active; 'I' for Inactive)
REMARK    1  A    between atoms: C_1  and  N_48
REMARK    2  A    between atoms: C_2  and  N_48
REMARK    3  A    between atoms: C_3  and  C_4
REMARK    4  A    between atoms: C_3  and  N_48
REMARK    5  A    between atoms: C_4  and  N_5
REMARK    6  A    between atoms: C_11  and  C_21
REMARK    7  A    between atoms: C_16  and  O_20
REMARK                            x       y       z     vdW  Elec       q    Type
REMARK                         _______ _______ _______ _____ _____    ______ ____
ROOT
ATOM      1  N   UNL     1       0.594   0.447   0.002  0.00  0.00    -0.320 N 
ATOM      2  C   UNL     1       1.927   0.195  -0.008  0.00  0.00    +0.204 A 
ATOM      3  N   UNL     1       2.802   1.158  -0.011  0.00  0.00    -0.202 NA
ATOM      4  C   UNL     1       2.440   2.455  -0.005  0.00  0.00    +0.229 A 
ATOM      5  C   UNL     1       1.119   2.789   0.006  0.00  0.00    +0.066 A 
ATOM      6  C   UNL     1       0.153   1.756   0.011  0.00  0.00    +0.115 A 
ATOM      7  C   UNL     1       0.674   4.224   0.011  0.00  0.00    +0.091 C 
ATOM      8  C   UNL     1       1.808   5.125   0.418  0.00  0.00    +0.007 A 
ATOM      9  C   UNL     1       1.537   6.420   0.824  0.00  0.00    +0.012 A 
ATOM     10  C   UNL     1       2.566   7.261   1.201  0.00  0.00    +0.046 A 
ATOM     11  C   UNL     1       3.877   6.808   1.173  0.00  0.00    +0.120 A 
ATOM     12  C   UNL     1       4.151   5.512   0.767  0.00  0.00    +0.092 A 
ATOM     13  C   UNL     1       3.115   4.668   0.388  0.00  0.00    +0.138 A 
ATOM     14  O   UNL     1       3.400   3.405  -0.011  0.00  0.00    -0.437 OA
ATOM     15  H   UNL     1      -1.863   1.387   0.018  0.00  0.00    +0.157 HD
ATOM     16  N   UNL     1      -1.140   2.106   0.019  0.00  0.00    -0.384 N 
ATOM     17  H   UNL     1      -1.403   3.099   0.025  0.00  0.00    +0.157 HD
ENDROOT
BRANCH   7  18
ATOM     18  C   UNL     1       0.206   4.605  -1.371  0.00  0.00    -0.035 A 
ATOM     19  C   UNL     1       1.079   4.532  -2.440  0.00  0.00    +0.006 A 
ATOM     20  C   UNL     1       0.649   4.876  -3.708  0.00  0.00    +0.020 A 
ATOM     21  C   UNL     1      -0.652   5.304  -3.904  0.00  0.00    +0.041 A 
ATOM     22  C   UNL     1      -1.524   5.382  -2.833  0.00  0.00    +0.020 A 
ATOM     23  C   UNL     1      -1.094   5.032  -1.566  0.00  0.00    +0.006 A 
ATOM     24 CL   UNL     1      -1.191   5.742  -5.495  0.00  0.00    -0.084 Cl
ENDBRANCH   7  18
BRANCH  11  25
ATOM     25  O   UNL     1       4.890   7.633   1.544  0.00  0.00    -0.507 OA
ATOM     26  H   UNL     1       5.105   7.594   2.486  0.00  0.00    +0.292 HD
ENDBRANCH  11  25
BRANCH   1  27
ATOM     27  C   UNL     1      -0.368  -0.658   0.002  0.00  0.00    +0.106 C 
BRANCH  27  28
ATOM     28  C   UNL     1      -0.807  -0.953  -1.434  0.00  0.00    -0.058 C 
BRANCH  28  31
ATOM     29  C   UNL     1      -2.393  -2.218  -2.755  0.00  0.00    -0.097 C 
ATOM     30  C   UNL     1      -1.136  -3.311  -0.998  0.00  0.00    -0.097 C 
ATOM     31  N   UNL     1      -1.792  -2.054  -1.415  0.00  0.00    +0.377 N 
ATOM     32  H   UNL     1      -2.534  -1.826  -0.742  0.00  0.00    -0.083 HD
ENDBRANCH  28  31
ENDBRANCH  27  28
ENDBRANCH   1  27
TORSDOF 5
