REMARK  Name = ZINC39127774
REMARK  9 active torsions:
REMARK  status: ('A' for Active; 'I' for Inactive)
REMARK    1  A    between atoms: C_1  and  C_2
REMARK    2  A    between atoms: C_3  and  C_29
REMARK    3  A    between atoms: C_4  and  O_24
REMARK    4  A    between atoms: C_5  and  C_23
REMARK    5  A    between atoms: N_11  and  C_12
REMARK    6  A    between atoms: C_12  and  C_13
REMARK    7  A    between atoms: C_16  and  S_19
REMARK    8  A    between atoms: S_19  and  N_22
REMARK    9  A    between atoms: O_24  and  S_25
REMARK                            x       y       z     vdW  Elec       q    Type
REMARK                         _______ _______ _______ _____ _____    ______ ____
ROOT
ATOM      1  C   UNL     1       0.441   1.472  -0.055  0.00  0.00    +0.046 C 
ATOM      2  C   UNL     1       0.223  -0.019  -0.029  0.00  0.00    -0.017 A 
ATOM      3  C   UNL     1      -0.098  -0.676  -1.189  0.00  0.00    -0.001 A 
ATOM      4  C   UNL     1      -0.308  -2.051  -1.209  0.00  0.00    +0.166 A 
ATOM      5  C   UNL     1      -0.188  -2.771  -0.029  0.00  0.00    +0.010 A 
ATOM      6  C   UNL     1       0.134  -2.117   1.133  0.00  0.00    +0.047 A 
ATOM      7  C   UNL     1       0.358  -0.723   1.188  0.00  0.00    +0.084 A 
ATOM      8  N   UNL     1       0.672  -0.228   2.408  0.00  0.00    -0.225 NA
ATOM      9  C   UNL     1       0.768  -0.989   3.474  0.00  0.00    +0.159 A 
ATOM     10  S   UNL     1       0.386  -2.609   2.822  0.00  0.00    -0.052 S 
ATOM     11  N   UNL     1       1.078  -0.628   4.770  0.00  0.00    -0.319 N 
ATOM     12  C   UNL     1      -0.410  -4.262  -0.024  0.00  0.00    +0.049 C 
ATOM     13  C   UNL     1      -0.228   0.108  -2.469  0.00  0.00    +0.048 C 
ATOM     14  H   UNL     1       1.259   0.300   4.984  0.00  0.00    +0.148 HD
ENDROOT
BRANCH  11  15
ATOM     15  C   UNL     1       1.133  -1.647   5.821  0.00  0.00    +0.138 C 
BRANCH  15  16
ATOM     16  C   UNL     1       1.488  -0.997   7.133  0.00  0.00    -0.030 A 
ATOM     17  C   UNL     1       2.814  -0.868   7.503  0.00  0.00    +0.007 A 
ATOM     18  C   UNL     1       3.141  -0.271   8.707  0.00  0.00    +0.029 A 
ATOM     19  C   UNL     1       2.142   0.196   9.540  0.00  0.00    +0.105 A 
ATOM     20  C   UNL     1       0.816   0.068   9.169  0.00  0.00    +0.029 A 
ATOM     21  C   UNL     1       0.490  -0.525   7.964  0.00  0.00    +0.007 A 
BRANCH  19  22
ATOM     22  S   UNL     1       2.558   0.956  11.074  0.00  0.00    +0.056 S 
ATOM     23  O   UNL     1       1.423   0.816  11.918  0.00  0.00    -0.153 OA
ATOM     24  O   UNL     1       3.841   0.463  11.436  0.00  0.00    -0.153 OA
BRANCH  22  25
ATOM     25  N   UNL     1       2.737   2.576  10.786  0.00  0.00    -0.204 NA
ATOM     26  H   UNL     1       2.538   3.218  11.485  0.00  0.00    +0.144 HD
ATOM     27  H   UNL     1       3.042   2.884   9.918  0.00  0.00    +0.144 HD
ENDBRANCH  22  25
ENDBRANCH  19  22
ENDBRANCH  15  16
ENDBRANCH  11  15
BRANCH   4  28
ATOM     28  O   UNL     1      -0.626  -2.682  -2.371  0.00  0.00    -0.323 OA
BRANCH  28  29
ATOM     29  S   UNL     1       0.579  -3.170  -3.161  0.00  0.00    +0.282 S 
ATOM     30  O   UNL     1       0.108  -3.481  -4.501  0.00  0.00    -0.105 OA
ATOM     31  O   UNL     1       1.550  -2.087  -3.163  0.00  0.00    -0.105 OA
ATOM     32  O   UNL     1       1.084  -4.350  -2.475  0.00  0.00    -0.012 OA
ENDBRANCH  28  29
ENDBRANCH   4  28
TORSDOF 6
