REMARK  Name = ZINC06196544
REMARK  18 active torsions:
REMARK  status: ('A' for Active; 'I' for Inactive)
REMARK    1  A    between atoms: C_1  and  C_2
REMARK    2  A    between atoms: C_2  and  O_3
REMARK    3  A    between atoms: O_3  and  C_4
REMARK    4  A    between atoms: C_7  and  C_12
REMARK    5  A    between atoms: C_9  and  O_10
REMARK    6  A    between atoms: O_10  and  C_11
REMARK    7  A    between atoms: C_17  and  C_22
REMARK    8  A    between atoms: C_25  and  O_30
REMARK    9  A    between atoms: C_26  and  O_28
REMARK   10  A    between atoms: O_28  and  C_29
REMARK   11  A    between atoms: O_30  and  C_31
REMARK   12  A    between atoms: C_33  and  C_42
REMARK   13  A    between atoms: C_34  and  C_35
REMARK   14  A    between atoms: C_35  and  O_37
REMARK   15  A    between atoms: O_37  and  C_38
REMARK   16  A    between atoms: C_38  and  C_39
REMARK   17  A    between atoms: C_39  and  C_40
REMARK   18  A    between atoms: C_39  and  C_41
REMARK                            x       y       z     vdW  Elec       q    Type
REMARK                         _______ _______ _______ _____ _____    ______ ____
ROOT
ATOM      1  C   UNL     1      -0.014   1.089   0.004  0.00  0.00    +0.073 C 
ATOM      2  C   UNL     1       1.404   1.602  -0.005  0.00  0.00    +0.112 C 
ATOM      3  C   UNL     1       1.765   2.645   0.772  0.00  0.00    +0.031 C 
ATOM      4  C   UNL     1       3.178   3.173   0.757  0.00  0.00    +0.060 C 
ATOM      5  C   UNL     1       4.150   2.028   0.459  0.00  0.00    +0.032 C 
ATOM      6  C   UNL     1       3.772   1.411  -0.891  0.00  0.00    +0.083 C 
ATOM      7  C   UNL     1       2.337   0.963  -0.840  0.00  0.00    +0.143 C 
ATOM      8  O   UNL     1       1.977   0.033  -1.534  0.00  0.00    -0.297 OA
ATOM      9  N   UNL     1       0.851   3.248   1.595  0.00  0.00    -0.260 NA
ATOM     10  C   UNL     1      -0.299   2.601   1.950  0.00  0.00    +0.049 C 
ATOM     11  C   UNL     1      -0.751   1.565   1.222  0.00  0.00    +0.066 C 
ATOM     12  C   UNL     1      -1.069   3.056   3.163  0.00  0.00    +0.066 C 
ENDROOT
BRANCH   1  16
ATOM     13  C   UNL     1      -2.035   2.499  -3.492  0.00  0.00    +0.162 A 
ATOM     14  C   UNL     1      -1.524   3.401  -2.572  0.00  0.00    +0.050 A 
ATOM     15  C   UNL     1      -0.876   2.942  -1.440  0.00  0.00    +0.008 A 
ATOM     16  C   UNL     1      -0.726   1.584  -1.229  0.00  0.00    -0.035 A 
ATOM     17  C   UNL     1      -1.234   0.679  -2.142  0.00  0.00    +0.053 A 
ATOM     18  C   UNL     1      -1.889   1.133  -3.276  0.00  0.00    +0.162 A 
BRANCH  18  19
ATOM     19  O   UNL     1      -2.389   0.243  -4.175  0.00  0.00    -0.491 OA
ATOM     20  C   UNL     1      -2.203  -1.144  -3.888  0.00  0.00    +0.277 C 
ENDBRANCH  18  19
BRANCH  13  21
ATOM     21  O   UNL     1      -2.677   2.949  -4.603  0.00  0.00    -0.489 OA
BRANCH  21  23
ATOM     22  C   UNL     1      -3.537   4.678  -6.056  0.00  0.00    +0.048 C 
ATOM     23  C   UNL     1      -2.790   4.365  -4.759  0.00  0.00    +0.226 C 
ENDBRANCH  21  23
ENDBRANCH  13  21
ENDBRANCH   1  16
BRANCH   5  24
ATOM     24  C   UNL     1       5.558   2.562   0.396  0.00  0.00    -0.040 A 
ATOM     25  C   UNL     1       5.888   3.527  -0.539  0.00  0.00    +0.008 A 
ATOM     26  C   UNL     1       7.176   4.025  -0.598  0.00  0.00    +0.049 A 
ATOM     27  C   UNL     1       8.143   3.549   0.274  0.00  0.00    +0.161 A 
ATOM     28  C   UNL     1       7.812   2.574   1.210  0.00  0.00    +0.162 A 
ATOM     29  C   UNL     1       6.518   2.084   1.268  0.00  0.00    +0.053 A 
BRANCH  28  30
ATOM     30  O   UNL     1       8.758   2.105   2.068  0.00  0.00    -0.491 OA
ATOM     31  C   UNL     1       8.346   1.105   3.003  0.00  0.00    +0.277 C 
ENDBRANCH  28  30
BRANCH  27  32
ATOM     32  O   UNL     1       9.412   4.033   0.213  0.00  0.00    -0.491 OA
ATOM     33  C   UNL     1       9.679   5.032  -0.773  0.00  0.00    +0.277 C 
ENDBRANCH  27  32
ENDBRANCH   5  24
BRANCH  11  34
ATOM     34  C   UNL     1      -1.941   0.908   1.612  0.00  0.00    +0.338 C 
ATOM     35  O   UNL     1      -2.548   1.284   2.598  0.00  0.00    -0.245 OA
BRANCH  34  36
ATOM     36  O   UNL     1      -2.405  -0.135   0.892  0.00  0.00    -0.461 OA
BRANCH  36  37
ATOM     37  C   UNL     1      -3.612  -0.750   1.345  0.00  0.00    +0.235 C 
BRANCH  37  38
ATOM     38  C   UNL     1      -3.978  -1.904   0.409  0.00  0.00    +0.020 C 
ATOM     39  C   UNL     1      -5.200  -2.641   0.962  0.00  0.00    +0.010 C 
ATOM     40  C   UNL     1      -4.301  -1.352  -0.981  0.00  0.00    +0.010 C 
ENDBRANCH  37  38
ENDBRANCH  36  37
ENDBRANCH  34  36
ENDBRANCH  11  34
TORSDOF 11
