REMARK  Name = ZINC38615757
REMARK  9 active torsions:
REMARK  status: ('A' for Active; 'I' for Inactive)
REMARK    1  A    between atoms: C_1  and  C_2
REMARK    2  A    between atoms: C_2  and  C_4
REMARK    3  A    between atoms: C_2  and  O_27
REMARK    4  A    between atoms: N_6  and  C_7
REMARK    5  A    between atoms: C_15  and  C_16
REMARK    6  A    between atoms: C_16  and  C_18
REMARK    7  A    between atoms: C_21  and  O_25
REMARK    8  A    between atoms: O_25  and  C_26
REMARK    9  A    between atoms: O_27  and  C_28
REMARK                            x       y       z     vdW  Elec       q    Type
REMARK                         _______ _______ _______ _____ _____    ______ ____
ROOT
ATOM      1  C   UNL     1       0.937  -0.929   3.387  0.00  0.00    +0.091 A 
ATOM      2  C   UNL     1       0.345  -1.263   4.688  0.00  0.00    +0.042 A 
ATOM      3  C   UNL     1      -0.924  -1.102   5.246  0.00  0.00    +0.013 A 
ATOM      4  C   UNL     1      -1.163  -1.532   6.521  0.00  0.00    +0.001 A 
ATOM      5  C   UNL     1      -0.153  -2.126   7.263  0.00  0.00    +0.004 A 
ATOM      6  C   UNL     1       1.107  -2.294   6.730  0.00  0.00    +0.047 A 
ATOM      7  C   UNL     1       1.374  -1.865   5.434  0.00  0.00    +0.138 A 
ATOM      8  O   UNL     1       2.482  -1.896   4.668  0.00  0.00    -0.450 OA
ATOM      9  C   UNL     1       2.249  -1.355   3.452  0.00  0.00    +0.197 A 
ENDROOT
BRANCH   1  12
ATOM     10  C   UNL     1      -0.707   0.545   2.526  0.00  0.00    +0.258 C 
ATOM     11  O   UNL     1      -1.010   0.855   3.659  0.00  0.00    -0.271 OA
ATOM     12  N   UNL     1       0.306  -0.317   2.312  0.00  0.00    -0.279 N 
ATOM     13  H   UNL     1       0.595  -0.510   1.406  0.00  0.00    +0.155 HD
BRANCH  10  15
ATOM     14  C   UNL     1      -2.209   0.004   0.629  0.00  0.00    +0.062 C 
ATOM     15  C   UNL     1      -1.464   1.124   1.359  0.00  0.00    +0.256 C 
BRANCH  15  16
ATOM     16  O   UNL     1      -2.404   2.091   1.833  0.00  0.00    -0.477 OA
BRANCH  16  17
ATOM     17  C   UNL     1      -2.677   3.140   1.012  0.00  0.00    +0.157 A 
ATOM     18  C   UNL     1      -2.155   3.171  -0.272  0.00  0.00    +0.048 A 
ATOM     19  C   UNL     1      -2.434   4.238  -1.104  0.00  0.00    +0.004 A 
ATOM     20  C   UNL     1      -3.232   5.276  -0.658  0.00  0.00    +0.003 A 
ATOM     21  C   UNL     1      -3.753   5.249   0.622  0.00  0.00    +0.042 A 
ATOM     22  C   UNL     1      -3.483   4.179   1.457  0.00  0.00    +0.165 A 
ATOM     23  F   UNL     1      -3.998   4.150   2.706  0.00  0.00    -0.202 F 
ENDBRANCH  16  17
ENDBRANCH  15  16
ENDBRANCH  10  15
ENDBRANCH   1  12
BRANCH   9  24
ATOM     24  C   UNL     1       3.201  -1.239   2.409  0.00  0.00    +0.230 C 
ATOM     25  O   UNL     1       2.861  -0.816   1.318  0.00  0.00    -0.283 OA
BRANCH  24  26
ATOM     26  C   UNL     1       4.606  -1.632   2.644  0.00  0.00    +0.027 A 
ATOM     27  C   UNL     1       4.968  -2.256   3.841  0.00  0.00    +0.015 A 
ATOM     28  C   UNL     1       6.278  -2.620   4.057  0.00  0.00    +0.047 A 
ATOM     29  C   UNL     1       7.240  -2.368   3.087  0.00  0.00    +0.134 A 
ATOM     30  C   UNL     1       6.885  -1.747   1.894  0.00  0.00    +0.060 A 
ATOM     31  C   UNL     1       5.575  -1.385   1.668  0.00  0.00    +0.030 A 
ATOM     32 BR   UNL     1       8.199  -1.407   0.578  0.00  0.00    -0.046 Br
BRANCH  29  33
ATOM     33  O   UNL     1       8.531  -2.728   3.304  0.00  0.00    -0.494 OA
ATOM     34  C   UNL     1       8.827  -3.361   4.550  0.00  0.00    +0.277 C 
ENDBRANCH  29  33
ENDBRANCH  24  26
ENDBRANCH   9  24
TORSDOF 7
