REMARK  Name = ZINC46779791
REMARK  10 active torsions:
REMARK  status: ('A' for Active; 'I' for Inactive)
REMARK    1  A    between atoms: C_1  and  C_2
REMARK    2  A    between atoms: N_7  and  C_9
REMARK    3  A    between atoms: C_9  and  C_10
REMARK    4  A    between atoms: C_13  and  C_16
REMARK    5  A    between atoms: C_16  and  N_17
REMARK    6  A    between atoms: C_18  and  C_20
REMARK    7  A    between atoms: C_20  and  C_21
REMARK    8  A    between atoms: C_21  and  C_22
REMARK    9  A    between atoms: C_22  and  N_23
REMARK   10  A    between atoms: C_27  and  N_33
REMARK                            x       y       z     vdW  Elec       q    Type
REMARK                         _______ _______ _______ _____ _____    ______ ____
ROOT
ATOM      1  N   UNL     1       0.361  -8.720   1.492  0.00  0.00    -0.311 N 
ATOM      2  C   UNL     1       0.161 -10.043   1.328  0.00  0.00    +0.213 C 
ATOM      3  O   UNL     1       0.559 -10.825   2.165  0.00  0.00    -0.276 OA
ATOM      4  H   UNL     1       0.043  -8.094   0.823  0.00  0.00    +0.149 HD
ENDROOT
BRANCH   1   5
ATOM      5  C   UNL     1       1.060  -8.227   2.682  0.00  0.00    +0.139 C 
BRANCH   5   9
ATOM      6  C   UNL     1       1.321  -3.966   2.518  0.00  0.00    -0.064 A 
ATOM      7  C   UNL     1       0.233  -4.569   3.122  0.00  0.00    +0.002 A 
ATOM      8  C   UNL     1       0.149  -5.948   3.174  0.00  0.00    +0.005 A 
ATOM      9  C   UNL     1       1.151  -6.724   2.623  0.00  0.00    -0.030 A 
ATOM     10  C   UNL     1       2.239  -6.121   2.019  0.00  0.00    +0.005 A 
ATOM     11  C   UNL     1       2.321  -4.742   1.963  0.00  0.00    +0.002 A 
BRANCH   6  12
ATOM     12  C   UNL     1       1.413  -2.463   2.461  0.00  0.00    -0.043 C 
BRANCH  12  18
ATOM     13  C   UNL     1      -0.019   1.526   0.010  0.00  0.00    +0.005 C 
ATOM     14  C   UNL     1       0.002  -0.004   0.002  0.00  0.00    -0.031 C 
ATOM     15  C   UNL     1       0.721  -0.499  -1.257  0.00  0.00    -0.001 C 
ATOM     16  C   UNL     1       0.805  -2.027  -1.217  0.00  0.00    -0.018 C 
ATOM     17  C   UNL     1       1.518  -2.460   0.066  0.00  0.00    -0.078 C 
ATOM     18  N   UNL     1       0.768  -1.979   1.233  0.00  0.00    +0.383 N 
ATOM     19  C   UNL     1       0.744  -0.512   1.240  0.00  0.00    -0.075 C 
ATOM     20  H   UNL     1      -0.177  -2.330   1.192  0.00  0.00    -0.081 HD
ENDBRANCH  12  18
ENDBRANCH   6  12
ENDBRANCH   5   9
ENDBRANCH   1   5
BRANCH   2  21
ATOM     21  C   UNL     1      -0.557 -10.550   0.104  0.00  0.00    +0.097 C 
BRANCH  21  22
ATOM     22  C   UNL     1      -0.651 -12.076   0.163  0.00  0.00    +0.031 C 
BRANCH  22  23
ATOM     23  C   UNL     1      -1.380 -12.591  -1.079  0.00  0.00    +0.129 C 
BRANCH  23  24
ATOM     24  N   UNL     1      -1.469 -14.052  -1.022  0.00  0.00    -0.274 N 
ATOM     25  C   UNL     1      -0.535 -14.956  -1.528  0.00  0.00    +0.090 A 
ATOM     26  C   UNL     1       0.673 -14.805  -2.190  0.00  0.00    +0.032 A 
ATOM     27  C   UNL     1       1.390 -15.921  -2.575  0.00  0.00    +0.035 A 
ATOM     28  C   UNL     1       0.904 -17.188  -2.303  0.00  0.00    +0.130 A 
ATOM     29  C   UNL     1      -0.300 -17.346  -1.644  0.00  0.00    +0.081 A 
ATOM     30  C   UNL     1      -1.026 -16.232  -1.253  0.00  0.00    +0.159 A 
ATOM     31  O   UNL     1      -2.208 -16.078  -0.608  0.00  0.00    -0.407 OA
ATOM     32  C   UNL     1      -2.466 -14.768  -0.467  0.00  0.00    +0.421 A 
ATOM     33  O   UNL     1      -3.449 -14.301   0.076  0.00  0.00    -0.223 OA
BRANCH  28  34
ATOM     34  N   UNL     1       1.677 -18.379  -2.720  0.00  0.00    +0.057 N 
ATOM     35  O   UNL     1       2.731 -18.244  -3.297  0.00  0.00    -0.126 OA
ATOM     36  O   UNL     1       1.255 -19.487  -2.483  0.00  0.00    -0.126 OA
ENDBRANCH  28  34
ENDBRANCH  23  24
ENDBRANCH  22  23
ENDBRANCH  21  22
ENDBRANCH   2  21
TORSDOF 9
