REMARK  Name = ZINC39545569
REMARK  7 active torsions:
REMARK  status: ('A' for Active; 'I' for Inactive)
REMARK    1  A    between atoms: C_1  and  C_2
REMARK    2  A    between atoms: C_2  and  C_3
REMARK    3  A    between atoms: C_2  and  S_4
REMARK    4  A    between atoms: S_4  and  C_7
REMARK    5  A    between atoms: C_9  and  C_21
REMARK    6  A    between atoms: N_23  and  C_24
REMARK    7  A    between atoms: C_29  and  O_30
REMARK                            x       y       z     vdW  Elec       q    Type
REMARK                         _______ _______ _______ _____ _____    ______ ____
ROOT
ATOM      1  C   UNL     1      -2.325  -0.194  -1.607  0.00  0.00    +0.102 C 
ATOM      2  C   UNL     1      -2.538   1.251  -2.000  0.00  0.00    +0.088 C 
ATOM      3  C   UNL     1      -3.130   1.170  -3.420  0.00  0.00    +0.151 C 
ATOM      4  N   UNL     1      -3.226  -0.274  -3.686  0.00  0.00    -0.369 NA
ATOM      5  C   UNL     1      -2.711  -0.972  -2.585  0.00  0.00    +0.096 C 
ATOM      6  N   UNL     1      -2.629  -2.377  -2.606  0.00  0.00    -0.302 N 
ATOM      7  C   UNL     1      -2.318  -2.932  -3.859  0.00  0.00    +0.037 A 
ATOM      8  C   UNL     1      -2.103  -4.298  -3.975  0.00  0.00    +0.023 A 
ATOM      9  C   UNL     1      -1.806  -4.844  -5.208  0.00  0.00    +0.002 A 
ATOM     10  C   UNL     1      -1.725  -4.027  -6.321  0.00  0.00    +0.000 A 
ATOM     11  C   UNL     1      -1.936  -2.667  -6.205  0.00  0.00    +0.007 A 
ATOM     12  C   UNL     1      -2.229  -2.108  -4.972  0.00  0.00    -0.010 A 
ATOM     13  C   UNL     1      -2.439  -0.625  -4.873  0.00  0.00    +0.124 C 
ATOM     14  H   UNL     1      -2.775  -2.920  -1.816  0.00  0.00    +0.153 HD
ATOM     15  H   UNL     1      -4.192  -0.530  -3.829  0.00  0.00    +0.129 HD
ENDROOT
BRANCH   3  16
ATOM     16  C   UNL     1      -4.493   1.810  -3.461  0.00  0.00    +0.253 C 
ATOM     17  O   UNL     1      -5.465   1.148  -3.759  0.00  0.00    -0.272 OA
ATOM     18  N   UNL     1      -4.633   3.118  -3.166  0.00  0.00    -0.177 N 
ATOM     19 CL   UNL     1      -3.263   4.051  -2.746  0.00  0.00    +0.009 Cl
BRANCH  18  20
ATOM     20  C   UNL     1      -5.901   3.713  -3.204  0.00  0.00    +0.094 A 
ATOM     21  C   UNL     1      -6.735   3.644  -2.097  0.00  0.00    +0.028 A 
ATOM     22  C   UNL     1      -7.985   4.232  -2.136  0.00  0.00    +0.002 A 
ATOM     23  C   UNL     1      -8.408   4.889  -3.277  0.00  0.00    +0.004 A 
ATOM     24  C   UNL     1      -7.583   4.961  -4.384  0.00  0.00    +0.047 A 
ATOM     25  C   UNL     1      -6.326   4.380  -4.351  0.00  0.00    +0.139 A 
BRANCH  25  26
ATOM     26  O   UNL     1      -5.511   4.455  -5.436  0.00  0.00    -0.505 OA
ATOM     27  H   UNL     1      -5.619   3.724  -6.061  0.00  0.00    +0.292 HD
ENDBRANCH  25  26
ENDBRANCH  18  20
ENDBRANCH   3  16
BRANCH   1  28
ATOM     28  S   UNL     1      -1.653  -0.743  -0.073  0.00  0.00    -0.002 S 
ATOM     29  O   UNL     1      -1.654  -2.161  -0.164  0.00  0.00    -0.169 OA
ATOM     30  O   UNL     1      -2.425  -0.080   0.918  0.00  0.00    -0.169 OA
BRANCH  28  32
ATOM     31  C   UNL     1       0.763  -0.609   1.202  0.00  0.00    +0.032 C 
ATOM     32  C   UNL     1       0.050  -0.119  -0.060  0.00  0.00    +0.130 C 
ATOM     33  C   UNL     1       0.791  -0.633  -1.296  0.00  0.00    +0.032 C 
ENDBRANCH  28  32
ENDBRANCH   1  28
TORSDOF 5
