REMARK  Name = ZINC18276050
REMARK  5 active torsions:
REMARK  status: ('A' for Active; 'I' for Inactive)
REMARK    1  A    between atoms: C_1  and  O_2
REMARK    2  A    between atoms: O_2  and  C_3
REMARK    3  A    between atoms: C_6  and  C_9
REMARK    4  A    between atoms: C_14  and  C_24
REMARK    5  A    between atoms: C_28  and  O_30
REMARK                            x       y       z     vdW  Elec       q    Type
REMARK                         _______ _______ _______ _____ _____    ______ ____
ROOT
ATOM      1  C   UNL     1       3.538   1.667   4.104  0.00  0.00    +0.032 C 
ATOM      2  C   UNL     1       4.703   1.834   3.131  0.00  0.00    +0.059 C 
ATOM      3  C   UNL     1       4.190   1.841   1.700  0.00  0.00    +0.017 C 
ATOM      4  C   UNL     1       3.101   1.130   1.363  0.00  0.00    +0.036 C 
ATOM      5  C   UNL     1       2.489   1.048  -0.016  0.00  0.00    +0.136 C 
ATOM      6  N   UNL     1       3.311   1.601  -1.070  0.00  0.00    -0.331 N 
ATOM      7  C   UNL     1       3.618   2.959  -1.099  0.00  0.00    +0.049 A 
ATOM      8  C   UNL     1       3.126   3.787  -2.097  0.00  0.00    +0.025 A 
ATOM      9  C   UNL     1       3.387   5.145  -2.043  0.00  0.00    +0.002 A 
ATOM     10  C   UNL     1       4.131   5.676  -1.006  0.00  0.00    +0.002 A 
ATOM     11  C   UNL     1       4.644   4.849  -0.021  0.00  0.00    +0.025 A 
ATOM     12  C   UNL     1       4.400   3.489  -0.085  0.00  0.00    +0.052 A 
ATOM     13  N   UNL     1       4.926   2.592   0.840  0.00  0.00    -0.316 N 
ATOM     14  C   UNL     1       2.415   0.370   2.339  0.00  0.00    +0.163 C 
ATOM     15  O   UNL     1       1.445  -0.280   2.002  0.00  0.00    -0.292 OA
ATOM     16  C   UNL     1       2.843   0.340   3.776  0.00  0.00    +0.088 C 
ATOM     17  H   UNL     1       3.654   1.018  -1.766  0.00  0.00    +0.147 HD
ATOM     18  H   UNL     1       5.890   2.497   0.874  0.00  0.00    +0.152 HD
ENDROOT
BRANCH   1  22
ATOM     19  C   UNL     1       5.003   1.583   8.117  0.00  0.00    +0.120 A 
ATOM     20  C   UNL     1       4.104   2.565   7.726  0.00  0.00    +0.046 A 
ATOM     21  C   UNL     1       3.632   2.590   6.428  0.00  0.00    +0.007 A 
ATOM     22  C   UNL     1       4.055   1.637   5.519  0.00  0.00    -0.043 A 
ATOM     23  C   UNL     1       4.946   0.655   5.908  0.00  0.00    +0.007 A 
ATOM     24  C   UNL     1       5.425   0.629   7.203  0.00  0.00    +0.046 A 
BRANCH  19  26
ATOM     25  C   UNL     1       6.392   0.517   9.726  0.00  0.00    +0.277 C 
ATOM     26  O   UNL     1       5.470   1.557   9.393  0.00  0.00    -0.495 OA
ENDBRANCH  19  26
ENDBRANCH   1  22
BRANCH   5  27
ATOM     27  C   UNL     1       1.174   1.783   0.000  0.00  0.00    -0.019 A 
ATOM     28  C   UNL     1       1.146   3.143   0.249  0.00  0.00    +0.006 A 
ATOM     29  C   UNL     1      -0.059   3.821   0.265  0.00  0.00    +0.004 A 
ATOM     30  C   UNL     1      -1.239   3.140   0.032  0.00  0.00    +0.045 A 
ATOM     31  C   UNL     1      -1.213   1.777  -0.223  0.00  0.00    +0.117 A 
ATOM     32  C   UNL     1      -0.003   1.098  -0.233  0.00  0.00    +0.051 A 
BRANCH  31  33
ATOM     33  O   UNL     1      -2.371   1.107  -0.458  0.00  0.00    -0.507 OA
ATOM     34  H   UNL     1      -2.789   0.753   0.339  0.00  0.00    +0.292 HD
ENDBRANCH  31  33
ENDBRANCH   5  27
TORSDOF 4
