REMARK  Name = ZINC43527734
REMARK  11 active torsions:
REMARK  status: ('A' for Active; 'I' for Inactive)
REMARK    1  A    between atoms: C_1  and  C_2
REMARK    2  A    between atoms: C_4  and  C_34
REMARK    3  A    between atoms: C_6  and  C_8
REMARK    4  A    between atoms: C_17  and  C_19
REMARK    5  A    between atoms: C_19  and  O_20
REMARK    6  A    between atoms: O_20  and  C_21
REMARK    7  A    between atoms: N_23  and  C_24
REMARK    8  A    between atoms: C_27  and  C_30
REMARK    9  A    between atoms: C_30  and  C_31
REMARK   10  A    between atoms: C_30  and  C_32
REMARK   11  A    between atoms: C_30  and  C_33
REMARK                            x       y       z     vdW  Elec       q    Type
REMARK                         _______ _______ _______ _____ _____    ______ ____
ROOT
ATOM      1  C   UNL     1      -0.072  -2.792   2.445  0.00  0.00    +0.024 C 
ATOM      2  C   UNL     1      -0.910  -4.071   2.513  0.00  0.00    -0.068 C 
ATOM      3  N   UNL     1      -0.047  -5.221   2.791  0.00  0.00    +0.384 N 
ATOM      4  C   UNL     1       0.938  -5.398   1.720  0.00  0.00    -0.078 C 
ATOM      5  C   UNL     1       1.836  -4.163   1.626  0.00  0.00    -0.015 C 
ATOM      6  C   UNL     1       1.400  -3.147   2.693  0.00  0.00    -0.007 C 
ATOM      7  C   UNL     1       1.511  -3.816   4.070  0.00  0.00    -0.008 C 
ATOM      8  C   UNL     1       0.621  -5.064   4.085  0.00  0.00    -0.030 C 
ATOM      9  H   UNL     1      -0.621  -6.050   2.827  0.00  0.00    -0.081 HD
ENDROOT
BRANCH   1  15
ATOM     10  C   UNL     1      -0.331   1.220  -0.338  0.00  0.00    +0.088 C 
ATOM     11  C   UNL     1      -0.341  -0.283  -0.238  0.00  0.00    +0.127 A 
ATOM     12  N   UNL     1      -0.476  -0.996  -1.337  0.00  0.00    -0.229 NA
ATOM     13  C   UNL     1      -0.489  -2.329  -1.285  0.00  0.00    +0.110 A 
ATOM     14  C   UNL     1      -0.356  -2.958  -0.041  0.00  0.00    +0.055 A 
ATOM     15  C   UNL     1      -0.218  -2.165   1.082  0.00  0.00    +0.047 A 
ATOM     16  N   UNL     1      -0.210  -0.847   0.946  0.00  0.00    -0.237 NA
BRANCH  13  17
ATOM     17  C   UNL     1      -0.640  -3.126  -2.517  0.00  0.00    +0.153 A 
ATOM     18  C   UNL     1      -0.771  -2.631  -3.778  0.00  0.00    +0.051 A 
ATOM     19  C   UNL     1      -0.886  -3.739  -4.639  0.00  0.00    +0.042 A 
ATOM     20  C   UNL     1      -0.821  -4.845  -3.870  0.00  0.00    +0.196 A 
ATOM     21  O   UNL     1      -0.667  -4.471  -2.591  0.00  0.00    -0.461 OA
ENDBRANCH  13  17
ENDBRANCH   1  15
BRANCH   8  22
ATOM     22  C   UNL     1       1.482  -6.298   4.365  0.00  0.00    +0.219 C 
BRANCH  22  23
ATOM     23  O   UNL     1       0.646  -7.455   4.441  0.00  0.00    -0.452 OA
BRANCH  23  24
ATOM     24  C   UNL     1       1.252  -8.632   4.684  0.00  0.00    +0.404 C 
ATOM     25  O   UNL     1       2.458  -8.677   4.827  0.00  0.00    -0.226 OA
ATOM     26  N   UNL     1       0.522  -9.762   4.767  0.00  0.00    -0.251 N 
ATOM     27  H   UNL     1      -0.429  -9.739   4.578  0.00  0.00    +0.158 HD
BRANCH  26  28
ATOM     28  C   UNL     1       1.136 -10.967   5.128  0.00  0.00    +0.036 A 
ATOM     29  C   UNL     1       0.701 -12.162   4.571  0.00  0.00    +0.024 A 
ATOM     30  C   UNL     1       1.309 -13.350   4.928  0.00  0.00    +0.006 A 
ATOM     31  C   UNL     1       2.349 -13.350   5.840  0.00  0.00    -0.042 A 
ATOM     32  C   UNL     1       2.784 -12.161   6.396  0.00  0.00    +0.006 A 
ATOM     33  C   UNL     1       2.184 -10.969   6.038  0.00  0.00    +0.024 A 
BRANCH  31  34
ATOM     34  C   UNL     1       3.009 -14.647   6.228  0.00  0.00    -0.013 C 
ATOM     35  C   UNL     1       3.607 -15.307   4.984  0.00  0.00    +0.015 C 
ATOM     36  C   UNL     1       4.120 -14.370   7.243  0.00  0.00    +0.015 C 
ATOM     37  C   UNL     1       1.970 -15.582   6.852  0.00  0.00    +0.015 C 
ENDBRANCH  31  34
ENDBRANCH  26  28
ENDBRANCH  23  24
ENDBRANCH  22  23
ENDBRANCH   8  22
TORSDOF 7
