REMARK  Name = ZINC04738352
REMARK  6 active torsions:
REMARK  status: ('A' for Active; 'I' for Inactive)
REMARK    1  A    between atoms: C_1  and  C_2
REMARK    2  A    between atoms: C_2  and  C_15
REMARK    3  A    between atoms: N_3  and  N_4
REMARK    4  A    between atoms: N_4  and  C_5
REMARK    5  A    between atoms: C_8  and  S_11
REMARK    6  A    between atoms: S_11  and  N_14
REMARK                            x       y       z     vdW  Elec       q    Type
REMARK                         _______ _______ _______ _____ _____    ______ ____
ROOT
ATOM      1  N   UNL     1       1.296  -0.286   0.085  0.00  0.00    -0.238 N 
ATOM      2  H   UNL     1       0.452   0.169  -0.065  0.00  0.00    +0.174 HD
ENDROOT
BRANCH   1   3
ATOM      3  C   UNL     1       1.318  -1.667   0.287  0.00  0.00    +0.048 A 
ATOM      4  C   UNL     1       2.531  -2.339   0.371  0.00  0.00    +0.026 A 
ATOM      5  C   UNL     1       2.549  -3.704   0.577  0.00  0.00    +0.030 A 
ATOM      6  C   UNL     1       1.361  -4.404   0.687  0.00  0.00    +0.105 A 
ATOM      7  C   UNL     1       0.152  -3.739   0.598  0.00  0.00    +0.030 A 
ATOM      8  C   UNL     1       0.126  -2.373   0.399  0.00  0.00    +0.026 A 
BRANCH   6   9
ATOM      9  S   UNL     1       1.389  -6.148   0.942  0.00  0.00    +0.056 S 
ATOM     10  O   UNL     1       2.644  -6.452   1.534  0.00  0.00    -0.153 OA
ATOM     11  O   UNL     1       0.154  -6.488   1.557  0.00  0.00    -0.153 OA
BRANCH   9  12
ATOM     12  N   UNL     1       1.385  -6.861  -0.552  0.00  0.00    -0.204 NA
ATOM     13  H   UNL     1       1.370  -6.312  -1.352  0.00  0.00    +0.144 HD
ATOM     14  H   UNL     1       1.399  -7.828  -0.628  0.00  0.00    +0.144 HD
ENDBRANCH   9  12
ENDBRANCH   6   9
ENDBRANCH   1   3
BRANCH   1  17
ATOM     15  C   UNL     1       3.737   2.532   0.113  0.00  0.00    +0.068 C 
ATOM     16  C   UNL     1       2.467   1.734  -0.034  0.00  0.00    +0.065 C 
ATOM     17  N   UNL     1       2.492   0.443   0.100  0.00  0.00    -0.187 NA
BRANCH  16  18
ATOM     18  C   UNL     1       1.196   2.420  -0.329  0.00  0.00    +0.016 A 
ATOM     19  C   UNL     1       0.547   2.202  -1.548  0.00  0.00    +0.012 A 
ATOM     20  C   UNL     1      -0.641   2.846  -1.817  0.00  0.00    +0.021 A 
ATOM     21  C   UNL     1      -1.194   3.708  -0.884  0.00  0.00    +0.042 A 
ATOM     22  C   UNL     1      -0.560   3.925   0.327  0.00  0.00    +0.040 A 
ATOM     23  C   UNL     1       0.634   3.291   0.608  0.00  0.00    +0.051 A 
ATOM     24 CL   UNL     1       1.431   3.570   2.125  0.00  0.00    -0.083 Cl
ATOM     25 CL   UNL     1      -2.690   4.516  -1.234  0.00  0.00    -0.083 Cl
ENDBRANCH  16  18
ENDBRANCH   1  17
TORSDOF 5
