REMARK  Name = ZINC36835967
REMARK  6 active torsions:
REMARK  status: ('A' for Active; 'I' for Inactive)
REMARK    1  A    between atoms: C_1  and  C_2
REMARK    2  A    between atoms: C_9  and  C_19
REMARK    3  A    between atoms: C_12  and  C_13
REMARK    4  A    between atoms: N_21  and  C_22
REMARK    5  A    between atoms: C_22  and  C_24
REMARK    6  A    between atoms: C_22  and  C_30
REMARK                            x       y       z     vdW  Elec       q    Type
REMARK                         _______ _______ _______ _____ _____    ______ ____
ROOT
ATOM      1  C   UNL     1      -0.643   1.423   0.113  0.00  0.00    +0.051 C 
ATOM      2  C   UNL     1      -0.298  -0.042   0.051  0.00  0.00    +0.040 A 
ATOM      3  C   UNL     1      -0.406  -0.749  -1.169  0.00  0.00    +0.196 A 
ATOM      4  O   UNL     1      -0.776  -0.197  -2.192  0.00  0.00    -0.287 OA
ATOM      5  C   UNL     1      -0.050  -2.183  -1.157  0.00  0.00    +0.065 A 
ATOM      6  C   UNL     1      -0.125  -2.958  -2.313  0.00  0.00    +0.015 A 
ATOM      7  C   UNL     1       0.214  -4.295  -2.268  0.00  0.00    +0.002 A 
ATOM      8  C   UNL     1       0.629  -4.874  -1.082  0.00  0.00    +0.017 A 
ATOM      9  C   UNL     1       0.711  -4.115   0.085  0.00  0.00    +0.080 A 
ATOM     10  C   UNL     1       0.369  -2.755   0.053  0.00  0.00    +0.151 A 
ATOM     11  O   UNL     1       0.440  -1.999   1.165  0.00  0.00    -0.454 OA
ATOM     12  C   UNL     1       0.125  -0.694   1.168  0.00  0.00    +0.142 A 
ENDROOT
BRANCH  12  13
ATOM     13  C   UNL     1       0.237   0.061   2.432  0.00  0.00    +0.018 A 
ATOM     14  C   UNL     1      -0.334  -0.443   3.603  0.00  0.00    +0.011 A 
ATOM     15  C   UNL     1      -0.225   0.268   4.780  0.00  0.00    +0.001 A 
ATOM     16  C   UNL     1       0.447   1.478   4.802  0.00  0.00    +0.000 A 
ATOM     17  C   UNL     1       1.014   1.983   3.645  0.00  0.00    +0.001 A 
ATOM     18  C   UNL     1       0.919   1.280   2.463  0.00  0.00    +0.011 A 
ENDBRANCH  12  13
BRANCH   9  19
ATOM     19  C   UNL     1       1.155  -4.740   1.346  0.00  0.00    +0.248 C 
ATOM     20  O   UNL     1       1.225  -4.075   2.362  0.00  0.00    -0.270 OA
ATOM     21  N   UNL     1       1.482  -6.047   1.372  0.00  0.00    -0.299 N 
ATOM     22  H   UNL     1       1.426  -6.577   0.562  0.00  0.00    +0.150 HD
BRANCH  21  23
ATOM     23  C   UNL     1       1.923  -6.667   2.624  0.00  0.00    +0.152 C 
BRANCH  23  24
ATOM     24  C   UNL     1       1.642  -8.147   2.578  0.00  0.00    -0.021 A 
ATOM     25  C   UNL     1       1.862  -8.856   1.411  0.00  0.00    +0.006 A 
ATOM     26  C   UNL     1       1.604 -10.214   1.369  0.00  0.00    +0.000 A 
ATOM     27  C   UNL     1       1.128 -10.863   2.492  0.00  0.00    +0.000 A 
ATOM     28  C   UNL     1       0.909 -10.154   3.659  0.00  0.00    +0.000 A 
ATOM     29  C   UNL     1       1.170  -8.797   3.703  0.00  0.00    +0.006 A 
ENDBRANCH  23  24
BRANCH  23  30
ATOM     30  C   UNL     1       3.402  -6.442   2.804  0.00  0.00    +0.066 A 
ATOM     31  C   UNL     1       4.085  -5.645   1.904  0.00  0.00    +0.025 A 
ATOM     32  C   UNL     1       5.446  -5.444   2.078  0.00  0.00    +0.003 A 
ATOM     33  C   UNL     1       6.071  -6.055   3.155  0.00  0.00    +0.020 A 
ATOM     34  C   UNL     1       5.322  -6.838   4.013  0.00  0.00    +0.111 A 
ATOM     35  N   UNL     1       4.028  -7.003   3.819  0.00  0.00    -0.258 NA
ENDBRANCH  23  30
ENDBRANCH  21  23
ENDBRANCH   9  19
TORSDOF 5
