REMARK  Name = ZINC03000280
REMARK  2 active torsions:
REMARK  status: ('A' for Active; 'I' for Inactive)
REMARK    1  A    between atoms: C_4  and  C_7
REMARK    2  A    between atoms: C_9  and  C_17
REMARK                            x       y       z     vdW  Elec       q    Type
REMARK                         _______ _______ _______ _____ _____    ______ ____
ROOT
ATOM      1  C   UNL     1       3.699  -0.689  -0.037  0.00  0.00    +0.073 C 
ATOM      2  C   UNL     1       3.701  -2.036  -0.050  0.00  0.00    +0.030 C 
ATOM      3  C   UNL     1       5.049  -2.733  -0.067  0.00  0.00    +0.159 C 
ATOM      4  N   UNL     1       6.233  -1.865  -0.068  0.00  0.00    -0.162 N 
ATOM      5  C   UNL     1       6.051  -0.510  -0.054  0.00  0.00    +0.227 C 
ATOM      6  N   UNL     1       4.853   0.024  -0.045  0.00  0.00    -0.216 NA
ATOM      7  N   UNL     1       7.309   0.029  -0.058  0.00  0.00    -0.187 N 
ATOM      8  N   UNL     1       8.219  -1.036  -0.075  0.00  0.00    -0.058 NA
ATOM      9  N   UNL     1       7.606  -2.110  -0.080  0.00  0.00    -0.055 NA
ATOM     10  H   UNL     1       7.529   0.974  -0.051  0.00  0.00    +0.179 HD
ENDROOT
BRANCH   3  11
ATOM     11  C   UNL     1       5.108  -3.605  -1.295  0.00  0.00    -0.003 A 
ATOM     12  C   UNL     1       5.788  -3.172  -2.418  0.00  0.00    +0.007 A 
ATOM     13  C   UNL     1       5.843  -3.972  -3.544  0.00  0.00    +0.000 A 
ATOM     14  C   UNL     1       5.218  -5.205  -3.548  0.00  0.00    +0.001 A 
ATOM     15  C   UNL     1       4.538  -5.639  -2.426  0.00  0.00    +0.020 A 
ATOM     16  C   UNL     1       4.487  -4.841  -1.296  0.00  0.00    +0.046 A 
ATOM     17 CL   UNL     1       3.639  -5.388   0.116  0.00  0.00    -0.083 Cl
ENDBRANCH   3  11
BRANCH   1  21
ATOM     18  C   UNL     1      -0.017   1.379   0.010  0.00  0.00    +0.000 A 
ATOM     19  C   UNL     1       1.169   2.092   0.002  0.00  0.00    +0.001 A 
ATOM     20  C   UNL     1       2.377   1.426  -0.013  0.00  0.00    +0.010 A 
ATOM     21  C   UNL     1       2.402   0.033  -0.021  0.00  0.00    +0.000 A 
ATOM     22  C   UNL     1       1.205  -0.680  -0.013  0.00  0.00    +0.010 A 
ATOM     23  C   UNL     1       0.002  -0.004   0.002  0.00  0.00    +0.001 A 
ENDBRANCH   1  21
TORSDOF 2
