REMARK  Name = ZINC34757302
REMARK  8 active torsions:
REMARK  status: ('A' for Active; 'I' for Inactive)
REMARK    1  A    between atoms: C_1  and  C_2
REMARK    2  A    between atoms: C_2  and  C_3
REMARK    3  A    between atoms: C_3  and  C_4
REMARK    4  A    between atoms: C_4  and  S_5
REMARK    5  A    between atoms: S_5  and  C_6
REMARK    6  A    between atoms: N_21  and  C_24
REMARK    7  A    between atoms: C_24  and  C_25
REMARK    8  A    between atoms: N_27  and  C_28
REMARK                            x       y       z     vdW  Elec       q    Type
REMARK                         _______ _______ _______ _____ _____    ______ ____
ROOT
ATOM      1  C   UNL     1       2.283  -5.199  -1.574  0.00  0.00    +0.191 A 
ATOM      2  N   UNL     1       2.809  -5.918  -2.558  0.00  0.00    -0.206 NA
ATOM      3  C   UNL     1       2.068  -6.436  -3.524  0.00  0.00    +0.134 A 
ATOM      4  C   UNL     1       0.662  -6.217  -3.510  0.00  0.00    +0.051 A 
ATOM      5  C   UNL     1      -0.346  -6.694  -4.473  0.00  0.00    -0.025 A 
ATOM      6  C   UNL     1      -1.621  -6.349  -4.237  0.00  0.00    -0.004 A 
ATOM      7  S   UNL     1      -1.572  -5.386  -2.743  0.00  0.00    -0.073 S 
ATOM      8  C   UNL     1       0.173  -5.448  -2.440  0.00  0.00    +0.115 A 
ATOM      9  N   UNL     1       0.978  -4.968  -1.510  0.00  0.00    -0.215 NA
ATOM     10  C   UNL     1      -2.559  -6.885  -5.286  0.00  0.00    +0.043 C 
ATOM     11  C   UNL     1      -1.641  -7.266  -6.468  0.00  0.00    +0.010 C 
ATOM     12  C   UNL     1      -0.304  -7.536  -5.751  0.00  0.00    +0.037 C 
ATOM     13  N   UNL     1       2.651  -7.179  -4.533  0.00  0.00    -0.318 N 
ATOM     14  C   UNL     1       2.735  -8.645  -4.442  0.00  0.00    +0.088 C 
ATOM     15  C   UNL     1       4.180  -9.068  -4.725  0.00  0.00    -0.059 C 
ATOM     16  N   UNL     1       4.606  -8.516  -6.018  0.00  0.00    +0.387 N 
ATOM     17  C   UNL     1       4.629  -7.049  -5.952  0.00  0.00    -0.059 C 
ATOM     18  C   UNL     1       3.201  -6.527  -5.732  0.00  0.00    +0.088 C 
ATOM     19  H   UNL     1       3.961  -8.809  -6.736  0.00  0.00    -0.081 HD
ENDROOT
BRANCH   1  20
ATOM     20  S   UNL     1       3.337  -4.543  -0.324  0.00  0.00    -0.086 S 
BRANCH  20  21
ATOM     21  C   UNL     1       2.207  -3.661   0.787  0.00  0.00    +0.077 C 
BRANCH  21  22
ATOM     22  C   UNL     1       3.003  -3.035   1.933  0.00  0.00    +0.011 C 
BRANCH  22  24
ATOM     23  C   UNL     1       2.845  -1.665   4.017  0.00  0.00    +0.004 C 
ATOM     24  C   UNL     1       2.049  -2.291   2.870  0.00  0.00    -0.003 C 
ENDBRANCH  22  24
ENDBRANCH  21  22
ENDBRANCH  20  21
ENDBRANCH   1  20
BRANCH  16  25
ATOM     25  C   UNL     1       5.951  -9.011  -6.340  0.00  0.00    +0.019 C 
BRANCH  25  26
ATOM     26  C   UNL     1       6.340  -8.546  -7.720  0.00  0.00    +0.197 C 
ATOM     27  O   UNL     1       5.573  -7.869  -8.370  0.00  0.00    -0.278 OA
ATOM     28  N   UNL     1       7.541  -8.883  -8.231  0.00  0.00    -0.314 N 
ATOM     29  H   UNL     1       8.155  -9.424  -7.710  0.00  0.00    +0.149 HD
BRANCH  28  30
ATOM     30  C   UNL     1       7.919  -8.430  -9.572  0.00  0.00    +0.073 C 
ATOM     31  C   UNL     1       7.367  -9.405 -10.614  0.00  0.00    +0.022 C 
ATOM     32  C   UNL     1       7.762  -8.933 -12.014  0.00  0.00    +0.002 C 
ATOM     33  C   UNL     1       9.287  -8.880 -12.123  0.00  0.00    +0.000 C 
ATOM     34  C   UNL     1       9.839  -7.906 -11.082  0.00  0.00    +0.002 C 
ATOM     35  C   UNL     1       9.444  -8.378  -9.681  0.00  0.00    +0.022 C 
ENDBRANCH  28  30
ENDBRANCH  25  26
ENDBRANCH  16  25
TORSDOF 7
