REMARK  Name = ZINC03521796
REMARK  8 active torsions:
REMARK  status: ('A' for Active; 'I' for Inactive)
REMARK    1  A    between atoms: C_1  and  C_2
REMARK    2  A    between atoms: C_2  and  O_3
REMARK    3  A    between atoms: O_3  and  C_4
REMARK    4  A    between atoms: C_7  and  N_10
REMARK    5  A    between atoms: C_19  and  S_20
REMARK    6  A    between atoms: S_20  and  C_21
REMARK    7  A    between atoms: C_21  and  C_23
REMARK    8  A    between atoms: C_21  and  C_24
REMARK                            x       y       z     vdW  Elec       q    Type
REMARK                         _______ _______ _______ _____ _____    ______ ____
ROOT
ATOM      1  N   UNL     1       0.803   1.712  -4.643  0.00  0.00    -0.255 N 
ATOM      2  C   UNL     1       0.865   2.170  -3.379  0.00  0.00    +0.268 A 
ATOM      3  O   UNL     1       1.941   2.325  -2.828  0.00  0.00    -0.267 OA
ATOM      4  C   UNL     1      -0.353   2.471  -2.692  0.00  0.00    +0.076 A 
ATOM      5  C   UNL     1      -0.516   2.978  -1.319  0.00  0.00    -0.023 A 
ATOM      6  C   UNL     1      -1.772   3.188  -0.895  0.00  0.00    -0.004 A 
ATOM      7  S   UNL     1      -2.805   2.729  -2.267  0.00  0.00    -0.073 S 
ATOM      8  C   UNL     1      -1.536   2.257  -3.413  0.00  0.00    +0.117 A 
ATOM      9  N   UNL     1      -1.531   1.801  -4.661  0.00  0.00    -0.215 NA
ATOM     10  C   UNL     1      -0.396   1.532  -5.274  0.00  0.00    +0.178 A 
ATOM     11  C   UNL     1      -1.816   3.708   0.517  0.00  0.00    +0.043 C 
ATOM     12  C   UNL     1      -0.381   4.215   0.789  0.00  0.00    +0.010 C 
ATOM     13  C   UNL     1       0.444   3.349  -0.184  0.00  0.00    +0.037 C 
ENDROOT
BRANCH   1  17
ATOM     14  C   UNL     1       4.338   0.827  -6.674  0.00  0.00    +0.121 A 
ATOM     15  C   UNL     1       3.798   2.103  -6.745  0.00  0.00    +0.047 A 
ATOM     16  C   UNL     1       2.628   2.396  -6.073  0.00  0.00    +0.030 A 
ATOM     17  C   UNL     1       1.992   1.414  -5.326  0.00  0.00    +0.052 A 
ATOM     18  C   UNL     1       2.535   0.139  -5.251  0.00  0.00    +0.030 A 
ATOM     19  C   UNL     1       3.702  -0.155  -5.928  0.00  0.00    +0.047 A 
BRANCH  14  20
ATOM     20  O   UNL     1       5.490   0.538  -7.336  0.00  0.00    -0.492 OA
BRANCH  20  22
ATOM     21  C   UNL     1       7.282  -0.929  -8.025  0.00  0.00    +0.048 C 
ATOM     22  C   UNL     1       5.989  -0.795  -7.218  0.00  0.00    +0.225 C 
ENDBRANCH  20  22
ENDBRANCH  14  20
ENDBRANCH   1  17
BRANCH  10  23
ATOM     23  S   UNL     1      -0.425   0.929  -6.929  0.00  0.00    -0.075 S 
BRANCH  23  24
ATOM     24  C   UNL     1      -2.211   0.897  -7.221  0.00  0.00    +0.137 C 
ATOM     25  C   UNL     1      -2.759   2.325  -7.186  0.00  0.00    +0.029 C 
BRANCH  24  26
ATOM     26  C   UNL     1      -2.489   0.285  -8.570  0.00  0.00    +0.233 C 
ATOM     27  O   UNL     1      -1.613   0.241  -9.407  0.00  0.00    -0.274 OA
ATOM     28  N   UNL     1      -3.711  -0.213  -8.845  0.00  0.00    -0.239 N 
ATOM     29  C   UNL     1      -3.959  -0.761 -10.051  0.00  0.00    +0.303 C 
ATOM     30  O   UNL     1      -3.082  -0.805 -10.891  0.00  0.00    -0.253 OA
ATOM     31  N   UNL     1      -5.181  -1.259 -10.326  0.00  0.00    -0.313 N 
ATOM     32  H   UNL     1      -4.411  -0.178  -8.175  0.00  0.00    +0.159 HD
ATOM     33  H   UNL     1      -5.881  -1.223  -9.656  0.00  0.00    +0.146 HD
ATOM     34  H   UNL     1      -5.360  -1.653 -11.194  0.00  0.00    +0.146 HD
ENDBRANCH  24  26
ENDBRANCH  23  24
ENDBRANCH  10  23
TORSDOF 6
