REMARK  Name = ZINC38032960
REMARK  3 active torsions:
REMARK  status: ('A' for Active; 'I' for Inactive)
REMARK    1  A    between atoms: C_5  and  N_7
REMARK    2  A    between atoms: N_10  and  C_12
REMARK    3  A    between atoms: C_15  and  C_18
REMARK                            x       y       z     vdW  Elec       q    Type
REMARK                         _______ _______ _______ _____ _____    ______ ____
ROOT
ATOM      1  C   UNL     1      -0.017   1.333   0.030  0.00  0.00    +0.002 A 
ATOM      2  C   UNL     1       1.165   2.047   0.025  0.00  0.00    +0.005 A 
ATOM      3  C   UNL     1       2.388   1.391   0.001  0.00  0.00    -0.025 A 
ATOM      4  C   UNL     1       2.428   0.015  -0.012  0.00  0.00    -0.021 A 
ATOM      5  C   UNL     1       1.234  -0.707  -0.015  0.00  0.00    +0.028 A 
ATOM      6  C   UNL     1       0.014  -0.047   0.007  0.00  0.00    +0.023 A 
ATOM      7  C   UNL     1       3.716  -0.765  -0.007  0.00  0.00    +0.056 C 
ATOM      8  C   UNL     1       4.880   0.103  -0.483  0.00  0.00    +0.110 C 
ATOM      9  N   UNL     1       4.809   1.388   0.233  0.00  0.00    -0.325 N 
ATOM     10  C   UNL     1       3.638   2.234  -0.018  0.00  0.00    +0.140 C 
ENDROOT
BRANCH   9  11
ATOM     11  C   UNL     1       5.813   1.783   1.110  0.00  0.00    +0.030 A 
ATOM     12  C   UNL     1       6.853   0.908   1.415  0.00  0.00    +0.024 A 
ATOM     13  C   UNL     1       7.847   1.296   2.283  0.00  0.00    +0.015 A 
ATOM     14  C   UNL     1       7.813   2.570   2.859  0.00  0.00    +0.037 A 
ATOM     15  C   UNL     1       6.767   3.445   2.551  0.00  0.00    +0.015 A 
ATOM     16  C   UNL     1       5.779   3.053   1.678  0.00  0.00    +0.024 A 
BRANCH  14  17
ATOM     17  C   UNL     1       8.877   2.989   3.791  0.00  0.00    +0.242 C 
ATOM     18  O   UNL     1       9.786   2.226   4.058  0.00  0.00    -0.270 OA
ATOM     19  N   UNL     1       8.843   4.216   4.345  0.00  0.00    -0.325 N 
ATOM     20  H   UNL     1       8.118   4.825   4.132  0.00  0.00    +0.145 HD
ATOM     21  H   UNL     1       9.543   4.492   4.958  0.00  0.00    +0.145 HD
ENDBRANCH  14  17
ENDBRANCH   9  11
BRANCH   5  22
ATOM     22  N   UNL     1       1.267  -2.103  -0.040  0.00  0.00    -0.358 N 
ATOM     23  H   UNL     1       2.118  -2.567  -0.055  0.00  0.00    +0.142 HD
ATOM     24  H   UNL     1       0.438  -2.607  -0.042  0.00  0.00    +0.142 HD
ENDBRANCH   5  22
TORSDOF 3
