REMARK  Name = ZINC14472446
REMARK  10 active torsions:
REMARK  status: ('A' for Active; 'I' for Inactive)
REMARK    1  A    between atoms: C_1  and  C_2
REMARK    2  A    between atoms: C_2  and  N_62
REMARK    3  A    between atoms: C_3  and  C_4
REMARK    4  A    between atoms: C_3  and  N_62
REMARK    5  A    between atoms: C_5  and  C_6
REMARK    6  A    between atoms: C_5  and  N_62
REMARK    7  A    between atoms: C_6  and  N_7
REMARK    8  A    between atoms: C_8  and  C_10
REMARK    9  A    between atoms: C_23  and  C_26
REMARK   10  A    between atoms: C_30  and  N_32
REMARK                            x       y       z     vdW  Elec       q    Type
REMARK                         _______ _______ _______ _____ _____    ______ ____
ROOT
ATOM      1  C   UNL     1      -1.603  -1.194   0.263  0.00  0.00    +0.037 A 
ATOM      2  C   UNL     1      -0.335  -0.638   0.066  0.00  0.00    +0.015 A 
ATOM      3  C   UNL     1      -0.201   0.714  -0.140  0.00  0.00    +0.024 A 
ATOM      4  C   UNL     1      -1.322   1.542  -0.154  0.00  0.00    +0.031 A 
ATOM      5  C   UNL     1      -2.595   0.981   0.028  0.00  0.00    -0.019 A 
ATOM      6  C   UNL     1      -2.730  -0.368   0.241  0.00  0.00    +0.019 A 
ATOM      7  C   UNL     1      -3.757   1.893  -0.042  0.00  0.00    +0.049 C 
ATOM      8  C   UNL     1      -5.037   1.590   0.648  0.00  0.00    -0.023 C 
ATOM      9  C   UNL     1      -5.610   2.735   0.999  0.00  0.00    -0.030 C 
ATOM     10  C   UNL     1      -4.721   3.912   0.591  0.00  0.00    +0.033 C 
ATOM     11  C   UNL     1      -3.332   3.258   0.577  0.00  0.00    +0.029 C 
ATOM     12  C   UNL     1      -2.305   3.834  -0.381  0.00  0.00    +0.105 C 
ATOM     13  N   UNL     1      -1.149   2.914  -0.330  0.00  0.00    -0.336 N 
ATOM     14  H   UNL     1      -0.252   3.272  -0.420  0.00  0.00    +0.147 HD
ENDROOT
BRANCH  12  15
ATOM     15  C   UNL     1      -2.868   3.886  -1.778  0.00  0.00    -0.025 A 
ATOM     16  C   UNL     1      -3.554   5.007  -2.207  0.00  0.00    +0.005 A 
ATOM     17  C   UNL     1      -4.070   5.054  -3.488  0.00  0.00    +0.003 A 
ATOM     18  C   UNL     1      -3.900   3.980  -4.341  0.00  0.00    +0.033 A 
ATOM     19  C   UNL     1      -3.215   2.858  -3.913  0.00  0.00    +0.127 A 
ATOM     20  C   UNL     1      -2.694   2.813  -2.633  0.00  0.00    +0.038 A 
BRANCH  19  21
ATOM     21  N   UNL     1      -3.033   1.708  -4.827  0.00  0.00    +0.056 N 
ATOM     22  O   UNL     1      -3.487   1.750  -5.956  0.00  0.00    -0.126 OA
ATOM     23  O   UNL     1      -2.429   0.720  -4.449  0.00  0.00    -0.126 OA
ENDBRANCH  19  21
ENDBRANCH  12  15
BRANCH   1  25
ATOM     24  N   UNL     1      -0.660  -3.437   0.512  0.00  0.00    -0.313 N 
ATOM     25  C   UNL     1      -1.750  -2.644   0.492  0.00  0.00    +0.244 C 
ATOM     26  O   UNL     1      -2.854  -3.123   0.662  0.00  0.00    -0.270 OA
ATOM     27  H   UNL     1       0.221  -3.054   0.377  0.00  0.00    +0.149 HD
BRANCH  24  28
ATOM     28  C   UNL     1      -0.806  -4.876   0.740  0.00  0.00    +0.086 C 
BRANCH  28  29
ATOM     29  C   UNL     1       0.573  -5.539   0.715  0.00  0.00    -0.060 C 
BRANCH  29  30
ATOM     30  N   UNL     1       0.408  -6.993   0.924  0.00  0.00    +0.380 N 
ATOM     31  H   UNL     1      -0.288  -7.348   0.259  0.00  0.00    -0.082 HD
BRANCH  30  33
ATOM     32  C   UNL     1       1.922  -7.800  -0.816  0.00  0.00    -0.017 C 
ATOM     33  C   UNL     1       1.692  -7.686   0.693  0.00  0.00    -0.082 C 
ENDBRANCH  30  33
BRANCH  30  34
ATOM     34  C   UNL     1      -0.067  -7.254   2.300  0.00  0.00    -0.082 C 
ATOM     35  C   UNL     1      -0.576  -8.695   2.379  0.00  0.00    -0.017 C 
ENDBRANCH  30  34
ENDBRANCH  29  30
ENDBRANCH  28  29
ENDBRANCH  24  28
ENDBRANCH   1  25
TORSDOF 8
