REMARK  Name = ZINC39468832
REMARK  2 active torsions:
REMARK  status: ('A' for Active; 'I' for Inactive)
REMARK    1  A    between atoms: C_4  and  O_27
REMARK    2  A    between atoms: C_5  and  C_7
REMARK                            x       y       z     vdW  Elec       q    Type
REMARK                         _______ _______ _______ _____ _____    ______ ____
ROOT
ATOM      1  C   UNL     1       1.245  -2.165  -0.023  0.00  0.00    -0.000 C 
ATOM      2  C   UNL     1       0.949  -2.842  -1.149  0.00  0.00    -0.013 C 
ATOM      3  C   UNL     1       1.000  -4.345  -1.120  0.00  0.00    +0.016 C 
ATOM      4  C   UNL     1       1.200  -4.925  -2.516  0.00  0.00    -0.003 C 
ATOM      5  C   UNL     1       1.283  -6.456  -2.427  0.00  0.00    -0.020 C 
ATOM      6  C   UNL     1       1.506  -6.984  -3.850  0.00  0.00    +0.159 C 
ATOM      7  O   UNL     1       1.505  -8.423  -3.830  0.00  0.00    -0.297 OA
ATOM      8  P   UNL     1       2.455  -9.166  -2.739  0.00  0.00    +0.421 P 
ATOM      9  O   UNL     1       3.914  -9.215  -3.244  0.00  0.00    -0.239 OA
ATOM     10  N   UNL     1       2.352  -8.243  -1.374  0.00  0.00    -0.267 NA
ATOM     11  N   UNL     1       2.371  -6.873  -1.543  0.00  0.00    +0.399 N 
ATOM     12  C   UNL     1       2.216  -6.306  -0.192  0.00  0.00    -0.046 C 
ATOM     13  C   UNL     1       2.185  -4.785  -0.251  0.00  0.00    +0.006 C 
ATOM     14  C   UNL     1       2.051  -4.162   1.111  0.00  0.00    -0.004 C 
ATOM     15  C   UNL     1       1.601  -2.913   1.204  0.00  0.00    +0.045 C 
ATOM     16 CL   UNL     1       1.429  -2.166   2.762  0.00  0.00    -0.083 Cl
ATOM     17  O   UNL     1       1.937 -10.595  -2.463  0.00  0.00    -0.128 OA
ATOM     18  H   UNL     1       2.290  -8.651  -0.495  0.00  0.00    +0.113 HD
ATOM     19  H   UNL     1       3.254  -6.581  -1.934  0.00  0.00    -0.055 HD
ENDROOT
BRANCH   1  24
ATOM     20  C   UNL     1      -0.017   1.376   0.010  0.00  0.00    +0.001 A 
ATOM     21  C   UNL     1       1.169   2.089   0.002  0.00  0.00    +0.004 A 
ATOM     22  C   UNL     1       2.382   1.426  -0.013  0.00  0.00    +0.046 A 
ATOM     23  C   UNL     1       2.415   0.041  -0.022  0.00  0.00    +0.125 A 
ATOM     24  C   UNL     1       1.219  -0.683  -0.014  0.00  0.00    +0.025 A 
ATOM     25  C   UNL     1       0.002  -0.004   0.002  0.00  0.00    +0.012 A 
BRANCH  23  26
ATOM     26  O   UNL     1       3.607  -0.612  -0.038  0.00  0.00    -0.506 OA
ATOM     27  H   UNL     1       3.961  -0.806   0.841  0.00  0.00    +0.292 HD
ENDBRANCH  23  26
ENDBRANCH   1  24
TORSDOF 2
