REMARK  Name = ZINC13799219
REMARK  5 active torsions:
REMARK  status: ('A' for Active; 'I' for Inactive)
REMARK    1  A    between atoms: C_1  and  C_2
REMARK    2  A    between atoms: C_7  and  C_34
REMARK    3  A    between atoms: C_10  and  C_12
REMARK    4  A    between atoms: C_17  and  C_30
REMARK    5  A    between atoms: C_20  and  C_23
REMARK                            x       y       z     vdW  Elec       q    Type
REMARK                         _______ _______ _______ _____ _____    ______ ____
ROOT
ATOM      1  C   UNL     1       2.092  -0.908   3.466  0.00  0.00    +0.149 A 
ATOM      2  C   UNL     1       2.782  -0.343   4.562  0.00  0.00    +0.078 A 
ATOM      3  C   UNL     1       3.275  -1.357   5.300  0.00  0.00    +0.119 A 
ATOM      4  N   UNL     1       2.913  -2.532   4.704  0.00  0.00    -0.238 N 
ATOM      5  N   UNL     1       2.172  -2.224   3.564  0.00  0.00    -0.164 NA
ATOM      6  C   UNL     1       3.268  -3.853   5.229  0.00  0.00    +0.215 C 
ATOM      7  C   UNL     1       3.641  -3.715   6.709  0.00  0.00    +0.063 C 
ATOM      8  C   UNL     1       4.660  -2.584   6.888  0.00  0.00    +0.104 C 
ATOM      9  N   UNL     1       4.030  -1.315   6.476  0.00  0.00    -0.322 N 
ATOM     10  H   UNL     1       4.134  -0.499   6.990  0.00  0.00    +0.148 HD
ENDROOT
BRANCH   1  18
ATOM     11  C   UNL     1       0.204  -0.045   4.807  0.00  0.00    +0.028 C 
ATOM     12  C   UNL     1      -0.733   0.012   3.599  0.00  0.00    +0.074 C 
ATOM     13  C   UNL     1      -1.749  -1.130   3.683  0.00  0.00    +0.022 C 
ATOM     14  C   UNL     1      -2.592  -1.152   2.405  0.00  0.00    +0.004 C 
ATOM     15  C   UNL     1      -1.685  -1.400   1.198  0.00  0.00    +0.022 C 
ATOM     16  C   UNL     1      -0.668  -0.260   1.086  0.00  0.00    +0.074 C 
ATOM     17  N   UNL     1       0.048  -0.135   2.363  0.00  0.00    -0.291 N 
ATOM     18  C   UNL     1       1.395  -0.159   2.401  0.00  0.00    +0.267 C 
ATOM     19  O   UNL     1       2.038   0.437   1.557  0.00  0.00    -0.268 OA
ATOM     20  C   UNL     1       0.326  -0.569  -0.035  0.00  0.00    +0.028 C 
ENDBRANCH   1  18
BRANCH   8  21
ATOM     21  C   UNL     1       5.077  -2.502   8.333  0.00  0.00    -0.027 A 
ATOM     22  C   UNL     1       4.261  -1.869   9.252  0.00  0.00    +0.007 A 
ATOM     23  C   UNL     1       4.642  -1.792  10.579  0.00  0.00    +0.020 A 
ATOM     24  C   UNL     1       5.841  -2.350  10.986  0.00  0.00    +0.041 A 
ATOM     25  C   UNL     1       6.657  -2.983  10.066  0.00  0.00    +0.020 A 
ATOM     26  C   UNL     1       6.272  -3.063   8.741  0.00  0.00    +0.007 A 
ATOM     27 CL   UNL     1       6.321  -2.254  12.652  0.00  0.00    -0.084 Cl
ENDBRANCH   8  21
BRANCH   6  28
ATOM     28  C   UNL     1       2.075  -4.800   5.085  0.00  0.00    +0.412 C 
ATOM     29  F   UNL     1       1.781  -4.977   3.728  0.00  0.00    -0.168 F 
ATOM     30  F   UNL     1       2.388  -6.036   5.659  0.00  0.00    -0.168 F 
ATOM     31  F   UNL     1       0.964  -4.252   5.735  0.00  0.00    -0.168 F 
ENDBRANCH   6  28
TORSDOF 3
