REMARK  Name = ZINC13512906
REMARK  15 active torsions:
REMARK  status: ('A' for Active; 'I' for Inactive)
REMARK    1  A    between atoms: C_1  and  C_2
REMARK    2  A    between atoms: C_2  and  O_3
REMARK    3  A    between atoms: O_3  and  C_4
REMARK    4  A    between atoms: C_4  and  C_6
REMARK    5  A    between atoms: C_10  and  N_11
REMARK    6  A    between atoms: N_11  and  C_12
REMARK    7  A    between atoms: C_13  and  C_14
REMARK    8  A    between atoms: C_13  and  C_16
REMARK    9  A    between atoms: C_18  and  C_21
REMARK   10  A    between atoms: C_24  and  C_28
REMARK   11  A    between atoms: C_26  and  C_27
REMARK   12  A    between atoms: C_30  and  C_34
REMARK   13  A    between atoms: C_34  and  C_35
REMARK   14  A    between atoms: C_34  and  C_36
REMARK   15  A    between atoms: C_34  and  C_37
REMARK                            x       y       z     vdW  Elec       q    Type
REMARK                         _______ _______ _______ _____ _____    ______ ____
ROOT
ATOM      1  N   UNL     1      -1.223  -1.774  -3.329  0.00  0.00    -0.313 N 
ATOM      2  H   UNL     1      -1.904  -1.580  -2.665  0.00  0.00    +0.152 HD
ENDROOT
BRANCH   1   7
ATOM      3  C   UNL     1       0.665  -1.435  -1.741  0.00  0.00    +0.091 A 
ATOM      4  C   UNL     1       2.114  -1.466  -1.634  0.00  0.00    -0.021 A 
ATOM      5  C   UNL     1       2.746  -1.782  -2.785  0.00  0.00    -0.004 A 
ATOM      6  S   UNL     1       1.446  -2.026  -3.960  0.00  0.00    -0.077 S 
ATOM      7  C   UNL     1       0.114  -1.732  -2.980  0.00  0.00    +0.084 A 
ATOM      8  C   UNL     1       4.224  -1.896  -2.997  0.00  0.00    +0.046 C 
ATOM      9  C   UNL     1       4.904  -1.970  -1.622  0.00  0.00    -0.000 C 
ATOM     10  C   UNL     1       4.342  -0.860  -0.730  0.00  0.00    +0.009 C 
ATOM     11  C   UNL     1       2.891  -1.174  -0.359  0.00  0.00    +0.037 C 
BRANCH   9  12
ATOM     12  C   UNL     1       6.414  -1.784  -1.786  0.00  0.00    -0.035 C 
ATOM     13  C   UNL     1       6.693  -0.420  -2.419  0.00  0.00    +0.011 C 
ATOM     14  C   UNL     1       7.089  -1.859  -0.415  0.00  0.00    +0.011 C 
ATOM     15  C   UNL     1       6.968  -2.888  -2.689  0.00  0.00    +0.011 C 
ENDBRANCH   9  12
BRANCH   3  16
ATOM     16  C   UNL     1      -0.178  -1.111  -0.589  0.00  0.00    +0.342 C 
ATOM     17  O   UNL     1      -0.566  -1.997   0.150  0.00  0.00    -0.245 OA
BRANCH  16  18
ATOM     18  O   UNL     1      -0.526   0.169  -0.347  0.00  0.00    -0.461 OA
BRANCH  18  20
ATOM     19  C   UNL     1      -1.639   1.911   0.905  0.00  0.00    +0.048 C 
ATOM     20  C   UNL     1      -1.351   0.413   0.794  0.00  0.00    +0.229 C 
ENDBRANCH  18  20
ENDBRANCH  16  18
ENDBRANCH   3  16
ENDBRANCH   1   7
BRANCH   1  21
ATOM     21  C   UNL     1      -1.587  -2.088  -4.609  0.00  0.00    +0.094 C 
ATOM     22  C   UNL     1      -2.905  -2.128  -4.952  0.00  0.00    +0.098 C 
BRANCH  22  23
ATOM     23  C   UNL     1      -3.297  -2.467  -6.334  0.00  0.00    +0.120 A 
ATOM     24  N   UNL     1      -4.508  -2.554  -6.864  0.00  0.00    -0.238 NA
ATOM     25  C   UNL     1      -4.678  -2.873  -8.136  0.00  0.00    +0.079 A 
ATOM     26  C   UNL     1      -3.583  -3.118  -8.920  0.00  0.00    +0.075 A 
ATOM     27  S   UNL     1      -2.264  -2.862  -7.739  0.00  0.00    -0.074 S 
BRANCH  25  28
ATOM     28  C   UNL     1      -6.043  -2.964  -8.709  0.00  0.00    +0.004 A 
ATOM     29  C   UNL     1      -6.335  -2.347  -9.924  0.00  0.00    +0.010 A 
ATOM     30  C   UNL     1      -7.607  -2.436 -10.452  0.00  0.00    +0.004 A 
ATOM     31  C   UNL     1      -8.591  -3.135  -9.777  0.00  0.00    -0.050 A 
ATOM     32  C   UNL     1      -8.308  -3.749  -8.570  0.00  0.00    +0.007 A 
ATOM     33  C   UNL     1      -7.037  -3.672  -8.036  0.00  0.00    -0.041 A 
ATOM     34  C   UNL     1      -6.728  -4.348  -6.725  0.00  0.00    +0.044 C 
ATOM     35  C   UNL     1      -9.979  -3.229 -10.359  0.00  0.00    +0.044 C 
ENDBRANCH  25  28
ENDBRANCH  22  23
BRANCH  22  36
ATOM     36  C   UNL     1      -3.909  -1.843  -3.973  0.00  0.00    +0.103 C 
ATOM     37  N   UNL     1      -4.706  -1.616  -3.195  0.00  0.00    -0.191 NA
ENDBRANCH  22  36
ENDBRANCH   1  21
TORSDOF 9
