REMARK  Name = ZINC05165972
REMARK  18 active torsions:
REMARK  status: ('A' for Active; 'I' for Inactive)
REMARK    1  A    between atoms: C_1  and  C_2
REMARK    2  A    between atoms: C_2  and  O_3
REMARK    3  A    between atoms: O_3  and  P_4
REMARK    4  A    between atoms: P_4  and  C_6
REMARK    5  A    between atoms: P_4  and  O_28
REMARK    6  A    between atoms: C_6  and  C_8
REMARK    7  A    between atoms: C_6  and  N_72
REMARK    8  A    between atoms: C_10  and  C_19
REMARK    9  A    between atoms: C_11  and  O_18
REMARK   10  A    between atoms: C_12  and  C_14
REMARK   11  A    between atoms: C_14  and  C_15
REMARK   12  A    between atoms: C_14  and  C_16
REMARK   13  A    between atoms: C_14  and  C_17
REMARK   14  A    between atoms: C_19  and  C_20
REMARK   15  A    between atoms: C_19  and  C_21
REMARK   16  A    between atoms: C_19  and  C_22
REMARK   17  A    between atoms: O_28  and  C_29
REMARK   18  A    between atoms: C_29  and  C_30
REMARK                            x       y       z     vdW  Elec       q    Type
REMARK                         _______ _______ _______ _____ _____    ______ ____
ROOT
ATOM      1  C   UNL     1      -0.871   2.064   1.510  0.00  0.00    +0.079 C 
ENDROOT
BRANCH   1   7
ATOM      2  C   UNL     1       0.311   4.159   1.782  0.00  0.00    -0.077 C 
ATOM      3  C   UNL     1       0.185   5.586   2.319  0.00  0.00    -0.019 C 
ATOM      4  C   UNL     1       0.005   5.541   3.839  0.00  0.00    -0.004 C 
ATOM      5  C   UNL     1      -1.230   4.701   4.174  0.00  0.00    -0.019 C 
ATOM      6  C   UNL     1      -1.064   3.299   3.583  0.00  0.00    -0.077 C 
ATOM      7  N   UNL     1      -0.920   3.410   2.116  0.00  0.00    +0.392 N 
ATOM      8  H   UNL     1      -1.730   3.916   1.739  0.00  0.00    -0.080 HD
ENDBRANCH   1   7
BRANCH   1   9
ATOM      9  C   UNL     1      -2.225   1.418   1.655  0.00  0.00    -0.049 A 
ATOM     10  C   UNL     1      -2.324   0.121   2.123  0.00  0.00    +0.010 A 
ATOM     11  C   UNL     1      -3.564  -0.472   2.263  0.00  0.00    -0.000 A 
ATOM     12  C   UNL     1      -4.710   0.232   1.921  0.00  0.00    +0.124 A 
ATOM     13  C   UNL     1      -4.608   1.532   1.447  0.00  0.00    -0.000 A 
ATOM     14  C   UNL     1      -3.366   2.122   1.315  0.00  0.00    +0.010 A 
BRANCH  13  15
ATOM     15  C   UNL     1      -5.850   2.299   1.075  0.00  0.00    -0.009 C 
ATOM     16  C   UNL     1      -5.460   3.695   0.584  0.00  0.00    +0.015 C 
ATOM     17  C   UNL     1      -6.594   1.557  -0.037  0.00  0.00    +0.015 C 
ATOM     18  C   UNL     1      -6.758   2.424   2.300  0.00  0.00    +0.015 C 
ENDBRANCH  13  15
BRANCH  11  19
ATOM     19  C   UNL     1      -3.672  -1.884   2.778  0.00  0.00    -0.009 C 
ATOM     20  C   UNL     1      -2.273  -2.426   3.077  0.00  0.00    +0.015 C 
ATOM     21  C   UNL     1      -4.509  -1.897   4.059  0.00  0.00    +0.015 C 
ATOM     22  C   UNL     1      -4.345  -2.763   1.721  0.00  0.00    +0.015 C 
ENDBRANCH  11  19
BRANCH  12  23
ATOM     23  O   UNL     1      -5.931  -0.351   2.051  0.00  0.00    -0.506 OA
ATOM     24  H   UNL     1      -6.226  -0.826   1.263  0.00  0.00    +0.292 HD
ENDBRANCH  12  23
ENDBRANCH   1   9
BRANCH   1  25
ATOM     25  P   UNL     1       0.385   1.034   2.337  0.00  0.00    +0.324 P 
ATOM     26  O   UNL     1      -0.012   0.806   3.744  0.00  0.00    -0.260 OA
BRANCH  25  27
ATOM     27  O   UNL     1       1.808   1.786   2.296  0.00  0.00    -0.309 OA
BRANCH  27  29
ATOM     28  C   UNL     1       4.145   2.238   2.713  0.00  0.00    +0.034 C 
ATOM     29  C   UNL     1       2.973   1.284   2.953  0.00  0.00    +0.166 C 
ENDBRANCH  27  29
ENDBRANCH  25  27
BRANCH  25  30
ATOM     30  O   UNL     1       0.504  -0.381   1.577  0.00  0.00    -0.309 OA
BRANCH  30  31
ATOM     31  C   UNL     1       1.330  -1.449   2.046  0.00  0.00    +0.166 C 
ATOM     32  C   UNL     1       1.211  -2.641   1.095  0.00  0.00    +0.034 C 
ENDBRANCH  30  31
ENDBRANCH  25  30
ENDBRANCH   1  25
TORSDOF 10
