REMARK  Name = ZINC35009255
REMARK  13 active torsions:
REMARK  status: ('A' for Active; 'I' for Inactive)
REMARK    1  A    between atoms: C_1  and  C_2
REMARK    2  A    between atoms: C_2  and  C_4
REMARK    3  A    between atoms: C_2  and  C_25
REMARK    4  A    between atoms: C_4  and  C_5
REMARK    5  A    between atoms: N_7  and  C_8
REMARK    6  A    between atoms: N_7  and  C_9
REMARK    7  A    between atoms: C_9  and  C_11
REMARK    8  A    between atoms: C_9  and  C_12
REMARK    9  A    between atoms: N_22  and  C_23
REMARK   10  A    between atoms: C_25  and  C_26
REMARK   11  A    between atoms: C_26  and  C_27
REMARK   12  A    between atoms: C_26  and  C_28
REMARK   13  A    between atoms: C_26  and  C_29
REMARK                            x       y       z     vdW  Elec       q    Type
REMARK                         _______ _______ _______ _____ _____    ______ ____
ROOT
ATOM      1  C   UNL     1       3.759  -1.682  -1.502  0.00  0.00    +0.139 C 
ATOM      2  C   UNL     1       4.662  -2.916  -1.558  0.00  0.00    +0.036 C 
ENDROOT
BRANCH   1   3
ATOM      3  C   UNL     1       3.998  -0.829  -2.721  0.00  0.00    +0.133 A 
ATOM      4  N   UNL     1       3.394  -1.150  -3.825  0.00  0.00    -0.232 NA
ATOM      5  C   UNL     1       3.560  -0.429  -4.962  0.00  0.00    +0.080 A 
ATOM      6  C   UNL     1       2.912  -0.772  -6.150  0.00  0.00    +0.048 A 
ATOM      7  C   UNL     1       3.113  -0.007  -7.279  0.00  0.00    +0.043 A 
ATOM      8  C   UNL     1       3.953   1.100  -7.248  0.00  0.00    +0.021 A 
ATOM      9  C   UNL     1       4.599   1.455  -6.096  0.00  0.00    +0.017 A 
ATOM     10  C   UNL     1       4.412   0.699  -4.940  0.00  0.00    +0.065 A 
ATOM     11  C   UNL     1       5.079   1.034  -3.674  0.00  0.00    +0.262 A 
ATOM     12  O   UNL     1       5.825   1.993  -3.587  0.00  0.00    -0.267 OA
ATOM     13  N   UNL     1       4.828   0.240  -2.608  0.00  0.00    -0.298 N 
ATOM     14  C   UNL     1       5.463   0.532  -1.320  0.00  0.00    +0.154 C 
ATOM     15 CL   UNL     1       2.308  -0.432  -8.757  0.00  0.00    -0.083 Cl
ENDBRANCH   1   3
BRANCH   1  18
ATOM     16  C   UNL     1       1.576  -1.762  -0.423  0.00  0.00    +0.216 C 
ATOM     17  O   UNL     1       2.034  -1.106   0.487  0.00  0.00    -0.276 OA
ATOM     18  N   UNL     1       2.357  -2.104  -1.467  0.00  0.00    -0.295 N 
ATOM     19  C   UNL     1       1.803  -2.897  -2.568  0.00  0.00    +0.132 C 
BRANCH  16  20
ATOM     20  C   UNL     1       0.133  -2.196  -0.388  0.00  0.00    +0.099 C 
BRANCH  20  22
ATOM     21  C   UNL     1      -0.561  -0.152   0.870  0.00  0.00    +0.008 C 
ATOM     22  C   UNL     1      -0.523  -1.681   0.895  0.00  0.00    -0.005 C 
BRANCH  22  23
ATOM     23  C   UNL     1      -1.950  -2.225   0.991  0.00  0.00    +0.010 C 
BRANCH  23  24
ATOM     24  C   UNL     1      -2.551  -1.841   2.345  0.00  0.00    -0.037 C 
ATOM     25  C   UNL     1      -2.990  -0.376   2.311  0.00  0.00    +0.010 C 
ATOM     26  C   UNL     1      -3.763  -2.729   2.635  0.00  0.00    +0.010 C 
ATOM     27  C   UNL     1      -1.503  -2.035   3.442  0.00  0.00    +0.010 C 
ENDBRANCH  23  24
ENDBRANCH  22  23
ENDBRANCH  20  22
ENDBRANCH  16  20
ENDBRANCH   1  18
TORSDOF 6
