REMARK  Name = ZINC12191256
REMARK  8 active torsions:
REMARK  status: ('A' for Active; 'I' for Inactive)
REMARK    1  A    between atoms: C_1  and  C_2
REMARK    2  A    between atoms: C_6  and  C_22
REMARK    3  A    between atoms: C_7  and  C_21
REMARK    4  A    between atoms: N_8  and  C_9
REMARK    5  A    between atoms: C_9  and  C_10
REMARK    6  A    between atoms: N_24  and  C_25
REMARK    7  A    between atoms: C_30  and  C_31
REMARK    8  A    between atoms: C_30  and  N_69
REMARK                            x       y       z     vdW  Elec       q    Type
REMARK                         _______ _______ _______ _____ _____    ______ ____
ROOT
ATOM      1  C   UNL     1       2.866   4.059   2.356  0.00  0.00    +0.063 C 
ATOM      2  C   UNL     1       3.530   4.227   1.014  0.00  0.00    +0.020 A 
ATOM      3  C   UNL     1       4.713   4.872   0.944  0.00  0.00    +0.072 A 
ATOM      4  C   UNL     1       5.340   5.038  -0.315  0.00  0.00    +0.194 A 
ATOM      5  O   UNL     1       6.408   5.620  -0.416  0.00  0.00    -0.287 OA
ATOM      6  C   UNL     1       4.662   4.486  -1.499  0.00  0.00    +0.102 A 
ATOM      7  C   UNL     1       3.456   3.839  -1.318  0.00  0.00    +0.032 A 
ATOM      8  N   UNL     1       2.926   3.722  -0.089  0.00  0.00    -0.344 N 
ATOM      9  C   UNL     1       2.731   3.261  -2.506  0.00  0.00    +0.064 C 
ENDROOT
BRANCH   6  10
ATOM     10  C   UNL     1       5.254   4.621  -2.841  0.00  0.00    +0.250 C 
ATOM     11  O   UNL     1       4.989   5.588  -3.528  0.00  0.00    -0.270 OA
ATOM     12  N   UNL     1       6.090   3.671  -3.306  0.00  0.00    -0.308 N 
ATOM     13  H   UNL     1       6.301   2.900  -2.758  0.00  0.00    +0.149 HD
BRANCH  12  14
ATOM     14  C   UNL     1       6.679   3.805  -4.641  0.00  0.00    +0.070 C 
ATOM     15  C   UNL     1       5.707   3.251  -5.687  0.00  0.00    +0.004 C 
ATOM     16  C   UNL     1       6.354   3.336  -7.072  0.00  0.00    -0.077 C 
ATOM     17  C   UNL     1       8.569   3.110  -6.116  0.00  0.00    -0.077 C 
ATOM     18  C   UNL     1       7.990   3.017  -4.703  0.00  0.00    +0.004 C 
ATOM     19  N   UNL     1       7.598   2.537  -7.072  0.00  0.00    +0.382 N 
ATOM     20  H   UNL     1       7.376   1.576  -6.785  0.00  0.00    -0.081 HD
BRANCH  19  21
ATOM     21  C   UNL     1       8.180   2.510  -8.429  0.00  0.00    -0.043 C 
BRANCH  21  22
ATOM     22  C   UNL     1       7.097   2.183  -9.425  0.00  0.00    -0.064 A 
ATOM     23  C   UNL     1       6.827   0.866  -9.744  0.00  0.00    +0.002 A 
ATOM     24  C   UNL     1       5.830   0.566 -10.654  0.00  0.00    +0.000 A 
ATOM     25  C   UNL     1       5.111   1.584 -11.252  0.00  0.00    +0.000 A 
ATOM     26  C   UNL     1       5.386   2.901 -10.938  0.00  0.00    +0.000 A 
ATOM     27  C   UNL     1       6.379   3.201 -10.024  0.00  0.00    +0.002 A 
ENDBRANCH  21  22
ENDBRANCH  19  21
ENDBRANCH  12  14
ENDBRANCH   6  10
BRANCH   8  28
ATOM     28  C   UNL     1       1.644   3.029   0.063  0.00  0.00    +0.169 C 
BRANCH  28  29
ATOM     29  C   UNL     1       1.891   1.525   0.203  0.00  0.00    +0.230 C 
ATOM     30  C   UNL     1       0.549   0.781   0.238  0.00  0.00    +0.275 C 
ATOM     31  O   UNL     1       0.816  -0.618   0.384  0.00  0.00    -0.485 OA
ATOM     32  C   UNL     1       1.732  -0.971   1.327  0.00  0.00    +0.162 A 
ATOM     33  C   UNL     1       1.779  -2.284   1.771  0.00  0.00    +0.049 A 
ATOM     34  C   UNL     1       2.705  -2.659   2.726  0.00  0.00    +0.004 A 
ATOM     35  C   UNL     1       3.586  -1.726   3.241  0.00  0.00    +0.004 A 
ATOM     36  C   UNL     1       3.543  -0.416   2.804  0.00  0.00    +0.049 A 
ATOM     37  C   UNL     1       2.615  -0.033   1.847  0.00  0.00    +0.163 A 
ATOM     38  O   UNL     1       2.581   1.262   1.430  0.00  0.00    -0.480 OA
ENDBRANCH  28  29
ENDBRANCH   8  28
TORSDOF 6
