REMARK  Name = ZINC02249678
REMARK  8 active torsions:
REMARK  status: ('A' for Active; 'I' for Inactive)
REMARK    1  A    between atoms: C_1  and  O_2
REMARK    2  A    between atoms: O_2  and  C_3
REMARK    3  A    between atoms: C_6  and  C_11
REMARK    4  A    between atoms: C_8  and  O_9
REMARK    5  A    between atoms: O_9  and  C_10
REMARK    6  A    between atoms: C_25  and  S_37
REMARK    7  A    between atoms: C_28  and  C_30
REMARK    8  A    between atoms: S_37  and  C_38
REMARK                            x       y       z     vdW  Elec       q    Type
REMARK                         _______ _______ _______ _____ _____    ______ ____
ROOT
ATOM      1  C   UNL     1       3.384  -1.834  -3.914  0.00  0.00    +0.234 C 
ATOM      2  C   UNL     1       4.808  -1.835  -3.407  0.00  0.00    +0.025 C 
ATOM      3  C   UNL     1       5.588  -0.781  -3.656  0.00  0.00    +0.050 C 
ATOM      4  C   UNL     1       5.022   0.348  -4.431  0.00  0.00    +0.038 A 
ATOM      5  C   UNL     1       5.623   1.600  -4.437  0.00  0.00    +0.013 A 
ATOM      6  C   UNL     1       5.060   2.622  -5.178  0.00  0.00    +0.001 A 
ATOM      7  C   UNL     1       3.906   2.401  -5.909  0.00  0.00    +0.004 A 
ATOM      8  C   UNL     1       3.301   1.157  -5.908  0.00  0.00    +0.046 A 
ATOM      9  C   UNL     1       3.853   0.126  -5.171  0.00  0.00    +0.131 A 
ATOM     10  O   UNL     1       3.288  -1.107  -5.139  0.00  0.00    -0.479 OA
ATOM     11  N   UNL     1       6.915  -0.716  -3.217  0.00  0.00    -0.283 N 
ATOM     12  C   UNL     1       7.494  -1.891  -2.765  0.00  0.00    +0.220 A 
ATOM     13  N   UNL     1       8.744  -2.181  -2.527  0.00  0.00    -0.187 NA
ATOM     14  C   UNL     1       8.836  -3.452  -2.109  0.00  0.00    +0.210 A 
ATOM     15  N   UNL     1       7.633  -3.981  -2.077  0.00  0.00    -0.141 NA
ATOM     16  N   UNL     1       6.745  -2.988  -2.492  0.00  0.00    -0.220 N 
ATOM     17  C   UNL     1       5.294  -3.033  -2.630  0.00  0.00    +0.172 C 
ATOM     18  H   UNL     1       7.410   0.118  -3.228  0.00  0.00    +0.155 HD
ENDROOT
BRANCH  17  19
ATOM     19  C   UNL     1       4.662  -3.031  -1.262  0.00  0.00    -0.019 A 
ATOM     20  C   UNL     1       4.802  -1.930  -0.438  0.00  0.00    +0.009 A 
ATOM     21  C   UNL     1       4.223  -1.926   0.816  0.00  0.00    +0.039 A 
ATOM     22  C   UNL     1       3.502  -3.027   1.248  0.00  0.00    +0.123 A 
ATOM     23  C   UNL     1       3.363  -4.129   0.423  0.00  0.00    +0.039 A 
ATOM     24  C   UNL     1       3.939  -4.128  -0.834  0.00  0.00    +0.009 A 
ATOM     25  F   UNL     1       2.936  -3.025   2.475  0.00  0.00    -0.205 F 
ENDBRANCH  17  19
BRANCH   1  29
ATOM     26  C   UNL     1       0.849  -0.009  -0.994  0.00  0.00    +0.162 A 
ATOM     27  C   UNL     1       1.723   0.767  -1.738  0.00  0.00    +0.050 A 
ATOM     28  C   UNL     1       2.542   0.173  -2.681  0.00  0.00    +0.011 A 
ATOM     29  C   UNL     1       2.490  -1.193  -2.885  0.00  0.00    +0.001 A 
ATOM     30  C   UNL     1       1.619  -1.972  -2.146  0.00  0.00    +0.057 A 
ATOM     31  C   UNL     1       0.800  -1.385  -1.194  0.00  0.00    +0.162 A 
BRANCH  26  33
ATOM     32  C   UNL     1       0.147   1.990   0.087  0.00  0.00    +0.277 C 
ATOM     33  O   UNL     1       0.043   0.573  -0.065  0.00  0.00    -0.491 OA
ENDBRANCH  26  33
BRANCH  31  34
ATOM     34  O   UNL     1      -0.052  -2.151  -0.463  0.00  0.00    -0.491 OA
ATOM     35  C   UNL     1      -0.139  -3.535  -0.807  0.00  0.00    +0.277 C 
ENDBRANCH  31  34
ENDBRANCH   1  29
BRANCH  14  36
ATOM     36  S   UNL     1      10.330  -4.280  -1.674  0.00  0.00    -0.088 S 
ATOM     37  C   UNL     1      11.617  -3.027  -1.929  0.00  0.00    +0.093 C 
ENDBRANCH  14  36
TORSDOF 5
