REMARK  Name = ZINC33813423
REMARK  9 active torsions:
REMARK  status: ('A' for Active; 'I' for Inactive)
REMARK    1  A    between atoms: C_1  and  C_2
REMARK    2  A    between atoms: C_3  and  C_11
REMARK    3  A    between atoms: C_11  and  C_13
REMARK    4  A    between atoms: C_18  and  C_20
REMARK    5  A    between atoms: C_23  and  O_26
REMARK    6  A    between atoms: C_29  and  C_36
REMARK    7  A    between atoms: C_30  and  C_32
REMARK    8  A    between atoms: C_32  and  O_34
REMARK    9  A    between atoms: O_34  and  C_35
REMARK                            x       y       z     vdW  Elec       q    Type
REMARK                         _______ _______ _______ _____ _____    ______ ____
ROOT
ATOM      1  C   UNL     1      -0.143   1.237  -2.807  0.00  0.00    +0.078 C 
ATOM      2  C   UNL     1      -0.330   1.908  -3.967  0.00  0.00    +0.250 C 
ATOM      3  C   UNL     1      -0.085   3.344  -3.743  0.00  0.00    +0.293 C 
ATOM      4  O   UNL     1      -0.173   4.207  -4.594  0.00  0.00    -0.266 OA
ATOM      5  N   UNL     1       0.250   3.560  -2.458  0.00  0.00    -0.232 N 
ATOM      6  C   UNL     1       0.236   2.265  -1.766  0.00  0.00    +0.152 C 
ATOM      7  C   UNL     1       0.548   4.783  -1.889  0.00  0.00    +0.169 A 
ATOM      8  N   UNL     1       0.563   5.971  -2.466  0.00  0.00    -0.229 NA
ATOM      9  C   UNL     1       0.867   7.053  -1.797  0.00  0.00    +0.062 A 
ATOM     10  C   UNL     1       1.172   6.882  -0.453  0.00  0.00    +0.120 A 
ATOM     11  S   UNL     1       0.972   5.114  -0.294  0.00  0.00    -0.045 S 
ATOM     12  C   UNL     1       0.887   8.412  -2.449  0.00  0.00    +0.067 C 
ATOM     13  O   UNL     1      -0.685   1.347  -5.148  0.00  0.00    -0.282 OA
ENDROOT
BRANCH   6  14
ATOM     14  C   UNL     1      -0.783   2.279  -0.655  0.00  0.00    -0.022 A 
ATOM     15  C   UNL     1      -2.026   2.846  -0.867  0.00  0.00    +0.009 A 
ATOM     16  C   UNL     1      -2.962   2.859   0.150  0.00  0.00    +0.046 A 
ATOM     17  C   UNL     1      -2.654   2.303   1.383  0.00  0.00    +0.117 A 
ATOM     18  C   UNL     1      -1.405   1.735   1.592  0.00  0.00    +0.046 A 
ATOM     19  C   UNL     1      -0.475   1.719   0.571  0.00  0.00    +0.009 A 
BRANCH  17  20
ATOM     20  O   UNL     1      -3.572   2.316   2.384  0.00  0.00    -0.507 OA
ATOM     21  H   UNL     1      -4.148   1.540   2.400  0.00  0.00    +0.292 HD
ENDBRANCH  17  20
ENDBRANCH   6  14
BRANCH   1  22
ATOM     22  C   UNL     1      -0.286  -0.209  -2.598  0.00  0.00    +0.213 C 
ATOM     23  O   UNL     1      -1.272  -0.648  -2.030  0.00  0.00    -0.285 OA
BRANCH  22  26
ATOM     24  C   UNL     1       2.435   0.657  -3.862  0.00  0.00    +0.068 C 
ATOM     25  C   UNL     1       1.941  -0.746  -3.622  0.00  0.00    +0.068 A 
ATOM     26  C   UNL     1       0.721  -1.094  -3.056  0.00  0.00    +0.116 A 
ATOM     27  N   UNL     1       0.685  -2.476  -3.027  0.00  0.00    -0.296 N 
ATOM     28  C   UNL     1      -0.251  -3.360  -2.589  0.00  0.00    +0.093 A 
ATOM     29  C   UNL     1      -0.036  -4.693  -2.678  0.00  0.00    +0.018 A 
ATOM     30  C   UNL     1       1.160  -5.177  -3.225  0.00  0.00    +0.005 A 
ATOM     31  C   UNL     1       2.103  -4.297  -3.667  0.00  0.00    +0.047 A 
ATOM     32  C   UNL     1       1.860  -2.916  -3.566  0.00  0.00    +0.138 A 
ATOM     33  N   UNL     1       2.591  -1.858  -3.918  0.00  0.00    -0.232 NA
ENDBRANCH  22  26
ENDBRANCH   1  22
BRANCH  10  34
ATOM     34  C   UNL     1       1.546   7.873   0.554  0.00  0.00    +0.347 C 
ATOM     35  O   UNL     1       1.625   9.048   0.250  0.00  0.00    -0.244 OA
BRANCH  34  36
ATOM     36  O   UNL     1       1.803   7.485   1.820  0.00  0.00    -0.464 OA
ATOM     37  C   UNL     1       2.163   8.507   2.752  0.00  0.00    +0.280 C 
ENDBRANCH  34  36
ENDBRANCH  10  34
TORSDOF 6
