REMARK  Name = ZINC18353541
REMARK  6 active torsions:
REMARK  status: ('A' for Active; 'I' for Inactive)
REMARK    1  A    between atoms: C_1  and  C_2
REMARK    2  A    between atoms: N_13  and  C_16
REMARK    3  A    between atoms: C_16  and  C_17
REMARK    4  A    between atoms: N_19  and  C_20
REMARK    5  A    between atoms: C_20  and  C_21
REMARK    6  A    between atoms: N_23  and  C_24
REMARK                            x       y       z     vdW  Elec       q    Type
REMARK                         _______ _______ _______ _____ _____    ______ ____
ROOT
ATOM      1  C   UNL     1      -2.422   1.097   0.018  0.00  0.00    +0.221 C 
ENDROOT
BRANCH   1  13
ATOM      2  C   UNL     1       6.746   0.160  -0.149  0.00  0.00    +0.008 C 
ATOM      3  C   UNL     1       5.293   0.552  -0.424  0.00  0.00    -0.009 C 
ATOM      4  C   UNL     1       4.358  -0.322   0.418  0.00  0.00    +0.008 C 
ATOM      5  C   UNL     1       2.910  -0.113  -0.027  0.00  0.00    +0.037 C 
ATOM      6  C   UNL     1       2.602   1.382  -0.017  0.00  0.00    -0.023 A 
ATOM      7  C   UNL     1       3.600   2.291  -0.021  0.00  0.00    -0.004 A 
ATOM      8  S   UNL     1       2.786   3.866  -0.006  0.00  0.00    -0.073 S 
ATOM      9  C   UNL     1       1.105   3.297   0.006  0.00  0.00    +0.116 A 
ATOM     10  C   UNL     1       1.234   1.899  -0.002  0.00  0.00    +0.076 A 
ATOM     11  C   UNL     1       0.004   1.163   0.007  0.00  0.00    +0.263 A 
ATOM     12  O   UNL     1       0.011  -0.056   0.001  0.00  0.00    -0.267 OA
ATOM     13  N   UNL     1      -1.159   1.840   0.015  0.00  0.00    -0.290 N 
ATOM     14  C   UNL     1      -1.186   3.198   0.027  0.00  0.00    +0.203 A 
ATOM     15  N   UNL     1      -0.082   3.896   0.019  0.00  0.00    -0.230 NA
ATOM     16  C   UNL     1       5.074   2.022  -0.037  0.00  0.00    +0.046 C 
ENDBRANCH   1  13
BRANCH   1  17
ATOM     17  C   UNL     1      -2.848   0.836   1.440  0.00  0.00    +0.233 C 
ATOM     18  O   UNL     1      -2.165   1.232   2.360  0.00  0.00    -0.274 OA
ATOM     19  N   UNL     1      -3.989   0.164   1.688  0.00  0.00    -0.305 N 
ATOM     20  H   UNL     1      -4.536  -0.153   0.952  0.00  0.00    +0.149 HD
BRANCH  19  21
ATOM     21  C   UNL     1      -4.404  -0.090   3.070  0.00  0.00    +0.200 C 
BRANCH  21  22
ATOM     22  C   UNL     1      -5.703  -0.854   3.073  0.00  0.00    +0.234 C 
ATOM     23  O   UNL     1      -6.230  -1.157   2.023  0.00  0.00    -0.274 OA
ATOM     24  N   UNL     1      -6.278  -1.201   4.241  0.00  0.00    -0.283 N 
ATOM     25  H   UNL     1      -5.825  -1.017   5.079  0.00  0.00    +0.155 HD
BRANCH  24  26
ATOM     26  C   UNL     1      -7.530  -1.827   4.246  0.00  0.00    +0.047 A 
ATOM     27  C   UNL     1      -7.870  -2.711   3.231  0.00  0.00    +0.024 A 
ATOM     28  C   UNL     1      -9.104  -3.331   3.240  0.00  0.00    +0.002 A 
ATOM     29  C   UNL     1     -10.005  -3.064   4.255  0.00  0.00    +0.001 A 
ATOM     30  C   UNL     1      -9.673  -2.181   5.265  0.00  0.00    +0.017 A 
ATOM     31  C   UNL     1      -8.437  -1.561   5.264  0.00  0.00    +0.039 A 
ATOM     32 BR   UNL     1      -7.983  -0.352   6.645  0.00  0.00    -0.048 Br
ENDBRANCH  24  26
ENDBRANCH  21  22
ENDBRANCH  19  21
ENDBRANCH   1  17
TORSDOF 5
