REMARK  Name = ZINC32902362
REMARK  7 active torsions:
REMARK  status: ('A' for Active; 'I' for Inactive)
REMARK    1  A    between atoms: C_1  and  O_2
REMARK    2  A    between atoms: O_2  and  C_3
REMARK    3  A    between atoms: C_6  and  C_9
REMARK    4  A    between atoms: C_9  and  C_11
REMARK    5  A    between atoms: C_9  and  N_28
REMARK    6  A    between atoms: C_11  and  N_12
REMARK    7  A    between atoms: C_13  and  C_15
REMARK                            x       y       z     vdW  Elec       q    Type
REMARK                         _______ _______ _______ _____ _____    ______ ____
ROOT
ATOM      1  C   UNL     1      -5.159   3.118  -3.857  0.00  0.00    +0.093 C 
ENDROOT
BRANCH   1   2
ATOM      2  N   UNL     1      -5.218   2.994  -2.398  0.00  0.00    -0.314 N 
ATOM      3  C   UNL     1      -4.300   3.617  -1.632  0.00  0.00    +0.248 C 
ATOM      4  O   UNL     1      -3.427   4.280  -2.150  0.00  0.00    -0.272 OA
ATOM      5  H   UNL     1      -6.010   2.393  -1.929  0.00  0.00    +0.149 HD
BRANCH   3   6
ATOM      6  C   UNL     1      -4.361   3.489  -0.132  0.00  0.00    +0.169 C 
ATOM      7  C   UNL     1      -5.710   3.898   0.484  0.00  0.00    +0.056 C 
ATOM      8  C   UNL     1      -5.448   5.396   0.779  0.00  0.00    +0.100 C 
ATOM      9  C   UNL     1      -3.947   5.492   0.934  0.00  0.00    +0.221 C 
ATOM     10  O   UNL     1      -3.353   6.479   1.315  0.00  0.00    -0.275 OA
ATOM     11  N   UNL     1      -3.360   4.322   0.589  0.00  0.00    -0.246 N 
ATOM     12  C   UNL     1      -2.125   3.659   0.749  0.00  0.00    +0.052 A 
ATOM     13  C   UNL     1      -0.860   4.253   0.828  0.00  0.00    +0.025 A 
ATOM     14  C   UNL     1       0.259   3.500   1.106  0.00  0.00    +0.002 A 
ATOM     15  C   UNL     1       0.165   2.138   1.329  0.00  0.00    +0.001 A 
ATOM     16  C   UNL     1      -1.071   1.520   1.227  0.00  0.00    +0.016 A 
ATOM     17  C   UNL     1      -2.177   2.265   0.897  0.00  0.00    +0.032 A 
ATOM     18  S   UNL     1      -3.858   1.834   0.492  0.00  0.00    -0.088 S 
ENDBRANCH   3   6
ENDBRANCH   1   2
BRANCH   1  19
ATOM     19  C   UNL     1      -6.199   2.191  -4.490  0.00  0.00    -0.020 C 
BRANCH  19  20
ATOM     20  N   UNL     1      -5.887   0.797  -4.144  0.00  0.00    +0.385 N 
ATOM     21  C   UNL     1      -6.658   0.360  -2.974  0.00  0.00    -0.078 C 
ATOM     22  C   UNL     1      -6.419  -1.132  -2.732  0.00  0.00    -0.019 C 
ATOM     23  C   UNL     1      -4.925  -1.374  -2.501  0.00  0.00    -0.004 C 
ATOM     24  C   UNL     1      -4.140  -0.865  -3.713  0.00  0.00    -0.019 C 
ATOM     25  C   UNL     1      -4.445   0.619  -3.927  0.00  0.00    -0.078 C 
ATOM     26  H   UNL     1      -6.178   0.163  -4.994  0.00  0.00    -0.081 HD
ENDBRANCH  19  20
BRANCH  19  30
ATOM     27  C   UNL     1      -6.124   2.656  -8.737  0.00  0.00    +0.120 A 
ATOM     28  C   UNL     1      -7.149   3.224  -7.994  0.00  0.00    +0.046 A 
ATOM     29  C   UNL     1      -7.171   3.072  -6.621  0.00  0.00    +0.005 A 
ATOM     30  C   UNL     1      -6.172   2.355  -5.988  0.00  0.00    -0.059 A 
ATOM     31  C   UNL     1      -5.147   1.792  -6.726  0.00  0.00    +0.005 A 
ATOM     32  C   UNL     1      -5.124   1.937  -8.099  0.00  0.00    +0.046 A 
BRANCH  27  34
ATOM     33  C   UNL     1      -5.016   2.193 -10.789  0.00  0.00    +0.277 C 
ATOM     34  O   UNL     1      -6.100   2.805 -10.088  0.00  0.00    -0.495 OA
ENDBRANCH  27  34
ENDBRANCH  19  30
ENDBRANCH   1  19
TORSDOF 6
