REMARK  Name = ZINC02769534
REMARK  8 active torsions:
REMARK  status: ('A' for Active; 'I' for Inactive)
REMARK    1  A    between atoms: C_1  and  C_2
REMARK    2  A    between atoms: C_3  and  C_9
REMARK    3  A    between atoms: C_4  and  C_8
REMARK    4  A    between atoms: N_5  and  C_7
REMARK    5  A    between atoms: C_18  and  C_26
REMARK    6  A    between atoms: C_19  and  N_25
REMARK    7  A    between atoms: C_20  and  C_21
REMARK    8  A    between atoms: C_20  and  C_23
REMARK                            x       y       z     vdW  Elec       q    Type
REMARK                         _______ _______ _______ _____ _____    ______ ____
ROOT
ATOM      1  C   UNL     1       0.527   1.209  -0.370  0.00  0.00    +0.070 C 
ATOM      2  C   UNL     1       0.294   1.938   0.955  0.00  0.00    +0.030 C 
ATOM      3  C   UNL     1      -1.145   1.859   1.403  0.00  0.00    +0.009 C 
ATOM      4  C   UNL     1      -1.352   0.796   2.481  0.00  0.00    +0.005 C 
ATOM      5  C   UNL     1      -0.445   1.134   3.672  0.00  0.00    +0.027 C 
ATOM      6  C   UNL     1       0.982   1.085   3.189  0.00  0.00    -0.022 C 
ATOM      7  C   UNL     1       1.290   1.429   1.954  0.00  0.00    -0.029 C 
ATOM      8  C   UNL     1       2.700   1.313   1.495  0.00  0.00    +0.074 C 
ATOM      9  C   UNL     1       2.971   1.365   0.166  0.00  0.00    +0.054 C 
ATOM     10  C   UNL     1       1.923   1.560  -0.887  0.00  0.00    +0.188 C 
ENDROOT
BRANCH   1  13
ATOM     11  C   UNL     1      -0.728   4.108  -0.622  0.00  0.00    +0.068 C 
ATOM     12  C   UNL     1      -1.063   2.921  -1.488  0.00  0.00    +0.064 A 
ATOM     13  C   UNL     1      -0.508   1.642  -1.376  0.00  0.00    +0.002 A 
ATOM     14  C   UNL     1      -1.070   0.860  -2.327  0.00  0.00    +0.040 A 
ATOM     15  N   UNL     1      -1.944   1.619  -3.020  0.00  0.00    -0.271 N 
ATOM     16  N   UNL     1      -1.919   2.910  -2.477  0.00  0.00    -0.176 NA
ATOM     17  C   UNL     1      -2.773   1.172  -4.141  0.00  0.00    +0.172 C 
ATOM     18  C   UNL     1      -0.772  -0.597  -2.568  0.00  0.00    +0.065 C 
ENDBRANCH   1  13
BRANCH   9  19
ATOM     19  N   UNL     1       4.271   1.233  -0.233  0.00  0.00    -0.358 N 
ATOM     20  H   UNL     1       4.524   1.271  -1.303  0.00  0.00    +0.142 HD
ATOM     21  H   UNL     1       5.064   1.090   0.515  0.00  0.00    +0.142 HD
ENDBRANCH   9  19
BRANCH  10  22
ATOM     22  C   UNL     1       2.236   0.700  -2.041  0.00  0.00    +0.091 C 
ATOM     23  N   UNL     1       2.478   0.037  -2.931  0.00  0.00    -0.194 NA
ENDBRANCH  10  22
BRANCH  10  24
ATOM     24  C   UNL     1       1.935   2.966  -1.320  0.00  0.00    +0.091 C 
ATOM     25  N   UNL     1       1.944   4.052  -1.654  0.00  0.00    -0.194 NA
ENDBRANCH  10  24
BRANCH   8  26
ATOM     26  C   UNL     1       3.759   1.148   2.444  0.00  0.00    +0.101 C 
ATOM     27  N   UNL     1       4.600   1.018   3.197  0.00  0.00    -0.191 NA
ENDBRANCH   8  26
TORSDOF 5
