REMARK  Name = ZINC03379634
REMARK  10 active torsions:
REMARK  status: ('A' for Active; 'I' for Inactive)
REMARK    1  A    between atoms: C_1  and  N_2
REMARK    2  A    between atoms: C_3  and  N_36
REMARK    3  A    between atoms: C_4  and  C_11
REMARK    4  A    between atoms: N_7  and  C_10
REMARK    5  A    between atoms: C_11  and  C_13
REMARK    6  A    between atoms: C_13  and  S_14
REMARK    7  A    between atoms: S_14  and  C_15
REMARK    8  A    between atoms: C_18  and  C_30
REMARK    9  A    between atoms: N_19  and  C_20
REMARK   10  A    between atoms: C_20  and  C_21
REMARK                            x       y       z     vdW  Elec       q    Type
REMARK                         _______ _______ _______ _____ _____    ______ ____
ROOT
ATOM      1  C   UNL     1       2.232  -2.586  -2.419  0.00  0.00    +0.193 A 
ATOM      2  N   UNL     1       1.853  -3.382  -3.393  0.00  0.00    -0.122 NA
ATOM      3  N   UNL     1       0.582  -3.570  -3.340  0.00  0.00    -0.128 NA
ATOM      4  C   UNL     1       0.074  -2.909  -2.326  0.00  0.00    +0.165 A 
ATOM      5  N   UNL     1       1.114  -2.254  -1.709  0.00  0.00    -0.298 N 
ENDROOT
BRANCH   4   6
ATOM      6  C   UNL     1      -1.349  -2.874  -1.926  0.00  0.00    +0.019 A 
ATOM      7  C   UNL     1      -1.696  -2.845  -0.574  0.00  0.00    +0.011 A 
ATOM      8  C   UNL     1      -3.025  -2.807  -0.207  0.00  0.00    +0.001 A 
ATOM      9  C   UNL     1      -4.013  -2.808  -1.175  0.00  0.00    +0.000 A 
ATOM     10  C   UNL     1      -3.677  -2.842  -2.516  0.00  0.00    +0.001 A 
ATOM     11  C   UNL     1      -2.351  -2.875  -2.897  0.00  0.00    +0.011 A 
ENDBRANCH   4   6
BRANCH   1  12
ATOM     12  S   UNL     1       3.877  -2.045  -2.092  0.00  0.00    -0.078 S 
BRANCH  12  13
ATOM     13  C   UNL     1       4.757  -2.889  -3.429  0.00  0.00    +0.157 C 
BRANCH  13  14
ATOM     14  C   UNL     1       6.226  -2.564  -3.347  0.00  0.00    +0.182 C 
ATOM     15  O   UNL     1       6.638  -1.833  -2.470  0.00  0.00    -0.291 OA
BRANCH  14  19
ATOM     16  C   UNL     1      10.720  -2.901  -5.263  0.00  0.00    +0.155 C 
ATOM     17  N   UNL     1       9.307  -3.287  -5.238  0.00  0.00    -0.284 N 
ATOM     18  C   UNL     1       8.476  -2.728  -4.309  0.00  0.00    +0.116 A 
ATOM     19  C   UNL     1       7.123  -3.109  -4.291  0.00  0.00    +0.120 A 
ATOM     20  C   UNL     1       6.672  -4.088  -5.288  0.00  0.00    +0.269 A 
ATOM     21  O   UNL     1       5.511  -4.450  -5.322  0.00  0.00    -0.267 OA
ATOM     22  N   UNL     1       7.572  -4.577  -6.166  0.00  0.00    -0.263 N 
ATOM     23  C   UNL     1       8.854  -4.179  -6.133  0.00  0.00    +0.333 A 
ATOM     24  O   UNL     1       9.633  -4.644  -6.942  0.00  0.00    -0.246 OA
ATOM     25  C   UNL     1       7.144  -5.555  -7.170  0.00  0.00    +0.157 C 
BRANCH  18  26
ATOM     26  N   UNL     1       8.952  -1.821  -3.414  0.00  0.00    -0.344 N 
ATOM     27  H   UNL     1       8.336  -1.333  -2.844  0.00  0.00    +0.144 HD
ATOM     28  H   UNL     1       9.906  -1.661  -3.345  0.00  0.00    +0.144 HD
ENDBRANCH  18  26
ENDBRANCH  14  19
ENDBRANCH  13  14
ENDBRANCH  12  13
ENDBRANCH   1  12
BRANCH   5  29
ATOM     29  C   UNL     1       1.039  -1.387  -0.530  0.00  0.00    +0.161 C 
BRANCH  29  30
ATOM     30  C   UNL     1       0.690   0.015  -0.960  0.00  0.00    -0.024 A 
ATOM     31  C   UNL     1       1.696   0.911  -1.270  0.00  0.00    +0.009 A 
ATOM     32  C   UNL     1       1.381   2.198  -1.665  0.00  0.00    +0.050 A 
ATOM     33  C   UNL     1       0.055   2.592  -1.750  0.00  0.00    +0.166 A 
ATOM     34  C   UNL     1      -0.958   1.689  -1.438  0.00  0.00    +0.167 A 
ATOM     35  C   UNL     1      -0.635   0.401  -1.043  0.00  0.00    +0.055 A 
ATOM     36  O   UNL     1      -2.162   2.310  -1.604  0.00  0.00    -0.453 OA
ATOM     37  C   UNL     1      -1.867   3.721  -1.617  0.00  0.00    +0.466 C 
ATOM     38  O   UNL     1      -0.514   3.781  -2.107  0.00  0.00    -0.453 OA
ENDBRANCH  29  30
ENDBRANCH   5  29
TORSDOF 8
