REMARK  Name = ZINC65739814
REMARK  14 active torsions:
REMARK  status: ('A' for Active; 'I' for Inactive)
REMARK    1  A    between atoms: C_1  and  C_2
REMARK    2  A    between atoms: C_2  and  C_3
REMARK    3  A    between atoms: C_3  and  C_4
REMARK    4  A    between atoms: C_4  and  C_5
REMARK    5  A    between atoms: C_5  and  O_6
REMARK    6  A    between atoms: O_6  and  C_7
REMARK    7  A    between atoms: N_13  and  C_17
REMARK    8  A    between atoms: C_19  and  O_28
REMARK    9  A    between atoms: C_21  and  O_27
REMARK   10  A    between atoms: C_23  and  C_26
REMARK   11  A    between atoms: O_28  and  C_29
REMARK   12  A    between atoms: C_31  and  O_40
REMARK   13  A    between atoms: C_33  and  O_39
REMARK   14  A    between atoms: C_35  and  C_38
REMARK                            x       y       z     vdW  Elec       q    Type
REMARK                         _______ _______ _______ _____ _____    ______ ____
ROOT
ATOM      1  C   UNL     1       4.755  -8.386   7.818  0.00  0.00    +0.255 C 
ATOM      2  C   UNL     1       6.257  -8.004   7.819  0.00  0.00    +0.202 C 
ATOM      3  C   UNL     1       6.604  -8.172   9.323  0.00  0.00    +0.176 C 
ATOM      4  C   UNL     1       5.292  -7.738  10.012  0.00  0.00    +0.149 C 
ATOM      5  O   UNL     1       4.234  -7.869   9.053  0.00  0.00    -0.348 OA
ATOM      6  C   UNL     1       5.015  -8.641  11.216  0.00  0.00    +0.041 C 
ENDROOT
BRANCH   1  13
ATOM      7  C   UNL     1       2.140  -4.585   3.494  0.00  0.00    +0.406 C 
ATOM      8  O   UNL     1       2.649  -3.921   4.375  0.00  0.00    -0.226 OA
ATOM      9  N   UNL     1       2.194  -5.931   3.548  0.00  0.00    -0.233 N 
ATOM     10  C   UNL     1       2.829  -6.555   4.605  0.00  0.00    +0.170 A 
ATOM     11  C   UNL     1       2.892  -7.963   4.662  0.00  0.00    +0.180 A 
ATOM     12  C   UNL     1       3.521  -8.550   5.710  0.00  0.00    +0.135 A 
ATOM     13  N   UNL     1       4.073  -7.766   6.680  0.00  0.00    -0.267 N 
ATOM     14  C   UNL     1       3.994  -6.425   6.596  0.00  0.00    +0.352 A 
ATOM     15  O   UNL     1       4.493  -5.738   7.472  0.00  0.00    -0.244 OA
ATOM     16  N   UNL     1       3.385  -5.835   5.568  0.00  0.00    -0.175 NA
ATOM     17  F   UNL     1       2.336  -8.715   3.687  0.00  0.00    -0.200 F 
ATOM     18  H   UNL     1       1.788  -6.460   2.844  0.00  0.00    +0.160 HD
BRANCH   7  19
ATOM     19  O   UNL     1       1.522  -3.976   2.465  0.00  0.00    -0.450 OA
BRANCH  19  20
ATOM     20  C   UNL     1       1.503  -2.548   2.473  0.00  0.00    +0.234 C 
BRANCH  20  21
ATOM     21  C   UNL     1       0.763  -2.041   1.233  0.00  0.00    +0.041 C 
BRANCH  21  22
ATOM     22  C   UNL     1       0.742  -0.511   1.242  0.00  0.00    +0.003 C 
BRANCH  22  24
ATOM     23  C   UNL     1      -0.019   1.526   0.010  0.00  0.00    +0.004 C 
ATOM     24  C   UNL     1       0.002  -0.004   0.002  0.00  0.00    -0.003 C 
ENDBRANCH  22  24
ENDBRANCH  21  22
ENDBRANCH  20  21
ENDBRANCH  19  20
ENDBRANCH   7  19
ENDBRANCH   1  13
BRANCH   3  25
ATOM     25  O   UNL     1       6.914  -9.535   9.624  0.00  0.00    -0.387 OA
ATOM     26  H   UNL     1       7.137  -9.691  10.552  0.00  0.00    +0.210 HD
ENDBRANCH   3  25
BRANCH   2  27
ATOM     27  O   UNL     1       7.017  -8.904   7.010  0.00  0.00    -0.338 OA
BRANCH  27  28
ATOM     28  C   UNL     1       8.171  -8.312   6.410  0.00  0.00    +0.282 C 
ATOM     29  C   UNL     1       8.809  -9.287   5.395  0.00  0.00    +0.201 C 
ATOM     30  C   UNL     1      10.328  -9.062   5.562  0.00  0.00    +0.176 C 
ATOM     31  C   UNL     1      10.429  -7.978   6.658  0.00  0.00    +0.149 C 
ATOM     32  O   UNL     1       9.195  -8.088   7.403  0.00  0.00    -0.343 OA
ATOM     33  C   UNL     1      11.630  -8.250   7.567  0.00  0.00    +0.041 C 
BRANCH  30  34
ATOM     34  O   UNL     1      10.969 -10.267   5.985  0.00  0.00    -0.386 OA
ATOM     35  H   UNL     1      11.925 -10.183   6.105  0.00  0.00    +0.210 HD
ENDBRANCH  30  34
BRANCH  29  36
ATOM     36  O   UNL     1       8.462 -10.636   5.711  0.00  0.00    -0.384 OA
ATOM     37  H   UNL     1       7.512 -10.816   5.679  0.00  0.00    +0.210 HD
ENDBRANCH  29  36
ENDBRANCH  27  28
ENDBRANCH   2  27
TORSDOF 11
