REMARK  Name = ZINC01201211
REMARK  15 active torsions:
REMARK  status: ('A' for Active; 'I' for Inactive)
REMARK    1  A    between atoms: C_1  and  C_2
REMARK    2  A    between atoms: C_3  and  C_33
REMARK    3  A    between atoms: C_4  and  C_23
REMARK    4  A    between atoms: C_10  and  C_15
REMARK    5  A    between atoms: C_18  and  O_21
REMARK    6  A    between atoms: O_21  and  C_22
REMARK    7  A    between atoms: C_25  and  O_31
REMARK    8  A    between atoms: C_28  and  O_29
REMARK    9  A    between atoms: O_29  and  C_30
REMARK   10  A    between atoms: O_31  and  C_32
REMARK   11  A    between atoms: C_33  and  O_35
REMARK   12  A    between atoms: O_35  and  C_36
REMARK   13  A    between atoms: C_36  and  C_37
REMARK   14  A    between atoms: C_37  and  C_38
REMARK   15  A    between atoms: C_37  and  C_39
REMARK                            x       y       z     vdW  Elec       q    Type
REMARK                         _______ _______ _______ _____ _____    ______ ____
ROOT
ATOM      1  C   UNL     1      -4.002   5.355   4.733  0.00  0.00    +0.061 C 
ATOM      2  C   UNL     1      -3.981   3.848   4.716  0.00  0.00    +0.016 C 
ATOM      3  C   UNL     1      -4.813   3.178   3.900  0.00  0.00    +0.065 C 
ATOM      4  C   UNL     1      -4.814   1.678   3.850  0.00  0.00    +0.096 C 
ATOM      5  C   UNL     1      -4.140   1.095   5.066  0.00  0.00    +0.024 C 
ATOM      6  C   UNL     1      -3.335   1.855   5.839  0.00  0.00    +0.016 C 
ATOM      7  N   UNL     1      -3.117   3.171   5.531  0.00  0.00    -0.321 N 
ATOM      8  C   UNL     1      -2.661   1.280   7.060  0.00  0.00    +0.059 C 
ATOM      9  C   UNL     1      -2.388  -0.210   6.843  0.00  0.00    +0.032 C 
ATOM     10  C   UNL     1      -3.719  -0.912   6.557  0.00  0.00    +0.088 C 
ATOM     11  C   UNL     1      -4.372  -0.258   5.370  0.00  0.00    +0.162 C 
ATOM     12  O   UNL     1      -5.113  -0.910   4.662  0.00  0.00    -0.292 OA
ATOM     13  H   UNL     1      -2.236   3.684   5.945  0.00  0.00    +0.152 HD
ENDROOT
BRANCH   9  14
ATOM     14  C   UNL     1      -1.762  -0.796   8.082  0.00  0.00    -0.043 A 
ATOM     15  C   UNL     1      -2.441  -0.750   9.286  0.00  0.00    +0.007 A 
ATOM     16  C   UNL     1      -1.872  -1.291  10.422  0.00  0.00    +0.046 A 
ATOM     17  C   UNL     1      -0.613  -1.871  10.358  0.00  0.00    +0.120 A 
ATOM     18  C   UNL     1       0.069  -1.911   9.150  0.00  0.00    +0.046 A 
ATOM     19  C   UNL     1      -0.507  -1.373   8.015  0.00  0.00    +0.007 A 
BRANCH  17  20
ATOM     20  O   UNL     1      -0.049  -2.398  11.476  0.00  0.00    -0.495 OA
ATOM     21  C   UNL     1      -0.808  -2.322  12.684  0.00  0.00    +0.277 C 
ENDBRANCH  17  20
ENDBRANCH   9  14
BRANCH   4  22
ATOM     22  C   UNL     1      -4.082   1.224   2.613  0.00  0.00    +0.010 A 
ATOM     23  C   UNL     1      -2.755   1.563   2.433  0.00  0.00    +0.053 A 
ATOM     24  C   UNL     1      -2.083   1.151   1.292  0.00  0.00    +0.121 A 
ATOM     25  C   UNL     1      -2.740   0.388   0.338  0.00  0.00    +0.049 A 
ATOM     26  C   UNL     1      -4.065   0.044   0.521  0.00  0.00    +0.049 A 
ATOM     27  C   UNL     1      -4.739   0.461   1.659  0.00  0.00    +0.124 A 
BRANCH  27  28
ATOM     28  O   UNL     1      -6.043   0.123   1.840  0.00  0.00    -0.495 OA
ATOM     29  C   UNL     1      -6.657  -0.664   0.817  0.00  0.00    +0.277 C 
ENDBRANCH  27  28
BRANCH  24  30
ATOM     30  O   UNL     1      -0.778   1.490   1.111  0.00  0.00    -0.495 OA
ATOM     31  C   UNL     1      -0.147   1.026  -0.084  0.00  0.00    +0.277 C 
ENDBRANCH  24  30
ENDBRANCH   4  22
BRANCH   3  32
ATOM     32  C   UNL     1      -5.704   3.900   3.072  0.00  0.00    +0.338 C 
ATOM     33  O   UNL     1      -5.791   5.109   3.182  0.00  0.00    -0.245 OA
BRANCH  32  34
ATOM     34  O   UNL     1      -6.458   3.249   2.162  0.00  0.00    -0.461 OA
BRANCH  34  35
ATOM     35  C   UNL     1      -7.336   4.042   1.360  0.00  0.00    +0.235 C 
BRANCH  35  36
ATOM     36  C   UNL     1      -8.102   3.136   0.394  0.00  0.00    +0.020 C 
ATOM     37  C   UNL     1      -9.130   3.966  -0.377  0.00  0.00    +0.010 C 
ATOM     38  C   UNL     1      -7.122   2.496  -0.591  0.00  0.00    +0.010 C 
ENDBRANCH  35  36
ENDBRANCH  34  35
ENDBRANCH  32  34
ENDBRANCH   3  32
TORSDOF 9
