REMARK  Name = ZINC09432864
REMARK  10 active torsions:
REMARK  status: ('A' for Active; 'I' for Inactive)
REMARK    1  A    between atoms: C_1  and  C_2
REMARK    2  A    between atoms: C_7  and  C_8
REMARK    3  A    between atoms: C_7  and  N_72
REMARK    4  A    between atoms: C_11  and  N_14
REMARK    5  A    between atoms: C_15  and  C_17
REMARK    6  A    between atoms: N_27  and  C_35
REMARK    7  A    between atoms: C_28  and  C_30
REMARK    8  A    between atoms: C_35  and  C_36
REMARK    9  A    between atoms: C_36  and  O_37
REMARK   10  A    between atoms: O_37  and  C_38
REMARK                            x       y       z     vdW  Elec       q    Type
REMARK                         _______ _______ _______ _____ _____    ______ ____
ROOT
ATOM      1  C   UNL     1      -5.742   1.570  -8.502  0.00  0.00    +0.131 C 
ATOM      2  C   UNL     1      -4.677   1.899  -9.514  0.00  0.00    -0.021 A 
ATOM      3  C   UNL     1      -4.465   3.205  -9.910  0.00  0.00    +0.005 A 
ATOM      4  C   UNL     1      -3.468   3.496 -10.825  0.00  0.00    +0.000 A 
ATOM      5  C   UNL     1      -2.678   2.486 -11.345  0.00  0.00    +0.001 A 
ATOM      6  C   UNL     1      -2.885   1.176 -10.961  0.00  0.00    +0.013 A 
ATOM      7  C   UNL     1      -3.899   0.876 -10.055  0.00  0.00    +0.041 A 
ATOM      8  C   UNL     1      -4.155  -0.516  -9.629  0.00  0.00    +0.247 C 
ATOM      9  O   UNL     1      -3.349  -1.392  -9.875  0.00  0.00    -0.270 OA
ATOM     10  N   UNL     1      -5.291  -0.805  -8.965  0.00  0.00    -0.287 N 
ATOM     11  C   UNL     1      -6.341   0.198  -8.801  0.00  0.00    +0.129 C 
ENDROOT
BRANCH  11  12
ATOM     12  C   UNL     1      -7.240  -0.209  -7.662  0.00  0.00    +0.011 A 
ATOM     13  C   UNL     1      -8.190  -1.175  -7.627  0.00  0.00    +0.013 A 
ATOM     14  C   UNL     1      -8.900  -1.375  -6.458  0.00  0.00    +0.008 A 
ATOM     15  C   UNL     1      -8.626  -0.600  -5.381  0.00  0.00    +0.045 A 
ATOM     16  S   UNL     1      -7.324   0.451  -6.005  0.00  0.00    -0.100 S 
ENDBRANCH  11  12
BRANCH   1  18
ATOM     17  N   UNL     1      -5.211   2.659  -6.346  0.00  0.00    -0.285 N 
ATOM     18  C   UNL     1      -5.135   1.561  -7.123  0.00  0.00    +0.227 C 
ATOM     19  O   UNL     1      -4.579   0.565  -6.712  0.00  0.00    -0.275 OA
ATOM     20  H   UNL     1      -5.710   3.434  -6.648  0.00  0.00    +0.155 HD
BRANCH  17  24
ATOM     21  C   UNL     1      -3.303   2.726  -2.643  0.00  0.00    -0.064 A 
ATOM     22  C   UNL     1      -4.486   3.419  -2.822  0.00  0.00    +0.003 A 
ATOM     23  C   UNL     1      -5.118   3.404  -4.050  0.00  0.00    +0.023 A 
ATOM     24  C   UNL     1      -4.570   2.682  -5.102  0.00  0.00    +0.033 A 
ATOM     25  C   UNL     1      -3.385   1.983  -4.917  0.00  0.00    +0.023 A 
ATOM     26  C   UNL     1      -2.755   2.007  -3.688  0.00  0.00    +0.003 A 
BRANCH  21  27
ATOM     27  C   UNL     1      -2.613   2.750  -1.303  0.00  0.00    -0.043 C 
BRANCH  27  34
ATOM     28  C   UNL     1       1.702   6.471  -0.858  0.00  0.00    +0.007 C 
ATOM     29  C   UNL     1       0.870   5.188  -0.847  0.00  0.00    -0.018 C 
ATOM     30  C   UNL     1      -0.290   5.338   0.141  0.00  0.00    -0.016 C 
ATOM     31  C   UNL     1      -1.154   4.075   0.102  0.00  0.00    -0.078 C 
ATOM     32  C   UNL     1      -0.574   3.680  -2.217  0.00  0.00    -0.078 C 
ATOM     33  C   UNL     1       0.307   4.931  -2.248  0.00  0.00    -0.016 C 
ATOM     34  N   UNL     1      -1.685   3.898  -1.266  0.00  0.00    +0.382 N 
ATOM     35  H   UNL     1      -2.194   4.748  -1.538  0.00  0.00    -0.081 HD
ENDBRANCH  27  34
ENDBRANCH  21  27
ENDBRANCH  17  24
ENDBRANCH   1  18
BRANCH  10  36
ATOM     36  C   UNL     1      -5.477  -2.143  -8.400  0.00  0.00    +0.137 C 
BRANCH  36  37
ATOM     37  C   UNL     1      -6.267  -3.008  -9.385  0.00  0.00    +0.178 C 
BRANCH  37  38
ATOM     38  O   UNL     1      -5.496  -3.202 -10.572  0.00  0.00    -0.381 OA
ATOM     39  C   UNL     1      -6.147  -4.000 -11.563  0.00  0.00    +0.194 C 
ENDBRANCH  37  38
ENDBRANCH  36  37
ENDBRANCH  10  36
TORSDOF 8
