REMARK  Name = ZINC66190806
REMARK  9 active torsions:
REMARK  status: ('A' for Active; 'I' for Inactive)
REMARK    1  A    between atoms: C_1  and  C_2
REMARK    2  A    between atoms: C_4  and  C_8
REMARK    3  A    between atoms: C_5  and  C_7
REMARK    4  A    between atoms: C_8  and  C_10
REMARK    5  A    between atoms: C_8  and  N_11
REMARK    6  A    between atoms: N_14  and  C_15
REMARK    7  A    between atoms: N_14  and  C_16
REMARK    8  A    between atoms: N_19  and  C_22
REMARK    9  A    between atoms: C_25  and  C_28
REMARK                            x       y       z     vdW  Elec       q    Type
REMARK                         _______ _______ _______ _____ _____    ______ ____
ROOT
ATOM      1  N   UNL     1      -2.786  -3.079   0.471  0.00  0.00    -0.293 N 
ATOM      2  C   UNL     1      -3.542  -4.045   1.030  0.00  0.00    +0.303 C 
ATOM      3  O   UNL     1      -3.104  -5.174   1.135  0.00  0.00    -0.253 OA
ATOM      4  N   UNL     1      -4.782  -3.758   1.472  0.00  0.00    -0.286 N 
ATOM      5  C   UNL     1      -5.309  -2.397   1.344  0.00  0.00    +0.134 C 
ATOM      6  H   UNL     1      -3.135  -2.178   0.387  0.00  0.00    +0.151 HD
ENDROOT
BRANCH   4   7
ATOM      7  C   UNL     1      -5.604  -4.808   2.079  0.00  0.00    +0.074 C 
ATOM      8  C   UNL     1      -6.895  -4.978   1.273  0.00  0.00    +0.004 C 
ATOM      9  C   UNL     1      -7.784  -6.019   1.958  0.00  0.00    -0.077 C 
ATOM     10  N   UNL     1      -8.109  -5.572   3.318  0.00  0.00    +0.382 N 
ATOM     11  C   UNL     1      -6.882  -5.476   4.117  0.00  0.00    -0.077 C 
ATOM     12  C   UNL     1      -5.959  -4.414   3.516  0.00  0.00    +0.004 C 
ATOM     13  H   UNL     1      -8.554  -4.667   3.276  0.00  0.00    -0.081 HD
BRANCH  10  14
ATOM     14  C   UNL     1      -9.025  -6.536   3.943  0.00  0.00    -0.069 C 
ATOM     15  C   UNL     1     -10.308  -6.630   3.115  0.00  0.00    -0.015 C 
ATOM     16  C   UNL     1     -11.262  -7.634   3.766  0.00  0.00    +0.002 C 
ATOM     17  C   UNL     1     -11.602  -7.169   5.184  0.00  0.00    -0.014 C 
ATOM     18  C   UNL     1     -10.318  -7.075   6.011  0.00  0.00    +0.002 C 
ATOM     19  C   UNL     1      -9.364  -6.071   5.360  0.00  0.00    -0.015 C 
ATOM     20  C   UNL     1     -12.271  -5.795   5.123  0.00  0.00    +0.007 C 
ENDBRANCH  10  14
ENDBRANCH   4   7
BRANCH   1  21
ATOM     21  C   UNL     1      -1.437  -3.390  -0.009  0.00  0.00    +0.105 C 
ATOM     22  C   UNL     1      -1.518  -3.946  -1.432  0.00  0.00    +0.033 C 
BRANCH  21  26
ATOM     23  C   UNL     1      -0.018   1.503   0.010  0.00  0.00    +0.086 C 
ATOM     24  C   UNL     1       0.002  -0.004   0.002  0.00  0.00    +0.103 A 
ATOM     25  C   UNL     1      -1.078  -0.805   0.003  0.00  0.00    +0.050 A 
ATOM     26  C   UNL     1      -0.601  -2.136  -0.007  0.00  0.00    +0.013 A 
ATOM     27  C   UNL     1       0.742  -2.069  -0.013  0.00  0.00    +0.107 A 
ATOM     28  O   UNL     1       1.102  -0.775  -0.013  0.00  0.00    -0.465 OA
ATOM     29  C   UNL     1       1.684  -3.245  -0.023  0.00  0.00    +0.086 C 
ENDBRANCH  21  26
ENDBRANCH   1  21
TORSDOF 4
