REMARK  Name = ZINC36597535
REMARK  14 active torsions:
REMARK  status: ('A' for Active; 'I' for Inactive)
REMARK    1  A    between atoms: C_1  and  C_2
REMARK    2  A    between atoms: C_5  and  C_7
REMARK    3  A    between atoms: C_7  and  N_8
REMARK    4  A    between atoms: N_8  and  C_9
REMARK    5  A    between atoms: C_9  and  C_11
REMARK    6  A    between atoms: C_9  and  C_21
REMARK    7  A    between atoms: C_13  and  N_18
REMARK    8  A    between atoms: N_23  and  C_24
REMARK    9  A    between atoms: C_24  and  C_25
REMARK   10  A    between atoms: C_24  and  C_26
REMARK   11  A    between atoms: C_24  and  C_27
REMARK   12  A    between atoms: C_28  and  C_30
REMARK   13  A    between atoms: C_31  and  O_37
REMARK   14  A    between atoms: C_35  and  O_36
REMARK                            x       y       z     vdW  Elec       q    Type
REMARK                         _______ _______ _______ _____ _____    ______ ____
ROOT
ATOM      1  N   UNL     1       1.818  -3.600  -1.432  0.00  0.00    -0.274 N 
ATOM      2  C   UNL     1       0.590  -3.683  -1.982  0.00  0.00    +0.255 C 
ATOM      3  O   UNL     1       0.411  -3.319  -3.128  0.00  0.00    -0.270 OA
ENDROOT
BRANCH   2   4
ATOM      4  C   UNL     1      -0.535  -4.213  -1.194  0.00  0.00    +0.119 A 
ATOM      5  C   UNL     1      -1.329  -3.349  -0.426  0.00  0.00    +0.133 A 
ATOM      6  C   UNL     1      -2.385  -3.858   0.311  0.00  0.00    +0.046 A 
ATOM      7  C   UNL     1      -2.658  -5.214   0.292  0.00  0.00    +0.007 A 
ATOM      8  C   UNL     1      -1.881  -6.075  -0.460  0.00  0.00    +0.046 A 
ATOM      9  C   UNL     1      -0.823  -5.586  -1.209  0.00  0.00    +0.133 A 
BRANCH   9  10
ATOM     10  O   UNL     1      -0.066  -6.432  -1.952  0.00  0.00    -0.506 OA
ATOM     11  H   UNL     1       0.693  -6.799  -1.478  0.00  0.00    +0.292 HD
ENDBRANCH   9  10
BRANCH   5  12
ATOM     12  O   UNL     1      -1.064  -2.018  -0.406  0.00  0.00    -0.506 OA
ATOM     13  H   UNL     1      -1.525  -1.515  -1.091  0.00  0.00    +0.292 HD
ENDBRANCH   5  12
ENDBRANCH   2   4
BRANCH   1  14
ATOM     14  C   UNL     1       2.034  -4.038  -0.051  0.00  0.00    +0.183 C 
BRANCH  14  19
ATOM     15  C   UNL     1       3.294   0.081   2.572  0.00  0.00    +0.086 C 
ATOM     16  C   UNL     1       2.485  -1.061   2.014  0.00  0.00    +0.102 A 
ATOM     17  C   UNL     1       1.195  -1.321   2.293  0.00  0.00    +0.045 A 
ATOM     18  C   UNL     1       0.842  -2.476   1.558  0.00  0.00    +0.046 A 
ATOM     19  C   UNL     1       1.937  -2.852   0.873  0.00  0.00    +0.122 A 
ATOM     20  O   UNL     1       2.927  -1.988   1.149  0.00  0.00    -0.463 OA
ENDBRANCH  14  19
ENDBRANCH   1  14
BRANCH   1  21
ATOM     21  C   UNL     1       2.938  -3.073  -2.216  0.00  0.00    +0.194 C 
BRANCH  21  22
ATOM     22  C   UNL     1       4.223  -3.274  -1.456  0.00  0.00    +0.002 A 
ATOM     23  C   UNL     1       4.803  -2.213  -0.785  0.00  0.00    +0.040 A 
ATOM     24  C   UNL     1       5.981  -2.397  -0.088  0.00  0.00    +0.127 A 
ATOM     25  C   UNL     1       6.582  -3.642  -0.060  0.00  0.00    +0.034 A 
ATOM     26  C   UNL     1       6.003  -4.704  -0.730  0.00  0.00    +0.022 A 
ATOM     27  C   UNL     1       4.820  -4.521  -1.423  0.00  0.00    +0.047 A 
ATOM     28 CL   UNL     1       4.088  -5.856  -2.259  0.00  0.00    -0.083 Cl
BRANCH  24  29
ATOM     29  N   UNL     1       6.602  -1.261   0.629  0.00  0.00    +0.056 N 
ATOM     30  O   UNL     1       6.077  -0.172   0.605  0.00  0.00    -0.126 OA
ATOM     31  O   UNL     1       7.633  -1.421   1.240  0.00  0.00    -0.126 OA
ENDBRANCH  24  29
ENDBRANCH  21  22
BRANCH  21  32
ATOM     32  C   UNL     1       2.727  -1.602  -2.466  0.00  0.00    +0.239 C 
ATOM     33  O   UNL     1       1.879  -0.997  -1.845  0.00  0.00    -0.273 OA
ATOM     34  N   UNL     1       3.479  -0.959  -3.381  0.00  0.00    -0.309 N 
ATOM     35  H   UNL     1       4.108  -1.456  -3.928  0.00  0.00    +0.149 HD
BRANCH  34  36
ATOM     36  C   UNL     1       3.349   0.491  -3.549  0.00  0.00    +0.026 C 
ATOM     37  C   UNL     1       3.691   1.190  -2.231  0.00  0.00    +0.031 C 
ATOM     38  C   UNL     1       4.308   0.966  -4.642  0.00  0.00    +0.031 C 
ATOM     39  C   UNL     1       1.911   0.830  -3.948  0.00  0.00    +0.031 C 
ENDBRANCH  34  36
ENDBRANCH  21  32
ENDBRANCH   1  21
TORSDOF 10
