REMARK  Name = ZINC13116179
REMARK  6 active torsions:
REMARK  status: ('A' for Active; 'I' for Inactive)
REMARK    1  A    between atoms: C_4  and  C_7
REMARK    2  A    between atoms: C_7  and  C_32
REMARK    3  A    between atoms: N_10  and  N_14
REMARK    4  A    between atoms: C_15  and  C_17
REMARK    5  A    between atoms: C_17  and  C_18
REMARK    6  A    between atoms: C_18  and  N_19
REMARK                            x       y       z     vdW  Elec       q    Type
REMARK                         _______ _______ _______ _____ _____    ______ ____
ROOT
ATOM      1  C   UNL     1       3.711  -0.707  -0.038  0.00  0.00    +0.165 C 
ATOM      2  C   UNL     1       4.021  -0.967  -1.498  0.00  0.00    +0.272 C 
ATOM      3  O   UNL     1       3.340  -1.577  -2.294  0.00  0.00    -0.270 OA
ATOM      4  N   UNL     1       5.211  -0.377  -1.729  0.00  0.00    -0.137 N 
ATOM      5  C   UNL     1       5.691   0.213  -0.628  0.00  0.00    +0.327 C 
ATOM      6  O   UNL     1       6.749   0.809  -0.588  0.00  0.00    -0.251 OA
ATOM      7  N   UNL     1       4.871   0.072   0.429  0.00  0.00    -0.276 N 
ATOM      8  H   UNL     1       5.016   0.416   1.325  0.00  0.00    +0.152 HD
ENDROOT
BRANCH   1  12
ATOM      9  C   UNL     1       0.116   1.567   0.356  0.00  0.00    +0.000 A 
ATOM     10  C   UNL     1       0.154   0.474  -0.490  0.00  0.00    +0.000 A 
ATOM     11  C   UNL     1       1.317  -0.261  -0.618  0.00  0.00    +0.006 A 
ATOM     12  C   UNL     1       2.443   0.096   0.101  0.00  0.00    -0.011 A 
ATOM     13  C   UNL     1       2.406   1.188   0.946  0.00  0.00    +0.006 A 
ATOM     14  C   UNL     1       1.242   1.923   1.075  0.00  0.00    +0.000 A 
ENDBRANCH   1  12
BRANCH   1  15
ATOM     15  C   UNL     1       3.602  -2.003   0.723  0.00  0.00    -0.011 A 
ATOM     16  C   UNL     1       2.774  -3.009   0.260  0.00  0.00    +0.006 A 
ATOM     17  C   UNL     1       2.674  -4.198   0.958  0.00  0.00    +0.000 A 
ATOM     18  C   UNL     1       3.402  -4.382   2.118  0.00  0.00    +0.000 A 
ATOM     19  C   UNL     1       4.231  -3.377   2.581  0.00  0.00    +0.000 A 
ATOM     20  C   UNL     1       4.334  -2.189   1.881  0.00  0.00    +0.006 A 
ENDBRANCH   1  15
BRANCH   4  21
ATOM     21  N   UNL     1       5.865  -0.382  -2.968  0.00  0.00    -0.224 N 
ATOM     22  C   UNL     1       5.878   0.731  -3.727  0.00  0.00    +0.231 C 
ATOM     23  O   UNL     1       5.324   1.737  -3.338  0.00  0.00    -0.274 OA
ATOM     24  H   UNL     1       6.309  -1.187  -3.279  0.00  0.00    +0.174 HD
BRANCH  22  25
ATOM     25  C   UNL     1       6.582   0.726  -5.060  0.00  0.00    +0.117 C 
BRANCH  25  26
ATOM     26  C   UNL     1       6.448   2.103  -5.713  0.00  0.00    +0.125 C 
BRANCH  26  27
ATOM     27  N   UNL     1       7.131   2.098  -7.008  0.00  0.00    -0.241 N 
ATOM     28  C   UNL     1       8.442   2.424  -7.160  0.00  0.00    +0.226 C 
ATOM     29  O   UNL     1       9.160   2.950  -6.339  0.00  0.00    -0.275 OA
ATOM     30  C   UNL     1       8.820   2.000  -8.547  0.00  0.00    +0.091 C 
ATOM     31  C   UNL     1       9.825   2.842  -9.305  0.00  0.00    +0.040 C 
ATOM     32  C   UNL     1       9.756   2.410 -10.755  0.00  0.00    -0.030 C 
ATOM     33  C   UNL     1       8.766   1.753 -11.277  0.00  0.00    -0.030 C 
ATOM     34  C   UNL     1       7.520   1.341 -10.522  0.00  0.00    +0.040 C 
ATOM     35  C   UNL     1       7.451   2.178  -9.271  0.00  0.00    +0.091 C 
ATOM     36  C   UNL     1       6.519   1.762  -8.173  0.00  0.00    +0.226 C 
ATOM     37  O   UNL     1       5.435   1.233  -8.299  0.00  0.00    -0.275 OA
ENDBRANCH  26  27
ENDBRANCH  25  26
ENDBRANCH  22  25
ENDBRANCH   4  21
TORSDOF 6
