REMARK  Name = ZINC20834467
REMARK  7 active torsions:
REMARK  status: ('A' for Active; 'I' for Inactive)
REMARK    1  A    between atoms: C_6  and  C_7
REMARK    2  A    between atoms: N_8  and  N_9
REMARK    3  A    between atoms: C_12  and  S_15
REMARK    4  A    between atoms: S_15  and  C_16
REMARK    5  A    between atoms: C_16  and  C_17
REMARK    6  A    between atoms: N_19  and  N_20
REMARK    7  A    between atoms: C_21  and  C_23
REMARK                            x       y       z     vdW  Elec       q    Type
REMARK                         _______ _______ _______ _____ _____    ______ ____
ROOT
ATOM      1  N   UNL     1      -2.535   4.102   0.036  0.00  0.00    -0.205 N 
ATOM      2  C   UNL     1      -2.550   5.489   0.044  0.00  0.00    +0.232 A 
ATOM      3  N   UNL     1      -3.664   6.281   0.054  0.00  0.00    -0.186 NA
ATOM      4  C   UNL     1      -3.256   7.585   0.059  0.00  0.00    +0.211 A 
ATOM      5  N   UNL     1      -1.944   7.599   0.053  0.00  0.00    -0.144 NA
ATOM      6  N   UNL     1      -1.497   6.271   0.049  0.00  0.00    -0.245 N 
ATOM      7  H   UNL     1      -3.482   3.542   0.038  0.00  0.00    +0.177 HD
ATOM      8  H   UNL     1      -0.488   5.834   0.049  0.00  0.00    +0.192 HD
ENDROOT
BRANCH   1  10
ATOM      9  C   UNL     1      -1.301   2.116   0.020  0.00  0.00    +0.142 C 
ATOM     10  N   UNL     1      -1.315   3.414   0.027  0.00  0.00    -0.187 NA
BRANCH   9  16
ATOM     11  C   UNL     1       0.002  -0.004   0.002  0.00  0.00    +0.033 A 
ATOM     12  C   UNL     1       1.208  -0.676  -0.013  0.00  0.00    +0.043 A 
ATOM     13  C   UNL     1       2.400   0.030  -0.020  0.00  0.00    +0.044 A 
ATOM     14  C   UNL     1       2.393   1.413  -0.013  0.00  0.00    +0.090 A 
ATOM     15  C   UNL     1       1.192   2.102   0.002  0.00  0.00    +0.206 A 
ATOM     16  C   UNL     1      -0.017   1.392   0.010  0.00  0.00    +0.044 A 
ATOM     17  O   UNL     1       1.184   3.461   0.009  0.00  0.00    -0.286 OA
ATOM     18 CL   UNL     1       3.893   2.287  -0.022  0.00  0.00    -0.080 Cl
ATOM     19 CL   UNL     1       1.231  -2.412  -0.023  0.00  0.00    -0.083 Cl
ENDBRANCH   9  16
ENDBRANCH   1  10
BRANCH   4  20
ATOM     20  S   UNL     1      -4.307   8.999   0.072  0.00  0.00    -0.075 S 
BRANCH  20  21
ATOM     21  C   UNL     1      -3.155  10.401   0.075  0.00  0.00    +0.174 C 
BRANCH  21  22
ATOM     22  C   UNL     1      -3.935  11.691   0.085  0.00  0.00    +0.239 C 
ATOM     23  O   UNL     1      -5.147  11.667   0.090  0.00  0.00    -0.273 OA
ATOM     24  N   UNL     1      -3.284  12.871   0.089  0.00  0.00    -0.233 N 
ATOM     25  H   UNL     1      -2.184  12.893   0.085  0.00  0.00    +0.173 HD
BRANCH  24  26
ATOM     26  N   UNL     1      -4.008  14.070   0.099  0.00  0.00    -0.227 N 
ATOM     27  C   UNL     1      -3.358  15.251   0.103  0.00  0.00    +0.333 C 
ATOM     28  O   UNL     1      -2.145  15.275   0.098  0.00  0.00    -0.264 OA
ATOM     29  H   UNL     1      -5.108  14.049   0.103  0.00  0.00    +0.173 HD
BRANCH  27  30
ATOM     30  C   UNL     1      -4.137  16.541   0.113  0.00  0.00    +0.471 C 
ATOM     31  F   UNL     1      -3.249  17.622   0.116  0.00  0.00    -0.162 F 
ATOM     32  F   UNL     1      -4.948  16.605  -1.025  0.00  0.00    -0.162 F 
ATOM     33  F   UNL     1      -4.938  16.592   1.259  0.00  0.00    -0.162 F 
ENDBRANCH  27  30
ENDBRANCH  24  26
ENDBRANCH  21  22
ENDBRANCH  20  21
ENDBRANCH   4  20
TORSDOF 7
