REMARK  Name = ZINC09517262
REMARK  9 active torsions:
REMARK  status: ('A' for Active; 'I' for Inactive)
REMARK    1  A    between atoms: C_1  and  C_2
REMARK    2  A    between atoms: C_2  and  O_3
REMARK    3  A    between atoms: O_3  and  C_4
REMARK    4  A    between atoms: C_4  and  C_6
REMARK    5  A    between atoms: N_9  and  C_12
REMARK    6  A    between atoms: C_12  and  C_14
REMARK    7  A    between atoms: C_12  and  C_22
REMARK    8  A    between atoms: C_23  and  O_31
REMARK    9  A    between atoms: C_28  and  C_30
REMARK                            x       y       z     vdW  Elec       q    Type
REMARK                         _______ _______ _______ _____ _____    ______ ____
ROOT
ATOM      1  C   UNL     1      -6.177  -4.732  -1.389  0.00  0.00    +0.006 C 
ENDROOT
BRANCH   1   2
ATOM      2  C   UNL     1      -6.861  -4.272  -2.651  0.00  0.00    +0.045 A 
ATOM      3  C   UNL     1      -8.060  -3.697  -2.801  0.00  0.00    +0.225 A 
ATOM      4  N   UNL     1      -8.516  -3.344  -4.048  0.00  0.00    -0.173 N 
ATOM      5  C   UNL     1      -7.701  -3.605  -5.107  0.00  0.00    +0.199 A 
ATOM      6  S   UNL     1      -6.280  -4.344  -4.339  0.00  0.00    -0.050 S 
ATOM      7  N   UNL     1      -8.278  -3.213  -6.210  0.00  0.00    -0.205 NA
ATOM      8  C   UNL     1      -9.469  -2.691  -5.923  0.00  0.00    +0.150 A 
ATOM      9  N   UNL     1      -9.662  -2.745  -4.633  0.00  0.00    -0.147 NA
ATOM     10  C   UNL     1     -10.439  -2.127  -6.928  0.00  0.00    +0.090 C 
BRANCH   3  11
ATOM     11  O   UNL     1      -8.834  -3.459  -1.708  0.00  0.00    -0.492 OA
ATOM     12  H   UNL     1      -9.683  -3.041  -1.911  0.00  0.00    +0.294 HD
ENDBRANCH   3  11
ENDBRANCH   1   2
BRANCH   1  13
ATOM     13  C   UNL     1      -6.012  -6.229  -1.425  0.00  0.00    -0.053 A 
ATOM     14  C   UNL     1      -4.974  -6.792  -2.145  0.00  0.00    +0.005 A 
ATOM     15  C   UNL     1      -4.820  -8.165  -2.179  0.00  0.00    +0.041 A 
ATOM     16  C   UNL     1      -5.705  -8.978  -1.492  0.00  0.00    +0.158 A 
ATOM     17  C   UNL     1      -6.745  -8.414  -0.769  0.00  0.00    +0.159 A 
ATOM     18  C   UNL     1      -6.894  -7.038  -0.733  0.00  0.00    +0.043 A 
ATOM     19  F   UNL     1      -7.610  -9.205  -0.098  0.00  0.00    -0.202 F 
ATOM     20  F   UNL     1      -5.555 -10.321  -1.525  0.00  0.00    -0.202 F 
ENDBRANCH   1  13
BRANCH   1  24
ATOM     21  C   UNL     1      -2.881  -2.427   0.017  0.00  0.00    +0.094 C 
ATOM     22  C   UNL     1      -3.645  -1.967  -1.229  0.00  0.00    -0.004 C 
ATOM     23  C   UNL     1      -5.020  -2.637  -1.253  0.00  0.00    -0.077 C 
ATOM     24  N   UNL     1      -4.857  -4.096  -1.288  0.00  0.00    +0.387 N 
ATOM     25  C   UNL     1      -4.189  -4.551  -0.063  0.00  0.00    -0.077 C 
ATOM     26  C   UNL     1      -2.782  -3.955   0.007  0.00  0.00    -0.004 C 
ATOM     27  H   UNL     1      -4.300  -4.352  -2.089  0.00  0.00    -0.080 HD
BRANCH  21  28
ATOM     28  C   UNL     1      -1.496  -1.832   0.006  0.00  0.00    +0.310 C 
ATOM     29  O   UNL     1      -0.528  -2.555  -0.007  0.00  0.00    -0.251 OA
BRANCH  28  30
ATOM     30  O   UNL     1      -1.339  -0.499   0.012  0.00  0.00    -0.465 OA
BRANCH  30  32
ATOM     31  C   UNL     1      -0.019   1.526   0.010  0.00  0.00    +0.048 C 
ATOM     32  C   UNL     1       0.002  -0.004   0.002  0.00  0.00    +0.229 C 
ENDBRANCH  30  32
ENDBRANCH  28  30
ENDBRANCH  21  28
ENDBRANCH   1  24
TORSDOF 7
