REMARK  Name = ZINC39964325
REMARK  8 active torsions:
REMARK  status: ('A' for Active; 'I' for Inactive)
REMARK    1  A    between atoms: C_1  and  C_2
REMARK    2  A    between atoms: C_2  and  C_3
REMARK    3  A    between atoms: C_6  and  C_30
REMARK    4  A    between atoms: C_9  and  C_11
REMARK    5  A    between atoms: C_13  and  C_24
REMARK    6  A    between atoms: C_33  and  N_36
REMARK    7  A    between atoms: N_36  and  C_37
REMARK    8  A    between atoms: N_36  and  C_38
REMARK                            x       y       z     vdW  Elec       q    Type
REMARK                         _______ _______ _______ _____ _____    ______ ____
ROOT
ATOM      1  C   UNL     1       0.968  -4.938   1.446  0.00  0.00    +0.152 C 
ATOM      2  C   UNL     1       0.529  -4.594   0.035  0.00  0.00    -0.014 C 
ATOM      3  C   UNL     1      -0.773  -4.948  -0.329  0.00  0.00    +0.002 A 
ATOM      4  C   UNL     1      -1.262  -4.665  -1.621  0.00  0.00    +0.030 A 
ATOM      5  C   UNL     1      -2.534  -5.022  -1.950  0.00  0.00    +0.042 A 
ATOM      6  C   UNL     1      -3.366  -5.662  -1.034  0.00  0.00    +0.022 A 
ATOM      7  C   UNL     1      -2.950  -5.962   0.228  0.00  0.00    +0.025 A 
ATOM      8  C   UNL     1      -1.648  -5.623   0.636  0.00  0.00    +0.041 A 
ATOM      9  N   UNL     1      -1.241  -5.918   1.876  0.00  0.00    -0.284 N 
ATOM     10  C   UNL     1      -0.039  -5.633   2.334  0.00  0.00    +0.230 C 
ATOM     11  O   UNL     1       0.262  -5.932   3.475  0.00  0.00    -0.274 OA
ATOM     12 CL   UNL     1      -3.131  -4.672  -3.542  0.00  0.00    -0.084 Cl
ATOM     13  H   UNL     1      -1.865  -6.364   2.469  0.00  0.00    +0.155 HD
ENDROOT
BRANCH   1  19
ATOM     14  C   UNL     1       1.615  -0.149   2.194  0.00  0.00    +0.235 C 
ATOM     15  O   UNL     1       2.061   0.660   2.980  0.00  0.00    -0.274 OA
ATOM     16  N   UNL     1       1.679  -1.466   2.473  0.00  0.00    -0.185 N 
ATOM     17  C   UNL     1       2.255  -2.058   3.692  0.00  0.00    +0.136 C 
ATOM     18  C   UNL     1       2.060  -3.572   3.475  0.00  0.00    +0.083 C 
ATOM     19  C   UNL     1       1.381  -3.659   2.127  0.00  0.00    +0.055 C 
ATOM     20  N   UNL     1       1.206  -2.492   1.658  0.00  0.00    -0.185 NA
BRANCH  17  21
ATOM     21  C   UNL     1       3.719  -1.718   3.808  0.00  0.00    -0.025 A 
ATOM     22  C   UNL     1       4.513  -1.691   2.676  0.00  0.00    +0.007 A 
ATOM     23  C   UNL     1       5.854  -1.380   2.779  0.00  0.00    +0.023 A 
ATOM     24  C   UNL     1       6.406  -1.093   4.021  0.00  0.00    +0.029 A 
ATOM     25  C   UNL     1       5.605  -1.120   5.156  0.00  0.00    +0.023 A 
ATOM     26  C   UNL     1       4.263  -1.427   5.045  0.00  0.00    +0.007 A 
BRANCH  24  27
ATOM     27  N   UNL     1       7.762  -0.778   4.129  0.00  0.00    -0.336 N 
ATOM     28  C   UNL     1       8.578  -0.630   2.921  0.00  0.00    +0.129 C 
ATOM     29  C   UNL     1       8.369  -0.596   5.450  0.00  0.00    +0.129 C 
ENDBRANCH  24  27
ENDBRANCH  17  21
BRANCH  14  31
ATOM     30  C   UNL     1       1.045   1.847   0.836  0.00  0.00    +0.013 C 
ATOM     31  C   UNL     1       0.990   0.319   0.905  0.00  0.00    +0.094 C 
ENDBRANCH  14  31
ENDBRANCH   1  19
BRANCH   2  32
ATOM     32  C   UNL     1       1.401  -3.941  -0.873  0.00  0.00    -0.020 A 
ATOM     33  C   UNL     1       1.018  -2.731  -1.474  0.00  0.00    +0.008 A 
ATOM     34  C   UNL     1       1.871  -2.105  -2.354  0.00  0.00    +0.001 A 
ATOM     35  C   UNL     1       3.104  -2.665  -2.648  0.00  0.00    +0.000 A 
ATOM     36  C   UNL     1       3.491  -3.858  -2.060  0.00  0.00    +0.001 A 
ATOM     37  C   UNL     1       2.655  -4.497  -1.173  0.00  0.00    +0.008 A 
ENDBRANCH   2  32
TORSDOF 5
