REMARK  Name = ZINC35486255
REMARK  11 active torsions:
REMARK  status: ('A' for Active; 'I' for Inactive)
REMARK    1  A    between atoms: C_1  and  C_2
REMARK    2  A    between atoms: C_2  and  N_3
REMARK    3  A    between atoms: N_3  and  C_4
REMARK    4  A    between atoms: N_3  and  C_6
REMARK    5  A    between atoms: C_4  and  C_5
REMARK    6  A    between atoms: C_6  and  C_7
REMARK    7  A    between atoms: C_7  and  N_8
REMARK    8  A    between atoms: C_9  and  C_25
REMARK    9  A    between atoms: C_28  and  C_31
REMARK   10  A    between atoms: C_31  and  C_32
REMARK   11  A    between atoms: C_31  and  C_33
REMARK                            x       y       z     vdW  Elec       q    Type
REMARK                         _______ _______ _______ _____ _____    ______ ____
ROOT
ATOM      1  N   UNL     1       2.014  -3.380  -2.845  0.00  0.00    -0.285 N 
ATOM      2  C   UNL     1       3.005  -4.263  -2.209  0.00  0.00    +0.144 C 
ATOM      3  C   UNL     1       2.698  -5.640  -2.700  0.00  0.00    +0.072 A 
ATOM      4  C   UNL     1       3.341  -6.929  -2.426  0.00  0.00    +0.199 A 
ATOM      5  O   UNL     1       4.186  -7.083  -1.561  0.00  0.00    -0.287 OA
ATOM      6  C   UNL     1       2.865  -8.029  -3.302  0.00  0.00    +0.065 A 
ATOM      7  C   UNL     1       3.516  -9.262  -3.304  0.00  0.00    +0.030 A 
ATOM      8  C   UNL     1       3.063 -10.270  -4.127  0.00  0.00    +0.019 A 
ATOM      9  C   UNL     1       1.965 -10.055  -4.950  0.00  0.00    +0.019 A 
ATOM     10  C   UNL     1       1.314  -8.843  -4.955  0.00  0.00    +0.048 A 
ATOM     11  C   UNL     1       1.752  -7.808  -4.129  0.00  0.00    +0.140 A 
ATOM     12  O   UNL     1       1.087  -6.629  -4.147  0.00  0.00    -0.450 OA
ATOM     13  C   UNL     1       1.623  -5.553  -3.538  0.00  0.00    +0.199 A 
ATOM     14  C   UNL     1       1.209  -4.141  -3.614  0.00  0.00    +0.283 C 
ATOM     15  O   UNL     1       0.279  -3.723  -4.276  0.00  0.00    -0.267 OA
ATOM     16 BR   UNL     1       3.938 -11.946  -4.137  0.00  0.00    -0.050 Br
ENDROOT
BRANCH   2  17
ATOM     17  C   UNL     1       2.869  -4.201  -0.710  0.00  0.00    -0.022 A 
ATOM     18  C   UNL     1       1.615  -4.160  -0.130  0.00  0.00    +0.006 A 
ATOM     19  C   UNL     1       1.490  -4.103   1.245  0.00  0.00    +0.004 A 
ATOM     20  C   UNL     1       2.620  -4.088   2.042  0.00  0.00    -0.045 A 
ATOM     21  C   UNL     1       3.875  -4.131   1.462  0.00  0.00    +0.004 A 
ATOM     22  C   UNL     1       3.999  -4.192   0.087  0.00  0.00    +0.006 A 
BRANCH  20  23
ATOM     23  C   UNL     1       2.485  -4.026   3.541  0.00  0.00    +0.013 C 
ATOM     24  C   UNL     1       3.138  -5.261   4.165  0.00  0.00    +0.012 C 
ATOM     25  C   UNL     1       3.176  -2.765   4.064  0.00  0.00    +0.012 C 
ENDBRANCH  20  23
ENDBRANCH   2  17
BRANCH   1  26
ATOM     26  C   UNL     1       1.916  -1.929  -2.669  0.00  0.00    +0.090 C 
BRANCH  26  27
ATOM     27  C   UNL     1       0.995  -1.619  -1.487  0.00  0.00    -0.060 C 
BRANCH  27  28
ATOM     28  N   UNL     1       0.790  -0.168  -1.393  0.00  0.00    +0.380 N 
ATOM     29  H   UNL     1       1.684   0.296  -1.350  0.00  0.00    -0.082 HD
BRANCH  28  31
ATOM     30  C   UNL     1      -0.054   1.825  -2.538  0.00  0.00    -0.017 C 
ATOM     31  C   UNL     1       0.052   0.300  -2.574  0.00  0.00    -0.082 C 
ENDBRANCH  28  31
BRANCH  28  32
ATOM     32  C   UNL     1       0.019   0.140  -0.181  0.00  0.00    -0.082 C 
ATOM     33  C   UNL     1       0.850  -0.212   1.055  0.00  0.00    -0.017 C 
ENDBRANCH  28  32
ENDBRANCH  27  28
ENDBRANCH  26  27
ENDBRANCH   1  26
TORSDOF 7
