REMARK  Name = ZINC39652805
REMARK  10 active torsions:
REMARK  status: ('A' for Active; 'I' for Inactive)
REMARK    1  A    between atoms: C_1  and  C_2
REMARK    2  A    between atoms: C_2  and  O_3
REMARK    3  A    between atoms: O_3  and  C_4
REMARK    4  A    between atoms: C_9  and  C_10
REMARK    5  A    between atoms: C_10  and  C_11
REMARK    6  A    between atoms: C_11  and  N_12
REMARK    7  A    between atoms: C_13  and  C_15
REMARK    8  A    between atoms: C_26  and  C_28
REMARK    9  A    between atoms: C_28  and  C_29
REMARK   10  A    between atoms: C_33  and  C_35
REMARK                            x       y       z     vdW  Elec       q    Type
REMARK                         _______ _______ _______ _____ _____    ______ ____
ROOT
ATOM      1  C   UNL     1       5.772   1.369  -4.949  0.00  0.00    +0.100 C 
ATOM      2  C   UNL     1       4.861   2.603  -5.131  0.00  0.00    +0.121 C 
ATOM      3  N   UNL     1       5.445   3.635  -4.242  0.00  0.00    -0.300 N 
ATOM      4  C   UNL     1       6.910   3.465  -4.393  0.00  0.00    +0.115 C 
ATOM      5  C   UNL     1       7.117   1.939  -4.469  0.00  0.00    -0.004 C 
ATOM      6  C   UNL     1       8.221   1.605  -5.468  0.00  0.00    -0.010 C 
ATOM      7  C   UNL     1       9.558   2.131  -4.940  0.00  0.00    -0.082 C 
ATOM      8  N   UNL     1       9.848   1.518  -3.638  0.00  0.00    +0.379 N 
ATOM      9  C   UNL     1       8.832   1.921  -2.658  0.00  0.00    -0.082 C 
ATOM     10  C   UNL     1       7.463   1.386  -3.090  0.00  0.00    -0.010 C 
ATOM     11  C   UNL     1       4.792   4.526  -3.470  0.00  0.00    +0.220 C 
ATOM     12  O   UNL     1       5.417   5.314  -2.792  0.00  0.00    -0.275 OA
ATOM     13  H   UNL     1       9.843   0.514  -3.732  0.00  0.00    -0.086 HD
ATOM     14  H   UNL     1      10.757   1.819  -3.321  0.00  0.00    -0.086 HD
ENDROOT
BRANCH   1  16
ATOM     15  N   UNL     1       5.451  -0.882  -3.977  0.00  0.00    -0.315 N 
ATOM     16  C   UNL     1       5.196   0.439  -3.913  0.00  0.00    +0.218 C 
ATOM     17  O   UNL     1       4.503   0.880  -3.021  0.00  0.00    -0.275 OA
ATOM     18  H   UNL     1       6.006  -1.235  -4.690  0.00  0.00    +0.149 HD
BRANCH  15  19
ATOM     19  C   UNL     1       4.891  -1.786  -2.969  0.00  0.00    +0.109 C 
BRANCH  19  20
ATOM     20  C   UNL     1       5.330  -3.221  -3.271  0.00  0.00    +0.057 C 
BRANCH  20  26
ATOM     21  C   UNL     1       3.470  -4.653  -2.389  0.00  0.00    +0.124 A 
ATOM     22  C   UNL     1       2.944  -5.513  -1.435  0.00  0.00    +0.046 A 
ATOM     23  C   UNL     1       3.698  -5.863  -0.332  0.00  0.00    +0.004 A 
ATOM     24  C   UNL     1       4.976  -5.357  -0.178  0.00  0.00    +0.000 A 
ATOM     25  C   UNL     1       5.502  -4.500  -1.126  0.00  0.00    +0.007 A 
ATOM     26  C   UNL     1       4.754  -4.151  -2.234  0.00  0.00    -0.004 A 
BRANCH  21  27
ATOM     27  O   UNL     1       2.731  -4.307  -3.475  0.00  0.00    -0.492 OA
BRANCH  27  29
ATOM     28  C   UNL     1       0.743  -4.362  -4.849  0.00  0.00    +0.048 C 
ATOM     29  C   UNL     1       1.417  -4.862  -3.569  0.00  0.00    +0.225 C 
ENDBRANCH  27  29
ENDBRANCH  21  27
ENDBRANCH  20  26
ENDBRANCH  19  20
ENDBRANCH  15  19
ENDBRANCH   1  16
BRANCH  11  30
ATOM     30  C   UNL     1       3.285   4.544  -3.450  0.00  0.00    +0.131 C 
BRANCH  30  31
ATOM     31  C   UNL     1       2.808   5.625  -2.515  0.00  0.00    -0.038 A 
ATOM     32  C   UNL     1       2.598   5.341  -1.179  0.00  0.00    +0.004 A 
ATOM     33  C   UNL     1       2.160   6.332  -0.321  0.00  0.00    +0.001 A 
ATOM     34  C   UNL     1       1.934   7.609  -0.800  0.00  0.00    +0.003 A 
ATOM     35  C   UNL     1       2.145   7.895  -2.135  0.00  0.00    -0.050 A 
ATOM     36  C   UNL     1       2.587   6.904  -2.992  0.00  0.00    +0.007 A 
ATOM     37  C   UNL     1       1.897   9.287  -2.657  0.00  0.00    +0.044 C 
ENDBRANCH  30  31
ENDBRANCH  11  30
TORSDOF 8
