REMARK  Name = ZINC65250083
REMARK  6 active torsions:
REMARK  status: ('A' for Active; 'I' for Inactive)
REMARK    1  A    between atoms: C_6  and  C_7
REMARK    2  A    between atoms: C_7  and  N_8
REMARK    3  A    between atoms: C_9  and  C_11
REMARK    4  A    between atoms: C_11  and  N_12
REMARK    5  A    between atoms: C_17  and  C_19
REMARK    6  A    between atoms: C_21  and  C_24
REMARK                            x       y       z     vdW  Elec       q    Type
REMARK                         _______ _______ _______ _____ _____    ______ ____
ROOT
ATOM      1  N   UNL     1      -4.575  -2.694  -3.017  0.00  0.00    +0.393 N 
ATOM      2  C   UNL     1      -5.628  -1.871  -2.409  0.00  0.00    -0.077 C 
ATOM      3  C   UNL     1      -6.925  -2.678  -2.325  0.00  0.00    -0.019 C 
ATOM      4  C   UNL     1      -7.352  -3.097  -3.734  0.00  0.00    -0.003 C 
ATOM      5  C   UNL     1      -6.216  -3.891  -4.386  0.00  0.00    -0.006 C 
ATOM      6  C   UNL     1      -4.945  -3.039  -4.395  0.00  0.00    +0.023 C 
ATOM      7  H   UNL     1      -4.458  -3.539  -2.479  0.00  0.00    -0.080 HD
ENDROOT
BRANCH   6   8
ATOM      8  C   UNL     1      -3.825  -3.817  -5.036  0.00  0.00    +0.214 A 
ATOM      9  N   UNL     1      -3.347  -3.618  -6.231  0.00  0.00    -0.193 NA
ATOM     10  C   UNL     1      -2.354  -4.490  -6.481  0.00  0.00    +0.202 A 
ATOM     11  N   UNL     1      -2.195  -5.256  -5.430  0.00  0.00    -0.056 NA
ATOM     12  O   UNL     1      -3.148  -4.824  -4.470  0.00  0.00    -0.339 OA
BRANCH  10  13
ATOM     13  C   UNL     1      -1.569  -4.571  -7.738  0.00  0.00    +0.023 A 
ATOM     14  C   UNL     1      -1.834  -3.690  -8.785  0.00  0.00    +0.014 A 
ATOM     15  C   UNL     1      -1.101  -3.768  -9.951  0.00  0.00    +0.039 A 
ATOM     16  C   UNL     1      -0.104  -4.721 -10.083  0.00  0.00    +0.123 A 
ATOM     17  C   UNL     1       0.163  -5.599  -9.044  0.00  0.00    +0.039 A 
ATOM     18  C   UNL     1      -0.561  -5.524  -7.872  0.00  0.00    +0.014 A 
ATOM     19  F   UNL     1       0.611  -4.794 -11.227  0.00  0.00    -0.205 F 
ENDBRANCH  10  13
ENDBRANCH   6   8
BRANCH   1  20
ATOM     20  C   UNL     1      -3.312  -1.942  -3.025  0.00  0.00    +0.020 C 
BRANCH  20  22
ATOM     21  N   UNL     1      -1.726  -1.017  -1.368  0.00  0.00    -0.313 N 
ATOM     22  C   UNL     1      -2.867  -1.693  -1.607  0.00  0.00    +0.197 C 
ATOM     23  O   UNL     1      -3.535  -2.101  -0.681  0.00  0.00    -0.278 OA
ATOM     24  H   UNL     1      -1.191  -0.691  -2.109  0.00  0.00    +0.149 HD
BRANCH  21  25
ATOM     25  C   UNL     1      -1.293  -0.775   0.010  0.00  0.00    +0.139 C 
BRANCH  25  31
ATOM     26  C   UNL     1      -0.017   1.378   0.010  0.00  0.00    +0.008 A 
ATOM     27  C   UNL     1       1.170   2.086   0.002  0.00  0.00    +0.038 A 
ATOM     28  C   UNL     1       2.379   1.410  -0.013  0.00  0.00    +0.123 A 
ATOM     29  C   UNL     1       2.396   0.026  -0.021  0.00  0.00    +0.038 A 
ATOM     30  C   UNL     1       1.208  -0.680  -0.013  0.00  0.00    +0.008 A 
ATOM     31  C   UNL     1       0.002  -0.004   0.002  0.00  0.00    -0.030 A 
ATOM     32  F   UNL     1       3.540   2.101  -0.021  0.00  0.00    -0.205 F 
ENDBRANCH  25  31
ENDBRANCH  21  25
ENDBRANCH  20  22
ENDBRANCH   1  20
TORSDOF 6
