REMARK  Name = ZINC30588909
REMARK  10 active torsions:
REMARK  status: ('A' for Active; 'I' for Inactive)
REMARK    1  A    between atoms: C_1  and  C_2
REMARK    2  A    between atoms: C_2  and  N_3
REMARK    3  A    between atoms: N_3  and  C_4
REMARK    4  A    between atoms: N_3  and  S_6
REMARK    5  A    between atoms: C_4  and  C_5
REMARK    6  A    between atoms: S_6  and  C_9
REMARK    7  A    between atoms: C_13  and  N_15
REMARK    8  A    between atoms: C_16  and  C_18
REMARK    9  A    between atoms: C_18  and  N_19
REMARK   10  A    between atoms: C_27  and  C_29
REMARK                            x       y       z     vdW  Elec       q    Type
REMARK                         _______ _______ _______ _____ _____    ______ ____
ROOT
ATOM      1  N   UNL     1       1.289  -0.376  -3.593  0.00  0.00    -0.287 N 
ATOM      2  C   UNL     1       0.438  -0.018  -2.611  0.00  0.00    +0.201 C 
ATOM      3  O   UNL     1      -0.056  -0.866  -1.899  0.00  0.00    -0.278 OA
ATOM      4  H   UNL     1       1.805   0.397  -4.182  0.00  0.00    +0.155 HD
ENDROOT
BRANCH   1   9
ATOM      5  C   UNL     1       1.758  -3.989  -3.099  0.00  0.00    +0.107 A 
ATOM      6  C   UNL     1       1.963  -4.407  -4.401  0.00  0.00    +0.028 A 
ATOM      7  C   UNL     1       1.946  -3.489  -5.435  0.00  0.00    +0.004 A 
ATOM      8  C   UNL     1       1.723  -2.152  -5.171  0.00  0.00    +0.023 A 
ATOM      9  C   UNL     1       1.516  -1.729  -3.865  0.00  0.00    +0.035 A 
ATOM     10  C   UNL     1       1.539  -2.652  -2.827  0.00  0.00    +0.051 A 
BRANCH   5  11
ATOM     11  S   UNL     1       1.781  -5.162  -1.784  0.00  0.00    +0.061 S 
ATOM     12  O   UNL     1       1.021  -4.598  -0.724  0.00  0.00    -0.153 OA
ATOM     13  O   UNL     1       1.468  -6.423  -2.359  0.00  0.00    -0.153 OA
BRANCH  11  14
ATOM     14  N   UNL     1       3.344  -5.262  -1.245  0.00  0.00    -0.177 NA
BRANCH  14  16
ATOM     15  C   UNL     1       3.683  -5.096   1.171  0.00  0.00    +0.022 C 
ATOM     16  C   UNL     1       3.807  -4.377  -0.174  0.00  0.00    +0.106 C 
ENDBRANCH  14  16
BRANCH  14  17
ATOM     17  C   UNL     1       4.263  -6.236  -1.840  0.00  0.00    +0.106 C 
ATOM     18  C   UNL     1       5.074  -5.561  -2.948  0.00  0.00    +0.022 C 
ENDBRANCH  14  17
ENDBRANCH  11  14
ENDBRANCH   5  11
ENDBRANCH   1   9
BRANCH   2  19
ATOM     19  C   UNL     1       0.102   1.435  -2.397  0.00  0.00    +0.020 C 
BRANCH  19  20
ATOM     20  N   UNL     1      -0.946   1.550  -1.374  0.00  0.00    +0.395 N 
ATOM     21  C   UNL     1      -2.210   0.969  -1.849  0.00  0.00    -0.055 C 
ATOM     22  C   UNL     1      -3.158   0.753  -0.663  0.00  0.00    +0.103 C 
ATOM     23  N   UNL     1      -3.225   2.000   0.106  0.00  0.00    -0.353 N 
ATOM     24  C   UNL     1      -4.151   2.366   1.029  0.00  0.00    +0.086 A 
ATOM     25  C   UNL     1      -3.831   3.597   1.482  0.00  0.00    +0.019 A 
ATOM     26  C   UNL     1      -2.658   4.004   0.811  0.00  0.00    +0.021 A 
ATOM     27  C   UNL     1      -2.309   3.011  -0.021  0.00  0.00    +0.009 A 
ATOM     28  C   UNL     1      -1.128   2.952  -0.959  0.00  0.00    +0.011 C 
ATOM     29  H   UNL     1      -0.623   0.974  -0.494  0.00  0.00    -0.080 HD
BRANCH  28  30
ATOM     30  C   UNL     1       0.111   3.438  -0.252  0.00  0.00    -0.055 A 
ATOM     31  C   UNL     1       0.776   2.605   0.629  0.00  0.00    +0.002 A 
ATOM     32  C   UNL     1       1.914   3.049   1.274  0.00  0.00    +0.000 A 
ATOM     33  C   UNL     1       2.383   4.330   1.046  0.00  0.00    +0.000 A 
ATOM     34  C   UNL     1       1.715   5.164   0.170  0.00  0.00    +0.000 A 
ATOM     35  C   UNL     1       0.579   4.718  -0.479  0.00  0.00    +0.002 A 
ENDBRANCH  28  30
ENDBRANCH  19  20
ENDBRANCH   2  19
TORSDOF 8
