REMARK  Name = ZINC64816044
REMARK  8 active torsions:
REMARK  status: ('A' for Active; 'I' for Inactive)
REMARK    1  A    between atoms: C_1  and  C_2
REMARK    2  A    between atoms: C_5  and  C_35
REMARK    3  A    between atoms: C_6  and  N_8
REMARK    4  A    between atoms: C_13  and  C_30
REMARK    5  A    between atoms: C_17  and  C_18
REMARK    6  A    between atoms: C_17  and  C_19
REMARK    7  A    between atoms: N_21  and  C_22
REMARK    8  A    between atoms: C_22  and  C_23
REMARK                            x       y       z     vdW  Elec       q    Type
REMARK                         _______ _______ _______ _____ _____    ______ ____
ROOT
ATOM      1  N   UNL     1       0.052  -2.797   2.392  0.00  0.00    -0.250 N 
ATOM      2  C   UNL     1       1.241  -3.111   2.960  0.00  0.00    +0.270 C 
ATOM      3  O   UNL     1       2.288  -2.634   2.563  0.00  0.00    -0.268 OA
ATOM      4  C   UNL     1       1.198  -4.062   4.082  0.00  0.00    +0.125 A 
ATOM      5  C   UNL     1       2.156  -4.448   4.973  0.00  0.00    +0.065 A 
ATOM      6  C   UNL     1       1.511  -5.372   5.826  0.00  0.00    +0.128 A 
ATOM      7  N   UNL     1       0.259  -5.487   5.416  0.00  0.00    -0.167 NA
ATOM      8  N   UNL     1       0.046  -4.749   4.397  0.00  0.00    -0.256 N 
ATOM      9  C   UNL     1      -1.176  -4.589   3.599  0.00  0.00    +0.179 C 
ATOM     10  C   UNL     1      -1.213  -3.175   3.012  0.00  0.00    +0.135 C 
ATOM     11  C   UNL     1      -2.320  -3.106   1.958  0.00  0.00    +0.044 C 
ENDROOT
BRANCH   1  17
ATOM     12  C   UNL     1      -0.018   1.503   0.010  0.00  0.00    +0.044 C 
ATOM     13  C   UNL     1       0.002  -0.004   0.002  0.00  0.00    -0.049 A 
ATOM     14  C   UNL     1       0.006  -0.688  -1.200  0.00  0.00    +0.004 A 
ATOM     15  C   UNL     1       0.025  -2.071  -1.212  0.00  0.00    +0.005 A 
ATOM     16  C   UNL     1       0.041  -2.773  -0.023  0.00  0.00    -0.029 A 
ATOM     17  C   UNL     1       0.037  -2.089   1.186  0.00  0.00    +0.041 A 
ATOM     18  C   UNL     1       0.023  -0.700   1.194  0.00  0.00    +0.027 A 
ATOM     19  C   UNL     1       0.061  -4.280  -0.037  0.00  0.00    +0.045 C 
ENDBRANCH   1  17
BRANCH   6  20
ATOM     20  C   UNL     1       2.124  -6.081   6.970  0.00  0.00    +0.155 A 
ATOM     21  C   UNL     1       1.499  -6.972   7.783  0.00  0.00    +0.051 A 
ATOM     22  C   UNL     1       2.454  -7.396   8.730  0.00  0.00    +0.042 A 
ATOM     23  C   UNL     1       3.602  -6.749   8.450  0.00  0.00    +0.196 A 
ATOM     24  O   UNL     1       3.400  -5.960   7.382  0.00  0.00    -0.461 OA
ENDBRANCH   6  20
BRANCH  10  25
ATOM     25  C   UNL     1      -1.529  -2.194   4.111  0.00  0.00    +0.239 C 
ATOM     26  O   UNL     1      -2.679  -1.880   4.332  0.00  0.00    -0.273 OA
ATOM     27  N   UNL     1      -0.532  -1.665   4.849  0.00  0.00    -0.309 N 
ATOM     28  H   UNL     1       0.388  -1.917   4.673  0.00  0.00    +0.149 HD
BRANCH  27  29
ATOM     29  C   UNL     1      -0.839  -0.712   5.918  0.00  0.00    +0.139 C 
BRANCH  29  30
ATOM     30  C   UNL     1       0.440  -0.275   6.585  0.00  0.00    -0.030 A 
ATOM     31  C   UNL     1       0.932  -0.983   7.665  0.00  0.00    +0.006 A 
ATOM     32  C   UNL     1       2.105  -0.583   8.277  0.00  0.00    +0.020 A 
ATOM     33  C   UNL     1       2.787   0.525   7.807  0.00  0.00    +0.041 A 
ATOM     34  C   UNL     1       2.294   1.233   6.725  0.00  0.00    +0.020 A 
ATOM     35  C   UNL     1       1.124   0.829   6.111  0.00  0.00    +0.006 A 
ATOM     36 CL   UNL     1       4.261   1.028   8.575  0.00  0.00    -0.084 Cl
ENDBRANCH  29  30
ENDBRANCH  27  29
ENDBRANCH  10  25
TORSDOF 5
