REMARK  Name = ZINC03521475
REMARK  6 active torsions:
REMARK  status: ('A' for Active; 'I' for Inactive)
REMARK    1  A    between atoms: C_1  and  C_2
REMARK    2  A    between atoms: C_7  and  N_8
REMARK    3  A    between atoms: C_18  and  S_19
REMARK    4  A    between atoms: S_19  and  C_20
REMARK    5  A    between atoms: C_20  and  C_22
REMARK    6  A    between atoms: C_20  and  C_23
REMARK                            x       y       z     vdW  Elec       q    Type
REMARK                         _______ _______ _______ _____ _____    ______ ____
ROOT
ATOM      1  N   UNL     1       2.357   3.889   0.000  0.00  0.00    -0.255 N 
ATOM      2  C   UNL     1       2.941   4.233   1.172  0.00  0.00    +0.267 A 
ATOM      3  O   UNL     1       2.441   3.929   2.239  0.00  0.00    -0.267 OA
ATOM      4  C   UNL     1       4.203   4.982   1.109  0.00  0.00    +0.065 A 
ATOM      5  C   UNL     1       4.883   5.377   2.259  0.00  0.00    +0.015 A 
ATOM      6  C   UNL     1       6.052   6.078   2.144  0.00  0.00    +0.001 A 
ATOM      7  C   UNL     1       6.566   6.399   0.894  0.00  0.00    +0.002 A 
ATOM      8  C   UNL     1       5.920   6.024  -0.250  0.00  0.00    +0.028 A 
ATOM      9  C   UNL     1       4.723   5.306  -0.165  0.00  0.00    +0.079 A 
ATOM     10  N   UNL     1       4.050   4.915  -1.272  0.00  0.00    -0.223 NA
ATOM     11  C   UNL     1       2.929   4.244  -1.190  0.00  0.00    +0.177 A 
ENDROOT
BRANCH   1  18
ATOM     12  C   UNL     1      -0.085   5.351   0.031  0.00  0.00    +0.046 C 
ATOM     13  C   UNL     1      -0.059   3.845   0.022  0.00  0.00    -0.026 A 
ATOM     14  C   UNL     1      -1.243   3.133   0.030  0.00  0.00    +0.005 A 
ATOM     15  C   UNL     1      -1.220   1.750   0.017  0.00  0.00    +0.000 A 
ATOM     16  C   UNL     1      -0.013   1.076   0.008  0.00  0.00    +0.002 A 
ATOM     17  C   UNL     1       1.174   1.782   0.000  0.00  0.00    +0.026 A 
ATOM     18  C   UNL     1       1.155   3.170   0.008  0.00  0.00    +0.055 A 
ENDBRANCH   1  18
BRANCH  11  19
ATOM     19  S   UNL     1       2.119   3.775  -2.684  0.00  0.00    -0.075 S 
BRANCH  19  20
ATOM     20  C   UNL     1       3.267   4.474  -3.896  0.00  0.00    +0.137 C 
ATOM     21  C   UNL     1       4.614   3.755  -3.797  0.00  0.00    +0.029 C 
BRANCH  20  22
ATOM     22  C   UNL     1       2.703   4.295  -5.282  0.00  0.00    +0.233 C 
ATOM     23  O   UNL     1       1.848   3.460  -5.486  0.00  0.00    -0.274 OA
ATOM     24  N   UNL     1       3.150   5.063  -6.296  0.00  0.00    -0.239 N 
ATOM     25  C   UNL     1       2.646   4.903  -7.535  0.00  0.00    +0.303 C 
ATOM     26  O   UNL     1       1.789   4.066  -7.740  0.00  0.00    -0.253 OA
ATOM     27  N   UNL     1       3.092   5.672  -8.549  0.00  0.00    -0.313 N 
ATOM     28  H   UNL     1       3.834   5.731  -6.133  0.00  0.00    +0.159 HD
ATOM     29  H   UNL     1       3.776   6.340  -8.386  0.00  0.00    +0.146 HD
ATOM     30  H   UNL     1       2.730   5.557  -9.441  0.00  0.00    +0.146 HD
ENDBRANCH  20  22
ENDBRANCH  19  20
ENDBRANCH  11  19
TORSDOF 4
