REMARK  Name = ZINC35778907
REMARK  16 active torsions:
REMARK  status: ('A' for Active; 'I' for Inactive)
REMARK    1  A    between atoms: C_1  and  C_2
REMARK    2  A    between atoms: C_5  and  O_9
REMARK    3  A    between atoms: C_6  and  C_8
REMARK    4  A    between atoms: O_9  and  C_10
REMARK    5  A    between atoms: C_10  and  C_11
REMARK    6  A    between atoms: C_21  and  C_23
REMARK    7  A    between atoms: C_23  and  N_24
REMARK    8  A    between atoms: N_24  and  C_25
REMARK    9  A    between atoms: N_24  and  C_28
REMARK   10  A    between atoms: C_25  and  C_26
REMARK   11  A    between atoms: C_28  and  C_29
REMARK   12  A    between atoms: C_29  and  C_31
REMARK   13  A    between atoms: C_29  and  O_40
REMARK   14  A    between atoms: C_31  and  O_32
REMARK   15  A    between atoms: O_32  and  C_33
REMARK   16  A    between atoms: C_33  and  C_34
REMARK                            x       y       z     vdW  Elec       q    Type
REMARK                         _______ _______ _______ _____ _____    ______ ____
ROOT
ATOM      1  C   UNL     1      -0.703  -5.457  -0.848  0.00  0.00    +0.144 C 
ATOM      2  C   UNL     1       0.474  -5.596   0.116  0.00  0.00    -0.014 A 
ATOM      3  C   UNL     1       1.785  -5.271  -0.228  0.00  0.00    +0.013 A 
ATOM      4  C   UNL     1       2.778  -5.416   0.678  0.00  0.00    +0.046 A 
ATOM      5  S   UNL     1       1.891  -6.035   2.100  0.00  0.00    -0.101 S 
ATOM      6  C   UNL     1       0.270  -6.056   1.380  0.00  0.00    -0.004 A 
ATOM      7  C   UNL     1      -1.018  -6.482   2.006  0.00  0.00    +0.061 C 
ATOM      8  C   UNL     1      -2.179  -5.953   1.151  0.00  0.00    +0.113 C 
ATOM      9  N   UNL     1      -1.848  -6.170  -0.266  0.00  0.00    -0.292 N 
ATOM     10  C   UNL     1      -2.583  -7.013  -1.020  0.00  0.00    +0.200 C 
ATOM     11  O   UNL     1      -2.300  -7.186  -2.186  0.00  0.00    -0.278 OA
ENDROOT
BRANCH   1  12
ATOM     12  C   UNL     1      -1.052  -3.978  -1.029  0.00  0.00    +0.256 C 
BRANCH  12  13
ATOM     13  O   UNL     1      -1.276  -3.381   0.250  0.00  0.00    -0.490 OA
BRANCH  13  18
ATOM     14  C   UNL     1      -2.614   2.089   0.321  0.00  0.00    +0.044 C 
ATOM     15  C   UNL     1      -2.256   0.626   0.302  0.00  0.00    -0.050 A 
ATOM     16  C   UNL     1      -2.026  -0.013  -0.903  0.00  0.00    +0.007 A 
ATOM     17  C   UNL     1      -1.698  -1.355  -0.923  0.00  0.00    +0.046 A 
ATOM     18  C   UNL     1      -1.598  -2.061   0.267  0.00  0.00    +0.124 A 
ATOM     19  C   UNL     1      -1.829  -1.418   1.474  0.00  0.00    -0.009 A 
ATOM     20  C   UNL     1      -2.152  -0.075   1.489  0.00  0.00    +0.010 A 
ATOM     21  C   UNL     1      -1.722  -2.182   2.769  0.00  0.00    +0.047 C 
ENDBRANCH  13  18
ENDBRANCH  12  13
ENDBRANCH   1  12
BRANCH  10  22
ATOM     22  C   UNL     1      -3.755  -7.740  -0.412  0.00  0.00    +0.019 C 
BRANCH  22  23
ATOM     23  N   UNL     1      -4.385  -8.589  -1.431  0.00  0.00    +0.389 N 
ATOM     24  H   UNL     1      -4.631  -8.028  -2.232  0.00  0.00    -0.081 HD
BRANCH  23  25
ATOM     25  C   UNL     1      -3.446  -9.642  -1.841  0.00  0.00    -0.051 C 
BRANCH  25  26
ATOM     26  C   UNL     1      -3.025 -10.438  -0.633  0.00  0.00    -0.053 C 
ATOM     27  C   UNL     1      -3.204 -11.736  -0.609  0.00  0.00    +0.002 C 
ENDBRANCH  25  26
ENDBRANCH  23  25
BRANCH  23  28
ATOM     28  C   UNL     1      -5.597  -9.205  -0.874  0.00  0.00    -0.044 C 
BRANCH  28  29
ATOM     29  C   UNL     1      -6.341  -9.958  -1.978  0.00  0.00    +0.124 C 
BRANCH  29  30
ATOM     30  O   UNL     1      -6.787  -9.031  -2.969  0.00  0.00    -0.391 OA
ATOM     31  H   UNL     1      -7.389  -8.353  -2.631  0.00  0.00    +0.210 HD
ENDBRANCH  29  30
BRANCH  29  32
ATOM     32  C   UNL     1      -7.547 -10.684  -1.378  0.00  0.00    +0.189 C 
BRANCH  32  33
ATOM     33  O   UNL     1      -8.174 -11.480  -2.385  0.00  0.00    -0.373 OA
BRANCH  33  34
ATOM     34  C   UNL     1      -9.318 -12.203  -1.926  0.00  0.00    +0.195 C 
BRANCH  34  35
ATOM     35  C   UNL     1      -9.896 -13.004  -3.065  0.00  0.00    -0.022 A 
ATOM     36  C   UNL     1     -10.858 -12.445  -3.884  0.00  0.00    +0.006 A 
ATOM     37  C   UNL     1     -11.389 -13.180  -4.928  0.00  0.00    +0.000 A 
ATOM     38  C   UNL     1     -10.955 -14.473  -5.153  0.00  0.00    +0.000 A 
ATOM     39  C   UNL     1      -9.992 -15.031  -4.335  0.00  0.00    +0.000 A 
ATOM     40  C   UNL     1      -9.459 -14.295  -3.293  0.00  0.00    +0.006 A 
ENDBRANCH  34  35
ENDBRANCH  33  34
ENDBRANCH  32  33
ENDBRANCH  29  32
ENDBRANCH  28  29
ENDBRANCH  23  28
ENDBRANCH  22  23
ENDBRANCH  10  22
TORSDOF 14
