REMARK  Name = ZINC12470486
REMARK  11 active torsions:
REMARK  status: ('A' for Active; 'I' for Inactive)
REMARK    1  A    between atoms: C_1  and  C_2
REMARK    2  A    between atoms: C_2  and  C_3
REMARK    3  A    between atoms: C_2  and  C_4
REMARK    4  A    between atoms: C_2  and  N_5
REMARK    5  A    between atoms: C_6  and  C_8
REMARK    6  A    between atoms: C_8  and  N_9
REMARK    7  A    between atoms: N_9  and  C_10
REMARK    8  A    between atoms: C_15  and  C_16
REMARK    9  A    between atoms: C_20  and  C_22
REMARK   10  A    between atoms: C_22  and  N_23
REMARK   11  A    between atoms: C_25  and  C_28
REMARK                            x       y       z     vdW  Elec       q    Type
REMARK                         _______ _______ _______ _____ _____    ______ ____
ROOT
ATOM      1  N   UNL     1      -1.212  -0.701   0.047  0.00  0.00    -0.260 N 
ATOM      2  C   UNL     1      -1.771  -1.139  -1.098  0.00  0.00    +0.243 C 
ATOM      3  O   UNL     1      -2.821  -1.744  -1.067  0.00  0.00    -0.273 OA
ENDROOT
BRANCH   1   4
ATOM      4  C   UNL     1       0.000  -0.002   0.011  0.00  0.00    +0.048 A 
ATOM      5  C   UNL     1       0.007   1.369  -0.209  0.00  0.00    +0.024 A 
ATOM      6  C   UNL     1       1.205   2.055  -0.243  0.00  0.00    +0.002 A 
ATOM      7  C   UNL     1       2.397   1.378  -0.058  0.00  0.00    +0.001 A 
ATOM      8  C   UNL     1       2.394   0.013   0.160  0.00  0.00    +0.014 A 
ATOM      9  C   UNL     1       1.199  -0.679   0.196  0.00  0.00    +0.076 A 
BRANCH   9  10
ATOM     10  C   UNL     1       1.195  -2.166   0.441  0.00  0.00    +0.419 C 
ATOM     11  F   UNL     1       2.513  -2.632   0.501  0.00  0.00    -0.166 F 
ATOM     12  F   UNL     1       0.549  -2.438   1.652  0.00  0.00    -0.166 F 
ATOM     13  F   UNL     1       0.520  -2.809  -0.602  0.00  0.00    -0.166 F 
ENDBRANCH   9  10
ENDBRANCH   1   4
BRANCH   1  14
ATOM     14  C   UNL     1      -1.873  -0.955   1.329  0.00  0.00    +0.209 C 
BRANCH  14  16
ATOM     15  N   UNL     1      -3.709   0.032   2.662  0.00  0.00    -0.309 N 
ATOM     16  C   UNL     1      -2.905   0.114   1.583  0.00  0.00    +0.231 C 
ATOM     17  O   UNL     1      -3.012   1.047   0.816  0.00  0.00    -0.274 OA
ATOM     18  H   UNL     1      -3.623  -0.715   3.275  0.00  0.00    +0.149 HD
BRANCH  15  20
ATOM     19  C   UNL     1      -5.683   1.132   1.728  0.00  0.00    +0.031 C 
ATOM     20  C   UNL     1      -4.712   1.071   2.908  0.00  0.00    +0.026 C 
ATOM     21  C   UNL     1      -5.484   0.741   4.187  0.00  0.00    +0.031 C 
ATOM     22  C   UNL     1      -4.016   2.424   3.067  0.00  0.00    +0.031 C 
ENDBRANCH  15  20
ENDBRANCH  14  16
ENDBRANCH   1  14
BRANCH   2  23
ATOM     23  C   UNL     1      -1.091  -0.877  -2.417  0.00  0.00    +0.264 C 
BRANCH  23  24
ATOM     24  N   UNL     1      -1.892  -1.450  -3.502  0.00  0.00    -0.154 N 
ATOM     25  N   UNL     1      -1.771  -2.646  -3.966  0.00  0.00    -0.129 NA
ATOM     26  C   UNL     1      -2.661  -2.797  -4.929  0.00  0.00    +0.211 A 
ATOM     27  N   UNL     1      -3.319  -1.632  -5.029  0.00  0.00    -0.107 NA
ATOM     28  N   UNL     1      -2.823  -0.835  -4.144  0.00  0.00    -0.045 NA
BRANCH  26  29
ATOM     29  C   UNL     1      -2.886  -4.012  -5.742  0.00  0.00    +0.060 A 
ATOM     30  C   UNL     1      -3.791  -4.221  -6.747  0.00  0.00    +0.019 A 
ATOM     31  C   UNL     1      -3.815  -5.449  -7.372  0.00  0.00    +0.008 A 
ATOM     32  C   UNL     1      -2.951  -6.415  -6.966  0.00  0.00    +0.046 A 
ATOM     33  S   UNL     1      -2.054  -5.590  -5.662  0.00  0.00    -0.093 S 
ENDBRANCH  26  29
ENDBRANCH  23  24
ENDBRANCH   2  23
TORSDOF 8
