REMARK  Name = ZINC21253592
REMARK  7 active torsions:
REMARK  status: ('A' for Active; 'I' for Inactive)
REMARK    1  A    between atoms: C_1  and  C_2
REMARK    2  A    between atoms: C_2  and  O_3
REMARK    3  A    between atoms: O_3  and  C_4
REMARK    4  A    between atoms: C_7  and  C_11
REMARK    5  A    between atoms: C_16  and  C_21
REMARK    6  A    between atoms: C_25  and  O_27
REMARK    7  A    between atoms: O_27  and  C_28
REMARK                            x       y       z     vdW  Elec       q    Type
REMARK                         _______ _______ _______ _____ _____    ______ ____
ROOT
ATOM      1  C   UNL     1       5.753  -1.751  -0.131  0.00  0.00    +0.136 C 
ATOM      2  C   UNL     1       4.463  -1.016   0.145  0.00  0.00    +0.036 C 
ATOM      3  C   UNL     1       4.000  -0.664   1.356  0.00  0.00    +0.017 C 
ATOM      4  C   UNL     1       2.667   0.054   1.490  0.00  0.00    +0.059 C 
ATOM      5  C   UNL     1       2.442   0.959   0.279  0.00  0.00    +0.032 C 
ATOM      6  C   UNL     1       2.441   0.072  -0.972  0.00  0.00    +0.088 C 
ATOM      7  C   UNL     1       3.732  -0.689  -1.021  0.00  0.00    +0.163 C 
ATOM      8  O   UNL     1       4.165  -1.038  -2.101  0.00  0.00    -0.292 OA
ATOM      9  N   UNL     1       4.636  -0.902   2.531  0.00  0.00    -0.316 N 
ATOM     10  C   UNL     1       5.203  -2.119   2.893  0.00  0.00    +0.052 A 
ATOM     11  C   UNL     1       4.731  -2.866   3.958  0.00  0.00    +0.025 A 
ATOM     12  C   UNL     1       5.370  -4.048   4.293  0.00  0.00    +0.002 A 
ATOM     13  C   UNL     1       6.470  -4.475   3.572  0.00  0.00    +0.002 A 
ATOM     14  C   UNL     1       6.932  -3.737   2.496  0.00  0.00    +0.025 A 
ATOM     15  C   UNL     1       6.282  -2.565   2.146  0.00  0.00    +0.049 A 
ATOM     16  N   UNL     1       6.643  -1.846   1.007  0.00  0.00    -0.331 N 
ATOM     17  H   UNL     1       4.732  -0.099   3.277  0.00  0.00    +0.152 HD
ATOM     18  H   UNL     1       7.623  -1.347   0.983  0.00  0.00    +0.147 HD
ENDROOT
BRANCH   1  22
ATOM     19  C   UNL     1       4.798  -5.705  -1.440  0.00  0.00    +0.139 A 
ATOM     20  C   UNL     1       4.485  -5.306  -0.149  0.00  0.00    +0.047 A 
ATOM     21  C   UNL     1       4.795  -4.027   0.272  0.00  0.00    +0.009 A 
ATOM     22  C   UNL     1       5.417  -3.145  -0.593  0.00  0.00    -0.021 A 
ATOM     23  C   UNL     1       5.725  -3.538  -1.882  0.00  0.00    +0.029 A 
ATOM     24  C   UNL     1       5.422  -4.819  -2.306  0.00  0.00    +0.083 A 
ATOM     25 CL   UNL     1       5.816  -5.314  -3.923  0.00  0.00    -0.080 Cl
BRANCH  19  26
ATOM     26  O   UNL     1       4.493  -6.963  -1.856  0.00  0.00    -0.491 OA
BRANCH  26  28
ATOM     27  C   UNL     1       3.589  -9.184  -1.556  0.00  0.00    +0.048 C 
ATOM     28  C   UNL     1       3.851  -7.822  -0.912  0.00  0.00    +0.226 C 
ENDBRANCH  26  28
ENDBRANCH  19  26
ENDBRANCH   1  22
BRANCH   5  29
ATOM     29  C   UNL     1       1.115   1.662   0.408  0.00  0.00    -0.040 A 
ATOM     30  C   UNL     1      -0.052   0.926   0.490  0.00  0.00    +0.004 A 
ATOM     31  C   UNL     1      -1.271   1.568   0.602  0.00  0.00    +0.004 A 
ATOM     32  C   UNL     1      -1.325   2.948   0.643  0.00  0.00    +0.045 A 
ATOM     33  C   UNL     1      -0.155   3.689   0.561  0.00  0.00    +0.120 A 
ATOM     34  C   UNL     1       1.067   3.042   0.443  0.00  0.00    +0.049 A 
BRANCH  33  35
ATOM     35  O   UNL     1      -0.206   5.047   0.596  0.00  0.00    -0.495 OA
ATOM     36  C   UNL     1      -1.498   5.645   0.719  0.00  0.00    +0.277 C 
ENDBRANCH  33  35
ENDBRANCH   5  29
TORSDOF 5
