REMARK  Name = ZINC04386915
REMARK  6 active torsions:
REMARK  status: ('A' for Active; 'I' for Inactive)
REMARK    1  A    between atoms: C_1  and  C_2
REMARK    2  A    between atoms: C_9  and  C_11
REMARK    3  A    between atoms: C_12  and  C_32
REMARK    4  A    between atoms: C_16  and  C_18
REMARK    5  A    between atoms: C_21  and  O_24
REMARK    6  A    between atoms: C_28  and  C_31
REMARK                            x       y       z     vdW  Elec       q    Type
REMARK                         _______ _______ _______ _____ _____    ______ ____
ROOT
ATOM      1  C   UNL     1      -3.163   3.583  -1.059  0.00  0.00    +0.043 C 
ATOM      2  C   UNL     1      -4.172   2.707  -1.197  0.00  0.00    +0.014 C 
ATOM      3  N   UNL     1      -4.731   2.115  -0.097  0.00  0.00    -0.321 N 
ATOM      4  C   UNL     1      -4.574   2.666   1.146  0.00  0.00    +0.016 C 
ATOM      5  C   UNL     1      -3.574   3.541   1.387  0.00  0.00    +0.024 C 
ATOM      6  C   UNL     1      -2.612   3.930   0.293  0.00  0.00    +0.090 C 
ATOM      7  C   UNL     1      -3.400   4.111   2.659  0.00  0.00    +0.162 C 
ATOM      8  O   UNL     1      -2.498   4.906   2.839  0.00  0.00    -0.292 OA
ATOM      9  C   UNL     1      -4.309   3.755   3.804  0.00  0.00    +0.083 C 
ATOM     10  C   UNL     1      -4.842   2.334   3.593  0.00  0.00    -0.001 C 
ATOM     11  C   UNL     1      -5.544   2.276   2.234  0.00  0.00    +0.055 C 
ATOM     12  C   UNL     1      -5.835   1.988   4.704  0.00  0.00    +0.008 C 
ATOM     13  C   UNL     1      -4.694   2.376  -2.571  0.00  0.00    +0.061 C 
ATOM     14  H   UNL     1      -5.312   1.188  -0.208  0.00  0.00    +0.152 HD
ENDROOT
BRANCH   1  23
ATOM     15  C   UNL     1       0.773   6.150  -7.262  0.00  0.00    +0.045 C 
ATOM     16  C   UNL     1       0.122   5.410  -6.121  0.00  0.00    -0.032 A 
ATOM     17  C   UNL     1       0.362   4.056  -5.935  0.00  0.00    +0.008 A 
ATOM     18  C   UNL     1      -0.255   3.415  -4.875  0.00  0.00    +0.044 A 
ATOM     19  C   UNL     1      -1.089   4.146  -4.037  0.00  0.00    +0.125 A 
ATOM     20  N   UNL     1      -1.297   5.436  -4.250  0.00  0.00    -0.240 NA
ATOM     21  C   UNL     1      -0.718   6.074  -5.249  0.00  0.00    +0.116 A 
ATOM     22  N   UNL     1      -1.717   3.513  -2.966  0.00  0.00    -0.267 N 
ATOM     23  C   UNL     1      -2.607   4.189  -2.212  0.00  0.00    +0.248 C 
ATOM     24  O   UNL     1      -2.934   5.320  -2.523  0.00  0.00    -0.270 OA
ATOM     25  H   UNL     1      -1.486   2.463  -2.735  0.00  0.00    +0.157 HD
ENDBRANCH   1  23
BRANCH   6  26
ATOM     26  C   UNL     1      -1.308   3.202   0.498  0.00  0.00    -0.035 A 
ATOM     27  C   UNL     1      -1.276   1.820   0.459  0.00  0.00    +0.008 A 
ATOM     28  C   UNL     1      -0.084   1.150   0.652  0.00  0.00    +0.046 A 
ATOM     29  C   UNL     1       1.084   1.865   0.874  0.00  0.00    +0.117 A 
ATOM     30  C   UNL     1       1.050   3.252   0.908  0.00  0.00    +0.046 A 
ATOM     31  C   UNL     1      -0.146   3.917   0.720  0.00  0.00    +0.008 A 
BRANCH  29  32
ATOM     32  O   UNL     1       2.260   1.209   1.058  0.00  0.00    -0.507 OA
ATOM     33  H   UNL     1       3.185   1.777   1.235  0.00  0.00    +0.292 HD
ENDBRANCH  29  32
ENDBRANCH   6  26
TORSDOF 3
