REMARK  Name = ZINC09254934
REMARK  8 active torsions:
REMARK  status: ('A' for Active; 'I' for Inactive)
REMARK    1  A    between atoms: C_4  and  S_7
REMARK    2  A    between atoms: S_7  and  C_8
REMARK    3  A    between atoms: C_11  and  C_17
REMARK    4  A    between atoms: C_13  and  N_14
REMARK    5  A    between atoms: C_17  and  O_19
REMARK    6  A    between atoms: O_19  and  C_20
REMARK    7  A    between atoms: C_20  and  C_21
REMARK    8  A    between atoms: C_21  and  C_23
REMARK                            x       y       z     vdW  Elec       q    Type
REMARK                         _______ _______ _______ _____ _____    ______ ____
ROOT
ATOM      1  C   UNL     1       2.436   1.005  -0.046  0.00  0.00    +0.340 C 
ATOM      2  O   UNL     1       2.440  -0.201  -0.192  0.00  0.00    -0.245 OA
ENDROOT
BRANCH   1   6
ATOM      3  C   UNL     1      -1.236   3.115   0.022  0.00  0.00    +0.043 A 
ATOM      4  C   UNL     1      -0.034   3.806   0.167  0.00  0.00    +0.018 A 
ATOM      5  C   UNL     1       1.151   3.128   0.145  0.00  0.00    +0.016 A 
ATOM      6  C   UNL     1       1.158   1.739  -0.022  0.00  0.00    +0.061 A 
ATOM      7  C   UNL     1      -0.050   1.049  -0.167  0.00  0.00    +0.048 A 
ATOM      8  C   UNL     1      -1.232   1.733  -0.150  0.00  0.00    +0.141 A 
BRANCH   8   9
ATOM      9  N   UNL     1      -2.510   1.004  -0.310  0.00  0.00    +0.058 N 
ATOM     10  O   UNL     1      -2.508  -0.205  -0.456  0.00  0.00    -0.126 OA
ATOM     11  O   UNL     1      -3.565   1.614  -0.295  0.00  0.00    -0.126 OA
ENDBRANCH   8   9
BRANCH   3  12
ATOM     12  S   UNL     1      -2.763   3.994   0.050  0.00  0.00    -0.087 S 
BRANCH  12  16
ATOM     13  C   UNL     1      -4.413   3.191   4.191  0.00  0.00    +0.000 A 
ATOM     14  C   UNL     1      -5.176   3.879   3.266  0.00  0.00    +0.001 A 
ATOM     15  C   UNL     1      -4.676   4.126   2.003  0.00  0.00    +0.015 A 
ATOM     16  C   UNL     1      -3.405   3.681   1.661  0.00  0.00    +0.013 A 
ATOM     17  C   UNL     1      -2.643   2.985   2.591  0.00  0.00    +0.015 A 
ATOM     18  C   UNL     1      -3.147   2.747   3.855  0.00  0.00    +0.001 A 
ENDBRANCH  12  16
ENDBRANCH   3  12
ENDBRANCH   1   6
BRANCH   1  19
ATOM     19  O   UNL     1       3.599   1.672   0.094  0.00  0.00    -0.453 OA
BRANCH  19  20
ATOM     20  C   UNL     1       4.818   0.884   0.060  0.00  0.00    +0.311 C 
BRANCH  20  21
ATOM     21  C   UNL     1       6.008   1.793   0.231  0.00  0.00    +0.200 C 
ATOM     22  O   UNL     1       5.845   2.987   0.367  0.00  0.00    -0.288 OA
BRANCH  21  23
ATOM     23  C   UNL     1       7.366   1.233   0.232  0.00  0.00    +0.023 A 
ATOM     24  C   UNL     1       7.556  -0.146   0.081  0.00  0.00    +0.015 A 
ATOM     25  C   UNL     1       8.829  -0.671   0.075  0.00  0.00    +0.048 A 
ATOM     26  C   UNL     1       9.927   0.164   0.232  0.00  0.00    +0.142 A 
ATOM     27  C   UNL     1       9.745   1.541   0.390  0.00  0.00    +0.076 A 
ATOM     28  C   UNL     1       8.473   2.076   0.390  0.00  0.00    +0.038 A 
ATOM     29  N   UNL     1      10.867   2.367   0.548  0.00  0.00    -0.280 N 
ATOM     30  C   UNL     1      12.087   1.880   0.232  0.00  0.00    +0.255 C 
ATOM     31  O   UNL     1      13.076   2.565   0.388  0.00  0.00    -0.272 OA
ATOM     32  C   UNL     1      12.215   0.481  -0.316  0.00  0.00    +0.325 C 
ATOM     33  O   UNL     1      11.186  -0.346   0.233  0.00  0.00    -0.481 OA
ATOM     34  H   UNL     1      10.770   3.273   0.880  0.00  0.00    +0.155 HD
ENDBRANCH  21  23
ENDBRANCH  20  21
ENDBRANCH  19  20
ENDBRANCH   1  19
TORSDOF 8
