REMARK  Name = ZINC12000787
REMARK  13 active torsions:
REMARK  status: ('A' for Active; 'I' for Inactive)
REMARK    1  A    between atoms: C_1  and  C_2
REMARK    2  A    between atoms: C_3  and  C_34
REMARK    3  A    between atoms: C_11  and  C_12
REMARK    4  A    between atoms: N_14  and  C_15
REMARK    5  A    between atoms: C_15  and  C_16
REMARK    6  A    between atoms: C_16  and  C_18
REMARK    7  A    between atoms: C_16  and  O_19
REMARK    8  A    between atoms: O_19  and  C_20
REMARK    9  A    between atoms: C_24  and  C_26
REMARK   10  A    between atoms: C_26  and  N_64
REMARK   11  A    between atoms: C_27  and  N_64
REMARK   12  A    between atoms: C_28  and  C_29
REMARK   13  A    between atoms: C_28  and  N_64
REMARK                            x       y       z     vdW  Elec       q    Type
REMARK                         _______ _______ _______ _____ _____    ______ ____
ROOT
ATOM      1  C   UNL     1       1.192   5.866   0.135  0.00  0.00    +0.187 C 
ATOM      2  C   UNL     1       1.588   5.982   1.609  0.00  0.00    +0.053 C 
ENDROOT
BRANCH   1   3
ATOM      3  C   UNL     1       1.082   7.265  -0.475  0.00  0.00    +0.148 C 
BRANCH   3   6
ATOM      4  C   UNL     1       0.546   8.266  -2.630  0.00  0.00    +0.246 C 
ATOM      5  O   UNL     1       0.719   9.361  -2.132  0.00  0.00    -0.270 OA
ATOM      6  N   UNL     1       0.703   7.154  -1.885  0.00  0.00    -0.308 N 
ATOM      7  H   UNL     1       0.564   6.280  -2.283  0.00  0.00    +0.149 HD
BRANCH   4  18
ATOM      8  C   UNL     1      -0.813  10.944  -8.118  0.00  0.00    +0.046 C 
ATOM      9  C   UNL     1      -0.454  10.547  -6.710  0.00  0.00    -0.022 A 
ATOM     10  C   UNL     1      -0.154  11.375  -5.697  0.00  0.00    +0.017 A 
ATOM     11  N   UNL     1       0.119  10.651  -4.568  0.00  0.00    -0.357 N 
ATOM     12  H   UNL     1       0.361  11.030  -3.709  0.00  0.00    +0.166 HD
ATOM     13  C   UNL     1      -0.001   9.310  -4.831  0.00  0.00    +0.059 A 
ATOM     14  C   UNL     1      -0.364   9.181  -6.184  0.00  0.00    +0.004 A 
ATOM     15  C   UNL     1      -0.558   7.915  -6.737  0.00  0.00    +0.010 A 
ATOM     16  C   UNL     1      -0.393   6.790  -5.958  0.00  0.00    +0.001 A 
ATOM     17  C   UNL     1      -0.030   6.901  -4.628  0.00  0.00    +0.015 A 
ATOM     18  C   UNL     1       0.164   8.154  -4.051  0.00  0.00    +0.061 A 
ATOM     19  C   UNL     1      -0.123  12.879  -5.790  0.00  0.00    +0.063 C 
ENDBRANCH   4  18
ENDBRANCH   3   6
ENDBRANCH   1   3
BRANCH   1  20
ATOM     20  O   UNL     1      -0.069   5.201   0.032  0.00  0.00    -0.488 OA
BRANCH  20  21
ATOM     21  C   UNL     1      -0.050   3.842   0.025  0.00  0.00    +0.121 A 
ATOM     22  C   UNL     1       1.142   3.162   0.230  0.00  0.00    +0.045 A 
ATOM     23  C   UNL     1       1.158   1.781   0.223  0.00  0.00    +0.004 A 
ATOM     24  C   UNL     1      -0.013   1.076   0.013  0.00  0.00    +0.002 A 
ATOM     25  C   UNL     1      -1.201   1.751  -0.197  0.00  0.00    -0.060 A 
ATOM     26  C   UNL     1      -1.223   3.132  -0.185  0.00  0.00    +0.047 A 
BRANCH  25  27
ATOM     27  C   UNL     1      -2.474   0.980  -0.431  0.00  0.00    -0.043 C 
BRANCH  27  29
ATOM     28  C   UNL     1      -3.592   1.971   1.474  0.00  0.00    -0.095 C 
ATOM     29  N   UNL     1      -3.114   0.708   0.873  0.00  0.00    +0.383 N 
ATOM     30  H   UNL     1      -2.424   0.280   1.501  0.00  0.00    -0.081 HD
BRANCH  29  31
ATOM     31  C   UNL     1      -4.246  -0.227   0.696  0.00  0.00    -0.042 C 
BRANCH  31  32
ATOM     32  C   UNL     1      -4.738  -0.658   2.053  0.00  0.00    -0.057 A 
ATOM     33  C   UNL     1      -4.198  -1.768   2.675  0.00  0.00    +0.009 A 
ATOM     34  C   UNL     1      -4.659  -2.125   3.899  0.00  0.00    +0.045 A 
ATOM     35  S   UNL     1      -5.905  -0.882   4.201  0.00  0.00    -0.105 S 
ATOM     36  C   UNL     1      -5.721   0.034   2.680  0.00  0.00    +0.047 A 
ENDBRANCH  31  32
ENDBRANCH  29  31
ENDBRANCH  27  29
ENDBRANCH  25  27
ENDBRANCH  20  21
ENDBRANCH   1  20
TORSDOF 9
