REMARK  Name = ZINC63708304
REMARK  9 active torsions:
REMARK  status: ('A' for Active; 'I' for Inactive)
REMARK    1  A    between atoms: C_1  and  C_2
REMARK    2  A    between atoms: C_4  and  C_9
REMARK    3  A    between atoms: C_5  and  C_8
REMARK    4  A    between atoms: C_9  and  C_10
REMARK    5  A    between atoms: C_10  and  C_11
REMARK    6  A    between atoms: C_21  and  S_25
REMARK    7  A    between atoms: S_25  and  C_26
REMARK    8  A    between atoms: C_26  and  C_27
REMARK    9  A    between atoms: N_29  and  C_30
REMARK                            x       y       z     vdW  Elec       q    Type
REMARK                         _______ _______ _______ _____ _____    ______ ____
ROOT
ATOM      1  C   UNL     1      -0.903  -1.212  -4.528  0.00  0.00    +0.090 C 
ATOM      2  N   UNL     1      -1.862  -0.448  -4.988  0.00  0.00    -0.332 N 
ATOM      3  C   UNL     1      -1.877  -0.479  -6.326  0.00  0.00    +0.128 C 
ATOM      4  C   UNL     1      -2.691   0.151  -7.288  0.00  0.00    +0.038 A 
ATOM      5  C   UNL     1      -3.732   1.009  -6.892  0.00  0.00    +0.013 A 
ATOM      6  C   UNL     1      -4.508   1.610  -7.836  0.00  0.00    +0.001 A 
ATOM      7  C   UNL     1      -4.299   1.398  -9.196  0.00  0.00    +0.002 A 
ATOM      8  C   UNL     1      -3.311   0.580  -9.646  0.00  0.00    +0.026 A 
ATOM      9  C   UNL     1      -2.469  -0.073  -8.720  0.00  0.00    +0.048 A 
ATOM     10  N   UNL     1      -1.499  -0.874  -9.138  0.00  0.00    -0.356 N 
ATOM     11  C   UNL     1      -0.637  -1.544  -8.156  0.00  0.00    +0.248 C 
ATOM     12  N   UNL     1      -0.867  -1.312  -6.731  0.00  0.00    -0.204 N 
ATOM     13  N   UNL     1      -0.243  -1.774  -5.565  0.00  0.00    -0.249 N 
ATOM     14  H   UNL     1       0.513  -2.379  -5.513  0.00  0.00    +0.171 HD
ATOM     15  H   UNL     1      -1.360  -1.017 -10.088  0.00  0.00    +0.162 HD
ATOM     16  H   UNL     1      -2.474   0.066  -4.438  0.00  0.00    +0.168 HD
ENDROOT
BRANCH   1  17
ATOM     17  C   UNL     1      -0.581  -1.427  -3.071  0.00  0.00    +0.075 C 
BRANCH  17  18
ATOM     18  C   UNL     1       0.431  -0.375  -2.612  0.00  0.00    +0.042 C 
BRANCH  18  21
ATOM     19  C   UNL     1      -0.024   1.453   0.075  0.00  0.00    +0.039 C 
ATOM     20  C   UNL     1      -0.006  -0.077   0.055  0.00  0.00    +0.153 C 
ATOM     21  C   UNL     1       0.753  -0.590  -1.156  0.00  0.00    -0.021 C 
ATOM     22  C   UNL     1       1.771  -1.274  -0.630  0.00  0.00    +0.061 C 
ATOM     23  N   UNL     1       1.725  -1.242   0.720  0.00  0.00    -0.159 NA
ATOM     24  N   UNL     1       0.774  -0.604   1.188  0.00  0.00    -0.180 NA
ATOM     25  C   UNL     1       2.828  -1.987  -1.434  0.00  0.00    +0.067 C 
ENDBRANCH  18  21
ENDBRANCH  17  18
ENDBRANCH   1  17
BRANCH  11  26
ATOM     26  S   UNL     1      -0.765  -3.330  -8.446  0.00  0.00    -0.106 S 
BRANCH  26  27
ATOM     27  C   UNL     1      -2.527  -3.688  -8.201  0.00  0.00    +0.168 C 
BRANCH  27  28
ATOM     28  C   UNL     1      -2.774  -5.159  -8.415  0.00  0.00    +0.227 C 
ATOM     29  O   UNL     1      -1.853  -5.894  -8.704  0.00  0.00    -0.275 OA
ATOM     30  N   UNL     1      -4.019  -5.659  -8.285  0.00  0.00    -0.283 N 
ATOM     31  H   UNL     1      -4.744  -5.085  -7.992  0.00  0.00    +0.155 HD
BRANCH  30  32
ATOM     32  C   UNL     1      -4.267  -7.007  -8.575  0.00  0.00    +0.069 A 
ATOM     33  C   UNL     1      -3.303  -7.966  -8.297  0.00  0.00    +0.027 A 
ATOM     34  C   UNL     1      -3.549  -9.295  -8.582  0.00  0.00    +0.022 A 
ATOM     35  C   UNL     1      -4.756  -9.672  -9.146  0.00  0.00    +0.044 A 
ATOM     36  C   UNL     1      -5.720  -8.719  -9.425  0.00  0.00    +0.060 A 
ATOM     37  C   UNL     1      -5.481  -7.388  -9.136  0.00  0.00    +0.146 A 
ATOM     38  F   UNL     1      -6.424  -6.458  -9.402  0.00  0.00    -0.203 F 
ATOM     39 CL   UNL     1      -5.060 -11.343  -9.504  0.00  0.00    -0.083 Cl
ENDBRANCH  30  32
ENDBRANCH  27  28
ENDBRANCH  26  27
ENDBRANCH  11  26
TORSDOF 7
