REMARK  Name = ZINC39930661
REMARK  10 active torsions:
REMARK  status: ('A' for Active; 'I' for Inactive)
REMARK    1  A    between atoms: C_1  and  O_2
REMARK    2  A    between atoms: O_2  and  C_3
REMARK    3  A    between atoms: C_9  and  C_13
REMARK    4  A    between atoms: C_13  and  C_15
REMARK    5  A    between atoms: C_13  and  O_28
REMARK    6  A    between atoms: C_24  and  C_26
REMARK    7  A    between atoms: O_28  and  C_29
REMARK    8  A    between atoms: C_29  and  C_31
REMARK    9  A    between atoms: C_33  and  N_40
REMARK   10  A    between atoms: C_35  and  N_37
REMARK                            x       y       z     vdW  Elec       q    Type
REMARK                         _______ _______ _______ _____ _____    ______ ____
ROOT
ATOM      1  C   UNL     1      -1.633  -4.786  -0.349  0.00  0.00    +0.194 C 
ENDROOT
BRANCH   1   8
ATOM      2  C   UNL     1      -0.668  -0.660  -0.950  0.00  0.00    +0.121 A 
ATOM      3  C   UNL     1      -1.655   0.260  -1.318  0.00  0.00    +0.048 A 
ATOM      4  C   UNL     1      -2.946  -0.130  -1.494  0.00  0.00    +0.032 A 
ATOM      5  C   UNL     1      -3.301  -1.478  -1.306  0.00  0.00    +0.072 A 
ATOM      6  C   UNL     1      -2.301  -2.410  -0.933  0.00  0.00    +0.010 A 
ATOM      7  C   UNL     1      -0.977  -1.978  -0.764  0.00  0.00    +0.056 A 
ATOM      8  C   UNL     1      -2.661  -3.758  -0.745  0.00  0.00    +0.002 A 
ATOM      9  C   UNL     1      -3.968  -4.109  -0.932  0.00  0.00    +0.027 A 
ATOM     10  C   UNL     1      -4.901  -3.142  -1.299  0.00  0.00    +0.112 A 
ATOM     11  N   UNL     1      -4.563  -1.887  -1.473  0.00  0.00    -0.255 NA
BRANCH   2  13
ATOM     12  C   UNL     1       0.872   1.150  -0.991  0.00  0.00    +0.277 C 
ATOM     13  O   UNL     1       0.613  -0.240  -0.782  0.00  0.00    -0.495 OA
ENDBRANCH   2  13
ENDBRANCH   1   8
BRANCH   1  14
ATOM     14  C   UNL     1      -1.465  -4.780   1.171  0.00  0.00    -0.022 C 
ATOM     15  C   UNL     1      -2.667  -5.471   1.818  0.00  0.00    -0.008 C 
ATOM     16  C   UNL     1      -2.170  -6.677   2.626  0.00  0.00    -0.009 C 
ATOM     17  C   UNL     1      -1.197  -6.173   3.699  0.00  0.00    -0.015 C 
ATOM     18  C   UNL     1      -0.039  -5.445   3.013  0.00  0.00    -0.078 C 
ATOM     19  N   UNL     1      -0.232  -5.488   1.527  0.00  0.00    +0.385 N 
ATOM     20  C   UNL     1      -0.267  -6.866   1.032  0.00  0.00    -0.070 C 
ATOM     21  C   UNL     1      -1.426  -7.624   1.674  0.00  0.00    -0.003 C 
ATOM     22  H   UNL     1       0.544  -5.018   1.086  0.00  0.00    -0.081 HD
BRANCH  21  23
ATOM     23  C   UNL     1      -2.368  -8.105   0.601  0.00  0.00    -0.033 C 
ATOM     24  C   UNL     1      -2.725  -9.365   0.560  0.00  0.00    +0.004 C 
ENDBRANCH  21  23
ENDBRANCH   1  14
BRANCH   1  25
ATOM     25  O   UNL     1      -2.064  -6.080  -0.776  0.00  0.00    -0.455 OA
BRANCH  25  26
ATOM     26  C   UNL     1      -1.193  -6.806  -1.505  0.00  0.00    +0.340 C 
ATOM     27  O   UNL     1      -0.056  -6.410  -1.662  0.00  0.00    -0.245 OA
BRANCH  26  28
ATOM     28  C   UNL     1      -1.622  -8.082  -2.112  0.00  0.00    +0.063 A 
ATOM     29  C   UNL     1      -2.981  -8.377  -2.238  0.00  0.00    +0.047 A 
ATOM     30  C   UNL     1      -3.375  -9.571  -2.806  0.00  0.00    +0.129 A 
ATOM     31  C   UNL     1      -2.426 -10.475  -3.250  0.00  0.00    +0.065 A 
ATOM     32  C   UNL     1      -1.078 -10.189  -3.128  0.00  0.00    +0.129 A 
ATOM     33  C   UNL     1      -0.671  -8.997  -2.568  0.00  0.00    +0.047 A 
BRANCH  32  34
ATOM     34  N   UNL     1      -0.071 -11.163  -3.606  0.00  0.00    +0.057 N 
ATOM     35  O   UNL     1      -0.426 -12.207  -4.102  0.00  0.00    -0.126 OA
ATOM     36  O   UNL     1       1.108 -10.915  -3.500  0.00  0.00    -0.126 OA
ENDBRANCH  32  34
BRANCH  30  37
ATOM     37  N   UNL     1      -4.815  -9.886  -2.940  0.00  0.00    +0.057 N 
ATOM     38  O   UNL     1      -5.645  -9.097  -2.551  0.00  0.00    -0.126 OA
ATOM     39  O   UNL     1      -5.161 -10.932  -3.437  0.00  0.00    -0.126 OA
ENDBRANCH  30  37
ENDBRANCH  26  28
ENDBRANCH  25  26
ENDBRANCH   1  25
TORSDOF 9
