REMARK  Name = ZINC14958707
REMARK  9 active torsions:
REMARK  status: ('A' for Active; 'I' for Inactive)
REMARK    1  A    between atoms: C_4  and  O_28
REMARK    2  A    between atoms: C_5  and  C_7
REMARK    3  A    between atoms: C_7  and  N_8
REMARK    4  A    between atoms: C_9  and  C_15
REMARK    5  A    between atoms: C_15  and  C_16
REMARK    6  A    between atoms: C_16  and  N_53
REMARK    7  A    between atoms: C_17  and  C_18
REMARK    8  A    between atoms: C_17  and  N_53
REMARK    9  A    between atoms: O_28  and  C_29
REMARK                            x       y       z     vdW  Elec       q    Type
REMARK                         _______ _______ _______ _____ _____    ______ ____
ROOT
ATOM      1  N   UNL     1       5.572  -1.951   1.687  0.00  0.00    -0.294 N 
ATOM      2  C   UNL     1       5.826  -0.802   2.565  0.00  0.00    +0.075 C 
ATOM      3  C   UNL     1       6.078  -1.402   3.966  0.00  0.00    +0.031 C 
ATOM      4  C   UNL     1       6.580  -2.821   3.615  0.00  0.00    +0.098 C 
ATOM      5  C   UNL     1       5.990  -3.097   2.250  0.00  0.00    +0.216 C 
ATOM      6  O   UNL     1       5.908  -4.193   1.737  0.00  0.00    -0.276 OA
ENDROOT
BRANCH   1   7
ATOM      7  C   UNL     1       4.942  -1.859   0.368  0.00  0.00    +0.146 C 
BRANCH   7  12
ATOM      8  C   UNL     1       7.063   0.115  -2.052  0.00  0.00    +0.001 A 
ATOM      9  C   UNL     1       7.897  -0.866  -2.558  0.00  0.00    +0.004 A 
ATOM     10  C   UNL     1       7.777  -2.170  -2.118  0.00  0.00    +0.046 A 
ATOM     11  C   UNL     1       6.819  -2.495  -1.169  0.00  0.00    +0.135 A 
ATOM     12  C   UNL     1       5.984  -1.509  -0.663  0.00  0.00    +0.012 A 
ATOM     13  C   UNL     1       6.104  -0.207  -1.110  0.00  0.00    +0.009 A 
BRANCH  11  14
ATOM     14  O   UNL     1       6.698  -3.777  -0.735  0.00  0.00    -0.405 OA
BRANCH  14  15
ATOM     15  C   UNL     1       7.592  -4.739  -1.299  0.00  0.00    +0.575 C 
ATOM     16  F   UNL     1       8.912  -4.370  -1.019  0.00  0.00    -0.133 F 
ATOM     17  F   UNL     1       7.332  -5.998  -0.745  0.00  0.00    -0.133 F 
ATOM     18  F   UNL     1       7.406  -4.792  -2.684  0.00  0.00    -0.133 F 
ENDBRANCH  14  15
ENDBRANCH  11  14
ENDBRANCH   7  12
ENDBRANCH   1   7
BRANCH   2  19
ATOM     19  C   UNL     1       4.606   0.121   2.595  0.00  0.00    +0.003 C 
BRANCH  19  20
ATOM     20  C   UNL     1       4.910   1.339   3.469  0.00  0.00    -0.080 C 
BRANCH  20  21
ATOM     21  N   UNL     1       3.780   2.285   3.391  0.00  0.00    +0.382 N 
ATOM     22  H   UNL     1       2.927   1.821   3.724  0.00  0.00    -0.085 HD
ATOM     23  H   UNL     1       3.652   2.579   2.416  0.00  0.00    -0.085 HD
BRANCH  21  24
ATOM     24  C   UNL     1       4.046   3.471   4.226  0.00  0.00    -0.045 C 
BRANCH  24  25
ATOM     25  C   UNL     1       2.878   4.417   4.126  0.00  0.00    -0.042 A 
ATOM     26  C   UNL     1       1.985   4.524   5.177  0.00  0.00    +0.052 A 
ATOM     27  C   UNL     1       0.910   5.394   5.088  0.00  0.00    +0.167 A 
ATOM     28  C   UNL     1       0.731   6.159   3.938  0.00  0.00    +0.168 A 
ATOM     29  C   UNL     1       1.632   6.052   2.892  0.00  0.00    +0.069 A 
ATOM     30  C   UNL     1       2.700   5.177   2.984  0.00  0.00    +0.046 A 
ATOM     31 CL   UNL     1       3.824   5.039   1.668  0.00  0.00    -0.083 Cl
ATOM     32  O   UNL     1      -0.387   6.927   4.095  0.00  0.00    -0.453 OA
ATOM     33  C   UNL     1      -1.117   6.325   5.181  0.00  0.00    +0.466 C 
ATOM     34  O   UNL     1      -0.095   5.682   5.965  0.00  0.00    -0.453 OA
ENDBRANCH  24  25
ENDBRANCH  21  24
ENDBRANCH  20  21
ENDBRANCH  19  20
ENDBRANCH   2  19
TORSDOF 9
