REMARK  Name = ZINC38732923
REMARK  3 active torsions:
REMARK  status: ('A' for Active; 'I' for Inactive)
REMARK    1  A    between atoms: C_13  and  C_15
REMARK    2  A    between atoms: C_21  and  C_23
REMARK    3  A    between atoms: N_25  and  C_26
REMARK                            x       y       z     vdW  Elec       q    Type
REMARK                         _______ _______ _______ _____ _____    ______ ____
ROOT
ATOM      1  C   UNL     1      -0.121  -6.663   1.232  0.00  0.00    +0.091 C 
ATOM      2  C   UNL     1      -0.884  -6.401  -0.068  0.00  0.00    +0.040 C 
ATOM      3  C   UNL     1      -1.994  -7.399  -0.226  0.00  0.00    -0.030 C 
ATOM      4  C   UNL     1      -2.068  -8.511   0.432  0.00  0.00    -0.030 C 
ATOM      5  C   UNL     1      -1.059  -8.955   1.450  0.00  0.00    +0.040 C 
ATOM      6  C   UNL     1       0.235  -8.154   1.299  0.00  0.00    +0.091 C 
ENDROOT
BRANCH   1  19
ATOM      7  C   UNL     1       0.038   0.648   4.727  0.00  0.00    +0.005 A 
ATOM      8  C   UNL     1       1.234   1.352   4.775  0.00  0.00    +0.018 A 
ATOM      9  C   UNL     1       2.405   0.721   4.405  0.00  0.00    +0.084 A 
ATOM     10  N   UNL     1       2.399  -0.537   4.008  0.00  0.00    -0.350 N 
ATOM     11  C   UNL     1       1.279  -1.242   3.948  0.00  0.00    +0.099 A 
ATOM     12  C   UNL     1       0.063  -0.669   4.306  0.00  0.00    +0.042 A 
ATOM     13  N   UNL     1       1.319  -2.564   3.523  0.00  0.00    -0.314 N 
ATOM     14  C   UNL     1       0.113  -3.403   3.573  0.00  0.00    +0.125 C 
ATOM     15  C   UNL     1      -0.146  -3.972   2.172  0.00  0.00    +0.126 C 
ATOM     16  N   UNL     1       1.103  -4.557   1.665  0.00  0.00    -0.298 N 
ATOM     17  C   UNL     1       2.309  -3.719   1.615  0.00  0.00    +0.126 C 
ATOM     18  C   UNL     1       2.567  -3.148   3.010  0.00  0.00    +0.125 C 
ATOM     19  C   UNL     1       1.141  -5.840   1.253  0.00  0.00    +0.220 C 
ATOM     20  O   UNL     1       2.192  -6.332   0.899  0.00  0.00    -0.275 OA
ATOM     21  H   UNL     1       3.236  -0.957   3.753  0.00  0.00    +0.166 HD
ENDBRANCH   1  19
BRANCH   6  22
ATOM     22  C   UNL     1       1.133  -8.408   2.482  0.00  0.00    +0.221 C 
ATOM     23  O   UNL     1       1.460  -7.489   3.203  0.00  0.00    -0.275 OA
ATOM     24  N   UNL     1       1.574  -9.655   2.738  0.00  0.00    -0.285 N 
ATOM     25  H   UNL     1       1.259 -10.400   2.202  0.00  0.00    +0.155 HD
BRANCH  24  26
ATOM     26  C   UNL     1       2.486  -9.876   3.776  0.00  0.00    +0.037 A 
ATOM     27  C   UNL     1       2.442  -9.082   4.912  0.00  0.00    +0.023 A 
ATOM     28  C   UNL     1       3.344  -9.301   5.934  0.00  0.00    +0.002 A 
ATOM     29  C   UNL     1       4.283 -10.305   5.819  0.00  0.00    +0.004 A 
ATOM     30  C   UNL     1       4.332 -11.103   4.682  0.00  0.00    -0.042 A 
ATOM     31  C   UNL     1       3.430 -10.897   3.665  0.00  0.00    -0.023 A 
ATOM     32  C   UNL     1       3.410 -11.737   2.415  0.00  0.00    +0.037 C 
ATOM     33  C   UNL     1       4.729 -12.492   2.254  0.00  0.00    +0.005 C 
ATOM     34  C   UNL     1       5.031 -13.223   3.567  0.00  0.00    +0.005 C 
ATOM     35  C   UNL     1       5.390 -12.174   4.623  0.00  0.00    +0.035 C 
ENDBRANCH  24  26
ENDBRANCH   6  22
TORSDOF 3
