REMARK  Name = ZINC02995435
REMARK  8 active torsions:
REMARK  status: ('A' for Active; 'I' for Inactive)
REMARK    1  A    between atoms: C_1  and  C_2
REMARK    2  A    between atoms: C_2  and  C_3
REMARK    3  A    between atoms: C_3  and  C_4
REMARK    4  A    between atoms: C_4  and  C_5
REMARK    5  A    between atoms: C_14  and  O_17
REMARK    6  A    between atoms: C_15  and  C_16
REMARK    7  A    between atoms: O_17  and  S_18
REMARK    8  A    between atoms: S_18  and  C_21
REMARK                            x       y       z     vdW  Elec       q    Type
REMARK                         _______ _______ _______ _____ _____    ______ ____
ROOT
ATOM      1  C   UNL     1       2.480   1.104  -0.015  0.00  0.00    -0.030 A 
ATOM      2  C   UNL     1       3.610   1.857  -0.021  0.00  0.00    +0.096 A 
ATOM      3  C   UNL     1       3.515   3.264  -0.012  0.00  0.00    +0.337 A 
ATOM      4  O   UNL     1       4.537   3.928  -0.018  0.00  0.00    -0.245 OA
ATOM      5  O   UNL     1       2.329   3.891   0.002  0.00  0.00    -0.422 OA
ATOM      6  C   UNL     1       1.168   3.201   0.008  0.00  0.00    +0.146 A 
ATOM      7  C   UNL     1       1.188   1.794   0.000  0.00  0.00    +0.021 A 
ATOM      8  C   UNL     1      -0.013   1.076   0.008  0.00  0.00    +0.015 A 
ATOM      9  C   UNL     1      -1.203   1.744   0.017  0.00  0.00    +0.050 A 
ATOM     10  C   UNL     1      -1.230   3.137   0.030  0.00  0.00    +0.163 A 
ATOM     11  C   UNL     1      -0.050   3.864   0.023  0.00  0.00    +0.037 A 
ATOM     12  C   UNL     1      -0.090   5.371   0.032  0.00  0.00    +0.051 C 
ENDROOT
BRANCH   1  13
ATOM     13  C   UNL     1       2.553  -0.401  -0.024  0.00  0.00    +0.036 C 
BRANCH  13  14
ATOM     14  C   UNL     1       2.438  -0.910  -1.462  0.00  0.00    +0.004 C 
BRANCH  14  16
ATOM     15  C   UNL     1       2.398  -2.946  -2.909  0.00  0.00    +0.004 C 
ATOM     16  C   UNL     1       2.513  -2.438  -1.471  0.00  0.00    -0.003 C 
ENDBRANCH  14  16
ENDBRANCH  13  14
ENDBRANCH   1  13
BRANCH  10  17
ATOM     17  O   UNL     1      -2.421   3.788   0.045  0.00  0.00    -0.342 OA
BRANCH  17  18
ATOM     18  S   UNL     1      -2.977   4.092  -1.339  0.00  0.00    +0.151 S 
ATOM     19  O   UNL     1      -4.099   4.943  -1.147  0.00  0.00    -0.131 OA
ATOM     20  O   UNL     1      -1.870   4.462  -2.149  0.00  0.00    -0.131 OA
BRANCH  18  21
ATOM     21  C   UNL     1      -3.599   2.579  -1.995  0.00  0.00    +0.128 A 
ATOM     22  C   UNL     1      -2.773   1.758  -2.739  0.00  0.00    +0.030 A 
ATOM     23  C   UNL     1      -3.260   0.568  -3.249  0.00  0.00    +0.002 A 
ATOM     24  C   UNL     1      -4.574   0.206  -3.024  0.00  0.00    +0.000 A 
ATOM     25  C   UNL     1      -5.402   1.031  -2.285  0.00  0.00    +0.002 A 
ATOM     26  C   UNL     1      -4.914   2.217  -1.770  0.00  0.00    +0.030 A 
ENDBRANCH  18  21
ENDBRANCH  17  18
ENDBRANCH  10  17
TORSDOF 6
