REMARK  Name = ZINC11691864
REMARK  9 active torsions:
REMARK  status: ('A' for Active; 'I' for Inactive)
REMARK    1  A    between atoms: C_1  and  C_2
REMARK    2  A    between atoms: C_3  and  C_31
REMARK    3  A    between atoms: C_9  and  C_30
REMARK    4  A    between atoms: C_10  and  C_17
REMARK    5  A    between atoms: C_15  and  C_16
REMARK    6  A    between atoms: C_17  and  C_18
REMARK    7  A    between atoms: C_18  and  C_19
REMARK    8  A    between atoms: N_21  and  C_22
REMARK    9  A    between atoms: C_22  and  C_23
REMARK                            x       y       z     vdW  Elec       q    Type
REMARK                         _______ _______ _______ _____ _____    ______ ____
ROOT
ATOM      1  C   UNL     1       6.898  -1.374  -0.073  0.00  0.00    +0.048 C 
ATOM      2  C   UNL     1       6.257  -0.010  -0.059  0.00  0.00    -0.002 A 
ATOM      3  C   UNL     1       6.883   1.173  -0.059  0.00  0.00    +0.106 A 
ATOM      4  O   UNL     1       5.987   2.175  -0.045  0.00  0.00    -0.459 OA
ATOM      5  C   UNL     1       4.726   1.695  -0.035  0.00  0.00    +0.142 A 
ATOM      6  C   UNL     1       4.818   0.288  -0.043  0.00  0.00    +0.024 A 
ATOM      7  C   UNL     1       3.670  -0.492  -0.036  0.00  0.00    +0.023 A 
ATOM      8  C   UNL     1       2.422   0.130  -0.021  0.00  0.00    +0.022 A 
ATOM      9  C   UNL     1       1.188  -0.663  -0.013  0.00  0.00    -0.030 A 
ATOM     10  C   UNL     1       0.002  -0.004   0.002  0.00  0.00    +0.041 A 
ATOM     11  C   UNL     1      -0.017   1.407   0.010  0.00  0.00    +0.341 A 
ATOM     12  O   UNL     1      -1.089   1.985   0.018  0.00  0.00    -0.245 OA
ATOM     13  O   UNL     1       1.114   2.129   0.003  0.00  0.00    -0.422 OA
ATOM     14  C   UNL     1       2.330   1.538  -0.012  0.00  0.00    +0.146 A 
ATOM     15  C   UNL     1       3.481   2.306  -0.019  0.00  0.00    +0.035 A 
ATOM     16  C   UNL     1       3.381   3.810  -0.010  0.00  0.00    +0.051 C 
ATOM     17  C   UNL     1       1.237  -2.169  -0.022  0.00  0.00    +0.045 C 
ATOM     18  C   UNL     1       8.379   1.355  -0.074  0.00  0.00    +0.086 C 
ENDROOT
BRANCH  10  19
ATOM     19  C   UNL     1      -1.291  -0.777   0.010  0.00  0.00    +0.052 C 
BRANCH  19  20
ATOM     20  C   UNL     1      -1.742  -1.031  -1.430  0.00  0.00    +0.100 C 
BRANCH  20  21
ATOM     21  C   UNL     1      -3.036  -1.804  -1.422  0.00  0.00    +0.214 C 
ATOM     22  O   UNL     1      -3.547  -2.121  -0.369  0.00  0.00    -0.276 OA
ATOM     23  N   UNL     1      -3.625  -2.144  -2.586  0.00  0.00    -0.311 N 
ATOM     24  H   UNL     1      -3.217  -1.891  -3.428  0.00  0.00    +0.149 HD
BRANCH  23  25
ATOM     25  C   UNL     1      -4.883  -2.896  -2.578  0.00  0.00    +0.139 C 
BRANCH  25  26
ATOM     26  C   UNL     1      -5.327  -3.146  -3.997  0.00  0.00    -0.030 A 
ATOM     27  C   UNL     1      -6.149  -2.235  -4.634  0.00  0.00    +0.006 A 
ATOM     28  C   UNL     1      -6.553  -2.461  -5.936  0.00  0.00    +0.020 A 
ATOM     29  C   UNL     1      -6.142  -3.604  -6.599  0.00  0.00    +0.041 A 
ATOM     30  C   UNL     1      -5.323  -4.518  -5.959  0.00  0.00    +0.020 A 
ATOM     31  C   UNL     1      -4.916  -4.288  -4.658  0.00  0.00    +0.006 A 
ATOM     32 CL   UNL     1      -6.653  -3.892  -8.232  0.00  0.00    -0.084 Cl
ENDBRANCH  25  26
ENDBRANCH  23  25
ENDBRANCH  20  21
ENDBRANCH  19  20
ENDBRANCH  10  19
TORSDOF 5
