REMARK  Name = ZINC13501241
REMARK  11 active torsions:
REMARK  status: ('A' for Active; 'I' for Inactive)
REMARK    1  A    between atoms: C_1  and  C_2
REMARK    2  A    between atoms: C_4  and  C_35
REMARK    3  A    between atoms: C_9  and  C_14
REMARK    4  A    between atoms: C_14  and  N_73
REMARK    5  A    between atoms: C_15  and  C_16
REMARK    6  A    between atoms: C_15  and  N_73
REMARK    7  A    between atoms: C_16  and  C_17
REMARK    8  A    between atoms: C_17  and  O_18
REMARK    9  A    between atoms: C_19  and  C_24
REMARK   10  A    between atoms: C_19  and  N_73
REMARK   11  A    between atoms: N_28  and  C_29
REMARK                            x       y       z     vdW  Elec       q    Type
REMARK                         _______ _______ _______ _____ _____    ______ ____
ROOT
ATOM      1  N   UNL     1      -1.427   7.915  -1.402  0.00  0.00    +0.391 N 
ATOM      2  H   UNL     1      -2.179   7.250  -1.617  0.00  0.00    -0.080 HD
ENDROOT
BRANCH   1   3
ATOM      3  C   UNL     1      -1.799   9.246  -1.925  0.00  0.00    -0.002 C 
ATOM      4  C   UNL     1      -0.667  10.264  -1.704  0.00  0.00    -0.004 C 
ATOM      5  C   UNL     1      -1.249  11.380  -0.808  0.00  0.00    -0.001 C 
ATOM      6  C   UNL     1      -2.426  10.698  -0.068  0.00  0.00    -0.001 C 
ATOM      7  C   UNL     1      -3.028   9.777  -1.158  0.00  0.00    -0.004 C 
BRANCH   3   8
ATOM      8  C   UNL     1      -2.115   9.137  -3.394  0.00  0.00    +0.141 A 
ATOM      9  N   UNL     1      -2.054   8.053  -4.130  0.00  0.00    -0.115 NA
ATOM     10  N   UNL     1      -2.401   8.367  -5.330  0.00  0.00    -0.023 NA
ATOM     11  N   UNL     1      -2.673   9.624  -5.382  0.00  0.00    -0.044 NA
ATOM     12  N   UNL     1      -2.509  10.134  -4.208  0.00  0.00    -0.228 N 
BRANCH  12  13
ATOM     13  C   UNL     1      -2.713  11.535  -3.832  0.00  0.00    +0.111 C 
ATOM     14  C   UNL     1      -4.166  11.930  -4.105  0.00  0.00    +0.027 C 
ATOM     15  C   UNL     1      -4.379  13.393  -3.712  0.00  0.00    +0.002 C 
ATOM     16  C   UNL     1      -3.445  14.284  -4.534  0.00  0.00    +0.000 C 
ATOM     17  C   UNL     1      -1.992  13.888  -4.261  0.00  0.00    +0.002 C 
ATOM     18  C   UNL     1      -1.779  12.425  -4.654  0.00  0.00    +0.027 C 
ENDBRANCH  12  13
ENDBRANCH   3   8
ENDBRANCH   1   3
BRANCH   1  19
ATOM     19  C   UNL     1      -1.247   7.979   0.063  0.00  0.00    -0.036 C 
BRANCH  19  28
ATOM     20  C   UNL     1       3.162   2.539   2.629  0.00  0.00    +0.044 C 
ATOM     21  C   UNL     1       1.798   3.056   2.248  0.00  0.00    -0.050 A 
ATOM     22  C   UNL     1       0.689   2.232   2.380  0.00  0.00    +0.008 A 
ATOM     23  C   UNL     1      -0.567   2.683   2.033  0.00  0.00    -0.026 A 
ATOM     24  C   UNL     1      -0.727   3.980   1.557  0.00  0.00    +0.052 A 
ATOM     25  C   UNL     1       0.400   4.812   1.425  0.00  0.00    -0.001 A 
ATOM     26  C   UNL     1       1.665   4.332   1.778  0.00  0.00    +0.013 A 
ATOM     27  C   UNL     1       0.222   6.173   0.916  0.00  0.00    +0.017 A 
ATOM     28  C   UNL     1      -1.028   6.584   0.589  0.00  0.00    +0.001 A 
ATOM     29  C   UNL     1      -2.126   5.710   0.741  0.00  0.00    +0.251 A 
ATOM     30  O   UNL     1      -3.241   6.100   0.441  0.00  0.00    -0.268 OA
ATOM     31  N   UNL     1      -1.972   4.458   1.206  0.00  0.00    -0.322 N 
ATOM     32  H   UNL     1      -2.748   3.884   1.298  0.00  0.00    +0.169 HD
ATOM     33  C   UNL     1      -1.762   1.776   2.175  0.00  0.00    +0.046 C 
ENDBRANCH  19  28
ENDBRANCH   1  19
BRANCH   1  34
ATOM     34  C   UNL     1      -0.179   7.451  -2.045  0.00  0.00    -0.075 C 
BRANCH  34  35
ATOM     35  C   UNL     1      -0.200   5.922  -2.104  0.00  0.00    +0.009 C 
BRANCH  35  36
ATOM     36  C   UNL     1       1.100   5.418  -2.733  0.00  0.00    +0.154 C 
BRANCH  36  37
ATOM     37  O   UNL     1       1.080   3.990  -2.789  0.00  0.00    -0.395 OA
ATOM     38  H   UNL     1       1.875   3.601  -3.178  0.00  0.00    +0.209 HD
ENDBRANCH  36  37
ENDBRANCH  35  36
ENDBRANCH  34  35
ENDBRANCH   1  34
TORSDOF 9
