REMARK  Name = ZINC00845114
REMARK  10 active torsions:
REMARK  status: ('A' for Active; 'I' for Inactive)
REMARK    1  A    between atoms: C_1  and  C_2
REMARK    2  A    between atoms: C_2  and  O_3
REMARK    3  A    between atoms: O_3  and  C_4
REMARK    4  A    between atoms: C_4  and  C_6
REMARK    5  A    between atoms: C_7  and  C_26
REMARK    6  A    between atoms: C_8  and  C_25
REMARK    7  A    between atoms: C_10  and  N_11
REMARK    8  A    between atoms: C_12  and  C_14
REMARK    9  A    between atoms: C_14  and  N_15
REMARK   10  A    between atoms: C_16  and  C_24
REMARK                            x       y       z     vdW  Elec       q    Type
REMARK                         _______ _______ _______ _____ _____    ______ ____
ROOT
ATOM      1  N   UNL     1       1.553  -1.965  -0.023  0.00  0.00    -0.278 N 
ATOM      2  C   UNL     1       2.838  -2.370  -0.038  0.00  0.00    +0.239 C 
ATOM      3  O   UNL     1       3.732  -1.551  -0.042  0.00  0.00    -0.273 OA
ATOM      4  H   UNL     1       0.838  -2.620  -0.020  0.00  0.00    +0.155 HD
ENDROOT
BRANCH   1   9
ATOM      5  C   UNL     1       0.002  -0.004   0.002  0.00  0.00    +0.091 A 
ATOM      6  C   UNL     1      -0.018   1.440   0.010  0.00  0.00    -0.025 A 
ATOM      7  C   UNL     1       1.170   2.070   0.002  0.00  0.00    -0.008 A 
ATOM      8  S   UNL     1       2.345   0.732  -0.016  0.00  0.00    -0.078 S 
ATOM      9  C   UNL     1       1.253  -0.612  -0.013  0.00  0.00    +0.086 A 
ATOM     10  C   UNL     1       1.442   3.552   0.007  0.00  0.00    +0.052 C 
ATOM     11  C   UNL     1      -1.314   2.208   0.020  0.00  0.00    +0.045 C 
BRANCH   5  12
ATOM     12  C   UNL     1      -1.234  -0.789   0.010  0.00  0.00    +0.342 C 
ATOM     13  O   UNL     1      -1.758  -1.110  -1.040  0.00  0.00    -0.245 OA
BRANCH  12  14
ATOM     14  O   UNL     1      -1.791  -1.157   1.182  0.00  0.00    -0.461 OA
BRANCH  14  16
ATOM     15  C   UNL     1      -3.495  -2.256   2.531  0.00  0.00    +0.048 C 
ATOM     16  C   UNL     1      -3.016  -1.935   1.114  0.00  0.00    +0.229 C 
ENDBRANCH  14  16
ENDBRANCH  12  14
ENDBRANCH   5  12
ENDBRANCH   1   9
BRANCH   2  17
ATOM     17  C   UNL     1       3.164  -3.842  -0.049  0.00  0.00    +0.239 C 
BRANCH  17  18
ATOM     18  N   UNL     1       4.618  -4.020  -0.064  0.00  0.00    -0.256 N 
ATOM     19  C   UNL     1       5.417  -4.122   1.020  0.00  0.00    +0.053 A 
ATOM     20  C   UNL     1       6.689  -4.276   0.582  0.00  0.00    +0.089 A 
ATOM     21  C   UNL     1       6.666  -4.267  -0.817  0.00  0.00    +0.249 A 
ATOM     22  N   UNL     1       5.425  -4.120  -1.205  0.00  0.00    -0.145 NA
ATOM     23  N   UNL     1       7.841  -4.408  -1.705  0.00  0.00    +0.078 N 
ATOM     24  O   UNL     1       8.953  -4.546  -1.227  0.00  0.00    -0.125 OA
ATOM     25  O   UNL     1       7.697  -4.385  -2.914  0.00  0.00    -0.125 OA
ATOM     26 BR   UNL     1       8.224  -4.467   1.669  0.00  0.00    -0.044 Br
ATOM     27  C   UNL     1       4.973  -4.074   2.459  0.00  0.00    +0.066 C 
ENDBRANCH  17  18
ENDBRANCH   2  17
TORSDOF 6
