REMARK  Name = ZINC01009153
REMARK  6 active torsions:
REMARK  status: ('A' for Active; 'I' for Inactive)
REMARK    1  A    between atoms: C_1  and  C_2
REMARK    2  A    between atoms: C_5  and  C_8
REMARK    3  A    between atoms: C_11  and  C_34
REMARK    4  A    between atoms: C_16  and  C_18
REMARK    5  A    between atoms: N_20  and  C_21
REMARK    6  A    between atoms: C_21  and  C_22
REMARK                            x       y       z     vdW  Elec       q    Type
REMARK                         _______ _______ _______ _____ _____    ______ ____
ROOT
ATOM      1  C   UNL     1       2.479   0.244  -0.317  0.00  0.00    +0.104 C 
ATOM      2  C   UNL     1       1.382  -0.484   0.467  0.00  0.00    +0.063 C 
ATOM      3  C   UNL     1       0.002  -0.004   0.002  0.00  0.00    +0.215 C 
ATOM      4  N   UNL     1      -0.018   1.461   0.010  0.00  0.00    -0.238 N 
ATOM      5  C   UNL     1       1.108   2.235   0.004  0.00  0.00    +0.119 A 
ATOM      6  C   UNL     1       0.730   3.528   0.017  0.00  0.00    +0.078 A 
ATOM      7  C   UNL     1      -0.683   3.559   0.031  0.00  0.00    +0.149 A 
ATOM      8  N   UNL     1      -1.122   2.312   0.031  0.00  0.00    -0.164 NA
ATOM      9  N   UNL     1       2.394   1.686  -0.016  0.00  0.00    -0.322 N 
ATOM     10  H   UNL     1       3.311   2.263   0.176  0.00  0.00    +0.148 HD
ENDROOT
BRANCH   1  15
ATOM     11  C   UNL     1       1.703  -0.606  -5.980  0.00  0.00    +0.044 C 
ATOM     12  C   UNL     1       1.906  -0.384  -4.504  0.00  0.00    -0.050 A 
ATOM     13  C   UNL     1       2.843  -1.131  -3.815  0.00  0.00    +0.004 A 
ATOM     14  C   UNL     1       3.029  -0.928  -2.460  0.00  0.00    +0.006 A 
ATOM     15  C   UNL     1       2.277   0.022  -1.794  0.00  0.00    -0.027 A 
ATOM     16  C   UNL     1       1.336   0.765  -2.482  0.00  0.00    +0.006 A 
ATOM     17  C   UNL     1       1.154   0.566  -3.838  0.00  0.00    +0.004 A 
ENDBRANCH   1  15
BRANCH   7  18
ATOM     18  C   UNL     1      -1.524   4.774   0.048  0.00  0.00    +0.265 C 
ATOM     19  O   UNL     1      -1.003   5.872   0.050  0.00  0.00    -0.268 OA
ATOM     20  N   UNL     1      -2.867   4.664   0.060  0.00  0.00    -0.305 N 
ATOM     21  H   UNL     1      -3.337   3.670   0.058  0.00  0.00    +0.149 HD
BRANCH  20  22
ATOM     22  C   UNL     1      -3.700   5.869   0.076  0.00  0.00    +0.157 C 
BRANCH  22  23
ATOM     23  C   UNL     1      -5.154   5.473   0.088  0.00  0.00    +0.034 A 
ATOM     24  C   UNL     1      -5.912   5.356   1.189  0.00  0.00    +0.032 A 
ATOM     25  C   UNL     1      -7.250   4.956   0.748  0.00  0.00    +0.001 A 
ATOM     26  C   UNL     1      -8.449   4.684   1.410  0.00  0.00    +0.030 A 
ATOM     27  C   UNL     1      -9.555   4.324   0.691  0.00  0.00    +0.042 A 
ATOM     28  C   UNL     1      -9.495   4.229  -0.694  0.00  0.00    +0.022 A 
ATOM     29  C   UNL     1      -8.322   4.493  -1.366  0.00  0.00    +0.027 A 
ATOM     30  C   UNL     1      -7.185   4.860  -0.654  0.00  0.00    +0.047 A 
ATOM     31  N   UNL     1      -5.899   5.186  -1.024  0.00  0.00    -0.357 N 
ATOM     32  H   UNL     1      -5.440   5.239  -2.022  0.00  0.00    +0.166 HD
ATOM     33 CL   UNL     1     -11.046   3.986   1.514  0.00  0.00    -0.084 Cl
ENDBRANCH  22  23
ENDBRANCH  20  22
ENDBRANCH   7  18
BRANCH   3  34
ATOM     34  C   UNL     1      -1.073  -0.536   0.952  0.00  0.00    +0.412 C 
ATOM     35  F   UNL     1      -2.329  -0.086   0.534  0.00  0.00    -0.168 F 
ATOM     36  F   UNL     1      -1.052  -1.935   0.943  0.00  0.00    -0.168 F 
ATOM     37  F   UNL     1      -0.819  -0.075   2.248  0.00  0.00    -0.168 F 
ENDBRANCH   3  34
TORSDOF 5
