REMARK  Name = ZINC36704288
REMARK  8 active torsions:
REMARK  status: ('A' for Active; 'I' for Inactive)
REMARK    1  A    between atoms: C_1  and  N_2
REMARK    2  A    between atoms: N_2  and  C_3
REMARK    3  A    between atoms: N_2  and  C_4
REMARK    4  A    between atoms: C_4  and  C_5
REMARK    5  A    between atoms: C_5  and  N_6
REMARK    6  A    between atoms: C_18  and  C_20
REMARK    7  A    between atoms: N_23  and  S_26
REMARK    8  A    between atoms: S_26  and  C_29
REMARK                            x       y       z     vdW  Elec       q    Type
REMARK                         _______ _______ _______ _____ _____    ______ ____
ROOT
ATOM      1  N   UNL     1      -3.506  -0.544  -1.623  0.00  0.00    -0.252 N 
ATOM      2  C   UNL     1      -4.579   0.292  -1.353  0.00  0.00    +0.168 A 
ATOM      3  N   UNL     1      -4.590   1.596  -1.206  0.00  0.00    -0.221 NA
ATOM      4  C   UNL     1      -5.721   2.288  -0.943  0.00  0.00    +0.116 A 
ATOM      5  C   UNL     1      -5.868   3.684  -0.761  0.00  0.00    +0.152 A 
ATOM      6  C   UNL     1      -7.098   4.231  -0.497  0.00  0.00    +0.079 A 
ATOM      7  C   UNL     1      -8.237   3.440  -0.398  0.00  0.00    +0.127 A 
ATOM      8  C   UNL     1      -8.127   2.071  -0.570  0.00  0.00    +0.055 A 
ATOM      9  C   UNL     1      -6.899   1.516  -0.836  0.00  0.00    +0.046 A 
ATOM     10  S   UNL     1      -6.300  -0.131  -1.126  0.00  0.00    -0.052 S 
ATOM     11  F   UNL     1      -9.437   4.002  -0.137  0.00  0.00    -0.205 F 
ATOM     12  F   UNL     1      -4.785   4.487  -0.849  0.00  0.00    -0.203 F 
ATOM     13  C   UNL     1      -3.717  -1.853  -1.866  0.00  0.00    +0.224 C 
ATOM     14  O   UNL     1      -2.774  -2.604  -2.000  0.00  0.00    -0.275 OA
ENDROOT
BRANCH  13  15
ATOM     15  C   UNL     1      -5.123  -2.383  -1.972  0.00  0.00    +0.078 C 
ATOM     16  C   UNL     1      -5.665  -2.676  -0.571  0.00  0.00    +0.030 C 
ATOM     17  C   UNL     1      -7.107  -3.182  -0.681  0.00  0.00    +0.110 C 
ATOM     18  N   UNL     1      -7.135  -4.334  -1.592  0.00  0.00    -0.176 NA
ATOM     19  C   UNL     1      -6.557  -4.187  -2.935  0.00  0.00    +0.110 C 
ATOM     20  C   UNL     1      -5.122  -3.670  -2.800  0.00  0.00    +0.030 C 
BRANCH  18  21
ATOM     21  S   UNL     1      -7.806  -5.771  -1.115  0.00  0.00    +0.067 S 
ATOM     22  O   UNL     1      -7.211  -6.783  -1.916  0.00  0.00    -0.152 OA
ATOM     23  O   UNL     1      -7.752  -5.793   0.305  0.00  0.00    -0.152 OA
BRANCH  21  24
ATOM     24  C   UNL     1      -9.512  -5.721  -1.553  0.00  0.00    +0.143 A 
ATOM     25  C   UNL     1     -10.111  -6.120  -2.701  0.00  0.00    +0.036 A 
ATOM     26  C   UNL     1     -11.481  -5.985  -2.825  0.00  0.00    +0.010 A 
ATOM     27  C   UNL     1     -12.185  -5.457  -1.794  0.00  0.00    +0.047 A 
ATOM     28  S   UNL     1     -10.902  -5.138  -0.595  0.00  0.00    -0.077 S 
ENDBRANCH  21  24
ENDBRANCH  18  21
ENDBRANCH  13  15
BRANCH   1  29
ATOM     29  C   UNL     1      -2.144  -0.004  -1.643  0.00  0.00    +0.097 C 
BRANCH  29  30
ATOM     30  C   UNL     1      -1.501  -0.193  -0.268  0.00  0.00    -0.060 C 
BRANCH  30  32
ATOM     31  C   UNL     1      -0.187   1.801  -0.497  0.00  0.00    -0.097 C 
ATOM     32  N   UNL     1      -0.135   0.348  -0.289  0.00  0.00    +0.377 N 
ATOM     33  C   UNL     1       0.525   0.060   0.992  0.00  0.00    -0.097 C 
ATOM     34  H   UNL     1       0.386  -0.081  -1.039  0.00  0.00    -0.083 HD
ENDBRANCH  30  32
ENDBRANCH  29  30
ENDBRANCH   1  29
TORSDOF 6
