REMARK  Name = ZINC66931617
REMARK  4 active torsions:
REMARK  status: ('A' for Active; 'I' for Inactive)
REMARK    1  A    between atoms: C_8  and  C_12
REMARK    2  A    between atoms: N_14  and  C_15
REMARK    3  A    between atoms: C_15  and  C_16
REMARK    4  A    between atoms: C_16  and  O_26
REMARK                            x       y       z     vdW  Elec       q    Type
REMARK                         _______ _______ _______ _____ _____    ______ ____
ROOT
ATOM      1  C   UNL     1       2.585  -4.198   0.683  0.00  0.00    +0.251 C 
ATOM      2  O   UNL     1       1.595  -4.901   0.613  0.00  0.00    -0.270 OA
ATOM      3  N   UNL     1       3.811  -4.757   0.648  0.00  0.00    -0.308 N 
ATOM      4  H   UNL     1       4.601  -4.196   0.704  0.00  0.00    +0.149 HD
ENDROOT
BRANCH   1  12
ATOM      5  C   UNL     1      -0.104   1.290   1.325  0.00  0.00    +0.001 A 
ATOM      6  C   UNL     1       1.061   2.035   1.206  0.00  0.00    +0.004 A 
ATOM      7  C   UNL     1       2.265   1.418   0.933  0.00  0.00    +0.047 A 
ATOM      8  C   UNL     1       2.316   0.039   0.784  0.00  0.00    +0.139 A 
ATOM      9  C   UNL     1       1.140  -0.719   0.933  0.00  0.00    +0.018 A 
ATOM     10  C   UNL     1      -0.077  -0.068   1.188  0.00  0.00    +0.011 A 
ATOM     11  C   UNL     1       1.195  -2.134   0.846  0.00  0.00    +0.031 A 
ATOM     12  C   UNL     1       2.444  -2.737   0.807  0.00  0.00    +0.122 A 
ATOM     13  C   UNL     1       3.624  -1.859   0.894  0.00  0.00    +0.350 A 
ATOM     14  O   UNL     1       4.687  -2.273   1.319  0.00  0.00    -0.244 OA
ATOM     15  O   UNL     1       3.487  -0.576   0.488  0.00  0.00    -0.422 OA
ENDBRANCH   1  12
BRANCH   3  16
ATOM     16  C   UNL     1       3.951  -6.210   0.525  0.00  0.00    +0.144 C 
BRANCH  16  17
ATOM     17  C   UNL     1       5.428  -6.592   0.645  0.00  0.00    +0.107 C 
ATOM     18  C   UNL     1       5.973  -6.083   1.977  0.00  0.00    +0.041 C 
ATOM     19  C   UNL     1       7.380  -6.659   2.175  0.00  0.00    +0.008 C 
ATOM     20  C   UNL     1       7.254  -8.159   2.433  0.00  0.00    +0.035 C 
ATOM     21  C   UNL     1       6.404  -8.809   1.373  0.00  0.00    -0.041 A 
ATOM     22  C   UNL     1       5.562  -8.089   0.554  0.00  0.00    -0.011 A 
ATOM     23  C   UNL     1       4.800  -8.751  -0.399  0.00  0.00    +0.007 A 
ATOM     24  C   UNL     1       4.881 -10.121  -0.535  0.00  0.00    +0.000 A 
ATOM     25  C   UNL     1       5.729 -10.843   0.284  0.00  0.00    +0.000 A 
ATOM     26  C   UNL     1       6.486 -10.188   1.233  0.00  0.00    +0.004 A 
BRANCH  17  27
ATOM     27  O   UNL     1       6.159  -5.988  -0.424  0.00  0.00    -0.382 OA
ATOM     28  H   UNL     1       5.862  -6.257  -1.305  0.00  0.00    +0.211 HD
ENDBRANCH  17  27
ENDBRANCH  16  17
ENDBRANCH   3  16
TORSDOF 4
