REMARK  Name = ZINC26688680
REMARK  8 active torsions:
REMARK  status: ('A' for Active; 'I' for Inactive)
REMARK    1  A    between atoms: C_1  and  C_2
REMARK    2  A    between atoms: C_2  and  C_3
REMARK    3  A    between atoms: C_3  and  C_4
REMARK    4  A    between atoms: C_4  and  N_5
REMARK    5  A    between atoms: C_6  and  C_25
REMARK    6  A    between atoms: C_7  and  N_17
REMARK    7  A    between atoms: N_10  and  C_11
REMARK    8  A    between atoms: C_18  and  C_20
REMARK                            x       y       z     vdW  Elec       q    Type
REMARK                         _______ _______ _______ _____ _____    ______ ____
ROOT
ATOM      1  N   UNL     1      -3.676   3.195   0.041  0.00  0.00    -0.319 N 
ATOM      2  C   UNL     1      -2.555   3.895   0.411  0.00  0.00    +0.079 A 
ATOM      3  C   UNL     1      -2.612   5.250   0.485  0.00  0.00    +0.100 A 
ATOM      4  S   UNL     1      -4.306   5.579   0.026  0.00  0.00    -0.036 S 
ATOM      5  C   UNL     1      -4.828   3.891  -0.234  0.00  0.00    +0.154 A 
ATOM      6  N   UNL     1      -6.010   3.433  -0.600  0.00  0.00    -0.336 N 
ATOM      7  H   UNL     1      -6.192   2.349  -0.639  0.00  0.00    +0.168 HD
ENDROOT
BRANCH   6   8
ATOM      8  C   UNL     1      -7.009   4.306  -0.932  0.00  0.00    +0.041 A 
ATOM      9  C   UNL     1      -7.936   4.711   0.033  0.00  0.00    +0.025 A 
ATOM     10  C   UNL     1      -8.937   5.596  -0.308  0.00  0.00    +0.002 A 
ATOM     11  C   UNL     1      -9.032   6.074  -1.603  0.00  0.00    +0.000 A 
ATOM     12  C   UNL     1      -8.121   5.673  -2.564  0.00  0.00    +0.002 A 
ATOM     13  C   UNL     1      -7.111   4.793  -2.237  0.00  0.00    +0.025 A 
ENDBRANCH   6   8
BRANCH   2  14
ATOM     14  C   UNL     1      -1.299   3.183   0.720  0.00  0.00    +0.001 A 
ATOM     15  C   UNL     1      -0.883   2.115  -0.079  0.00  0.00    +0.010 A 
ATOM     16  C   UNL     1       0.288   1.451   0.218  0.00  0.00    +0.001 A 
ATOM     17  C   UNL     1       1.058   1.848   1.298  0.00  0.00    +0.000 A 
ATOM     18  C   UNL     1       0.655   2.909   2.090  0.00  0.00    +0.001 A 
ATOM     19  C   UNL     1      -0.518   3.578   1.808  0.00  0.00    +0.010 A 
ENDBRANCH   2  14
BRANCH   3  20
ATOM     20  N   UNL     1      -1.608   6.150   0.830  0.00  0.00    -0.272 N 
ATOM     21  C   UNL     1      -1.903   7.453   1.009  0.00  0.00    +0.284 C 
ATOM     22  O   UNL     1      -3.048   7.842   0.869  0.00  0.00    -0.266 OA
ATOM     23  H   UNL     1      -0.573   5.799   0.957  0.00  0.00    +0.156 HD
BRANCH  21  24
ATOM     24  C   UNL     1      -0.846   8.402   1.372  0.00  0.00    +0.189 A 
ATOM     25  C   UNL     1      -1.006   9.742   1.577  0.00  0.00    +0.054 A 
ATOM     26  C   UNL     1       0.259  10.254   1.906  0.00  0.00    +0.042 A 
ATOM     27  C   UNL     1       1.126   9.219   1.879  0.00  0.00    +0.196 A 
ATOM     28  O   UNL     1       0.457   8.104   1.557  0.00  0.00    -0.458 OA
ENDBRANCH  21  24
ENDBRANCH   3  20
BRANCH   1  29
ATOM     29  C   UNL     1      -3.647   1.733  -0.054  0.00  0.00    +0.124 C 
BRANCH  29  30
ATOM     30  C   UNL     1      -4.992   1.165   0.403  0.00  0.00    +0.021 C 
BRANCH  30  32
ATOM     31  C   UNL     1      -6.260  -0.931   0.894  0.00  0.00    +0.004 C 
ATOM     32  C   UNL     1      -4.915  -0.363   0.436  0.00  0.00    -0.002 C 
ENDBRANCH  30  32
ENDBRANCH  29  30
ENDBRANCH   1  29
TORSDOF 7
