REMARK  Name = ZINC34681404
REMARK  4 active torsions:
REMARK  status: ('A' for Active; 'I' for Inactive)
REMARK    1  A    between atoms: C_6  and  S_7
REMARK    2  A    between atoms: S_7  and  N_10
REMARK    3  A    between atoms: C_20  and  N_23
REMARK    4  A    between atoms: N_26  and  C_27
REMARK                            x       y       z     vdW  Elec       q    Type
REMARK                         _______ _______ _______ _____ _____    ______ ____
ROOT
ATOM      1  N   UNL     1      -1.941  -1.170  -1.615  0.00  0.00    -0.175 NA
ATOM      2  C   UNL     1      -2.761  -0.191  -2.269  0.00  0.00    +0.111 C 
ATOM      3  C   UNL     1      -4.231  -0.520  -1.959  0.00  0.00    +0.036 C 
ATOM      4  C   UNL     1      -4.730  -1.629  -2.787  0.00  0.00    +0.108 C 
ATOM      5  N   UNL     1      -3.905  -2.842  -2.575  0.00  0.00    -0.315 N 
ATOM      6  C   UNL     1      -2.616  -2.954  -3.199  0.00  0.00    +0.123 C 
ATOM      7  C   UNL     1      -1.472  -2.401  -2.309  0.00  0.00    +0.128 C 
ATOM      8  C   UNL     1      -4.380  -3.874  -1.769  0.00  0.00    +0.099 A 
ATOM      9  C   UNL     1      -3.647  -5.051  -1.657  0.00  0.00    +0.043 A 
ATOM     10  C   UNL     1      -4.128  -6.070  -0.855  0.00  0.00    +0.028 A 
ATOM     11  C   UNL     1      -5.335  -5.875  -0.186  0.00  0.00    +0.051 A 
ATOM     12  C   UNL     1      -6.011  -4.676  -0.346  0.00  0.00    +0.107 A 
ATOM     13  N   UNL     1      -5.520  -3.722  -1.115  0.00  0.00    -0.348 N 
ATOM     14  H   UNL     1      -6.010  -2.890  -1.207  0.00  0.00    +0.167 HD
ENDROOT
BRANCH  11  15
ATOM     15  N   UNL     1      -5.860  -6.881   0.638  0.00  0.00    -0.268 N 
ATOM     16  C   UNL     1      -5.031  -7.671   1.348  0.00  0.00    +0.308 C 
ATOM     17  O   UNL     1      -3.836  -7.450   1.353  0.00  0.00    -0.252 OA
ATOM     18  N   UNL     1      -5.528  -8.707   2.054  0.00  0.00    -0.269 N 
ATOM     19  H   UNL     1      -6.820  -7.008   0.696  0.00  0.00    +0.156 HD
ATOM     20  H   UNL     1      -6.487  -8.844   2.104  0.00  0.00    +0.156 HD
BRANCH  18  21
ATOM     21  C   UNL     1      -4.659  -9.584   2.715  0.00  0.00    +0.038 A 
ATOM     22  C   UNL     1      -4.968 -10.935   2.800  0.00  0.00    +0.026 A 
ATOM     23  C   UNL     1      -4.110 -11.800   3.452  0.00  0.00    +0.043 A 
ATOM     24  C   UNL     1      -2.943 -11.322   4.020  0.00  0.00    +0.159 A 
ATOM     25  C   UNL     1      -2.631  -9.973   3.938  0.00  0.00    +0.160 A 
ATOM     26  C   UNL     1      -3.485  -9.105   3.281  0.00  0.00    +0.064 A 
ATOM     27  F   UNL     1      -1.492  -9.507   4.493  0.00  0.00    -0.202 F 
ATOM     28  F   UNL     1      -2.105 -12.169   4.657  0.00  0.00    -0.202 F 
ENDBRANCH  18  21
ENDBRANCH  11  15
BRANCH   1  29
ATOM     29  S   UNL     1      -1.497  -0.920  -0.039  0.00  0.00    +0.061 S 
ATOM     30  O   UNL     1      -1.205  -2.198   0.508  0.00  0.00    -0.153 OA
ATOM     31  O   UNL     1      -2.472  -0.053   0.525  0.00  0.00    -0.153 OA
BRANCH  29  37
ATOM     32  C   UNL     1       0.006   1.359  -0.063  0.00  0.00    +0.030 A 
ATOM     33  C   UNL     1       1.196   2.063  -0.080  0.00  0.00    +0.022 A 
ATOM     34  C   UNL     1       2.401   1.383  -0.097  0.00  0.00    +0.041 A 
ATOM     35  C   UNL     1       2.414  -0.000  -0.095  0.00  0.00    +0.022 A 
ATOM     36  C   UNL     1       1.224  -0.703  -0.078  0.00  0.00    +0.030 A 
ATOM     37  C   UNL     1       0.020  -0.023  -0.062  0.00  0.00    +0.106 A 
ATOM     38 CL   UNL     1       3.895   2.266  -0.119  0.00  0.00    -0.084 Cl
ENDBRANCH  29  37
ENDBRANCH   1  29
TORSDOF 4
