REMARK  Name = ZINC20755238
REMARK  4 active torsions:
REMARK  status: ('A' for Active; 'I' for Inactive)
REMARK    1  A    between atoms: C_10  and  C_26
REMARK    2  A    between atoms: C_13  and  C_15
REMARK    3  A    between atoms: C_20  and  O_21
REMARK    4  A    between atoms: O_21  and  C_22
REMARK                            x       y       z     vdW  Elec       q    Type
REMARK                         _______ _______ _______ _____ _____    ______ ____
ROOT
ATOM      1  C   UNL     1      -0.016   1.362   0.009  0.00  0.00    +0.002 A 
ATOM      2  C   UNL     1       1.168   2.084   0.002  0.00  0.00    +0.002 A 
ATOM      3  C   UNL     1       2.384   1.434  -0.013  0.00  0.00    +0.028 A 
ATOM      4  C   UNL     1       2.426   0.046  -0.020  0.00  0.00    +0.069 A 
ATOM      5  C   UNL     1       1.222  -0.686  -0.013  0.00  0.00    +0.066 A 
ATOM      6  C   UNL     1       0.002  -0.004   0.002  0.00  0.00    +0.028 A 
ATOM      7  N   UNL     1       1.549  -2.004  -0.024  0.00  0.00    -0.324 N 
ATOM      8  C   UNL     1       2.848  -2.135  -0.023  0.00  0.00    +0.210 A 
ATOM      9  N   UNL     1       3.434  -0.885  -0.034  0.00  0.00    -0.302 N 
ATOM     10  C   UNL     1       4.887  -0.699  -0.062  0.00  0.00    +0.126 C 
ATOM     11  C   UNL     1       5.532  -1.893   0.649  0.00  0.00    +0.086 C 
ATOM     12  C   UNL     1       4.876  -3.182   0.242  0.00  0.00    +0.058 C 
ATOM     13  N   UNL     1       3.602  -3.269  -0.034  0.00  0.00    -0.218 NA
ATOM     14  H   UNL     1       0.914  -2.737  -0.033  0.00  0.00    +0.169 HD
ENDROOT
BRANCH  12  15
ATOM     15  C   UNL     1       5.700  -4.393   0.151  0.00  0.00    +0.038 A 
ATOM     16  C   UNL     1       7.068  -4.338   0.445  0.00  0.00    +0.015 A 
ATOM     17  C   UNL     1       7.835  -5.478   0.357  0.00  0.00    +0.021 A 
ATOM     18  C   UNL     1       7.259  -6.682  -0.021  0.00  0.00    +0.044 A 
ATOM     19  C   UNL     1       5.910  -6.751  -0.315  0.00  0.00    +0.066 A 
ATOM     20  C   UNL     1       5.121  -5.616  -0.227  0.00  0.00    +0.137 A 
ATOM     21 CL   UNL     1       8.239  -8.111  -0.127  0.00  0.00    -0.083 Cl
BRANCH  20  22
ATOM     22  O   UNL     1       3.796  -5.683  -0.509  0.00  0.00    -0.434 OA
BRANCH  22  23
ATOM     23  C   UNL     1       3.277  -6.960  -0.886  0.00  0.00    +0.541 C 
ATOM     24  F   UNL     1       3.930  -7.407  -2.040  0.00  0.00    -0.166 F 
ATOM     25  F   UNL     1       3.487  -7.874   0.152  0.00  0.00    -0.166 F 
ENDBRANCH  22  23
ENDBRANCH  20  22
ENDBRANCH  12  15
BRANCH  10  26
ATOM     26  C   UNL     1       5.365  -0.637  -1.490  0.00  0.00    -0.024 A 
ATOM     27  C   UNL     1       5.148  -1.706  -2.338  0.00  0.00    +0.007 A 
ATOM     28  C   UNL     1       5.586  -1.650  -3.648  0.00  0.00    +0.015 A 
ATOM     29  C   UNL     1       6.241  -0.523  -4.111  0.00  0.00    +0.018 A 
ATOM     30  C   UNL     1       6.458   0.548  -3.261  0.00  0.00    +0.015 A 
ATOM     31  C   UNL     1       6.015   0.492  -1.953  0.00  0.00    +0.007 A 
ATOM     32 BR   UNL     1       6.840  -0.445  -5.902  0.00  0.00    -0.050 Br
ENDBRANCH  10  26
TORSDOF 4
