REMARK  Name = ZINC63162907
REMARK  6 active torsions:
REMARK  status: ('A' for Active; 'I' for Inactive)
REMARK    1  A    between atoms: C_6  and  C_10
REMARK    2  A    between atoms: C_10  and  S_11
REMARK    3  A    between atoms: S_11  and  C_12
REMARK    4  A    between atoms: C_16  and  C_25
REMARK    5  A    between atoms: N_18  and  C_19
REMARK    6  A    between atoms: C_19  and  C_20
REMARK                            x       y       z     vdW  Elec       q    Type
REMARK                         _______ _______ _______ _____ _____    ______ ____
ROOT
ATOM      1  C   UNL     1       3.204  -3.325  -4.398  0.00  0.00    +0.200 C 
ATOM      2  N   UNL     1       2.935  -4.643  -3.779  0.00  0.00    -0.229 NA
ATOM      3  N   UNL     1       4.107  -5.460  -4.129  0.00  0.00    -0.233 NA
ATOM      4  C   UNL     1       5.232  -4.493  -4.032  0.00  0.00    +0.178 C 
ATOM      5  N   UNL     1       4.670  -3.227  -4.560  0.00  0.00    -0.250 NA
ATOM      6  H   UNL     1       2.088  -5.049  -4.147  0.00  0.00    +0.143 HD
ATOM      7  H   UNL     1       4.226  -6.220  -3.476  0.00  0.00    +0.143 HD
ENDROOT
BRANCH   4   8
ATOM      8  C   UNL     1       6.394  -4.949  -4.876  0.00  0.00    +0.022 A 
ATOM      9  C   UNL     1       7.697  -5.088  -4.530  0.00  0.00    +0.014 A 
ATOM     10  C   UNL     1       8.600  -5.528  -5.480  0.00  0.00    +0.008 A 
ATOM     11  C   UNL     1       8.155  -5.807  -6.729  0.00  0.00    +0.045 A 
ATOM     12  S   UNL     1       6.410  -5.454  -6.588  0.00  0.00    -0.099 S 
ENDBRANCH   4   8
BRANCH   1  13
ATOM     13  S   UNL     1       2.607  -1.996  -3.317  0.00  0.00    -0.121 S 
BRANCH  13  14
ATOM     14  C   UNL     1       3.497  -2.265  -1.760  0.00  0.00    +0.118 C 
BRANCH  14  20
ATOM     15  C   UNL     1      -0.376   1.769  -1.355  0.00  0.00    +0.002 A 
ATOM     16  C   UNL     1       0.686   2.586  -1.779  0.00  0.00    +0.002 A 
ATOM     17  C   UNL     1       1.967   2.165  -1.793  0.00  0.00    +0.027 A 
ATOM     18  C   UNL     1       2.286   0.801  -1.351  0.00  0.00    +0.060 A 
ATOM     19  N   UNL     1       3.404   0.139  -1.259  0.00  0.00    -0.363 N 
ATOM     20  C   UNL     1       3.082  -1.198  -0.744  0.00  0.00    +0.184 C 
ATOM     21  N   UNL     1       1.627  -1.228  -0.548  0.00  0.00    -0.363 N 
ATOM     22  C   UNL     1       1.162  -0.065  -0.901  0.00  0.00    +0.060 A 
ATOM     23  C   UNL     1      -0.194   0.502  -0.930  0.00  0.00    +0.027 A 
ATOM     24  H   UNL     1       4.286   0.469  -1.488  0.00  0.00    +0.162 HD
ATOM     25  H   UNL     1       1.108  -1.977  -0.218  0.00  0.00    +0.162 HD
ENDBRANCH  14  20
ENDBRANCH  13  14
ENDBRANCH   1  13
BRANCH   5  26
ATOM     26  C   UNL     1       5.032  -3.037  -5.971  0.00  0.00    +0.163 C 
BRANCH  26  27
ATOM     27  C   UNL     1       4.534  -1.695  -6.441  0.00  0.00    +0.119 A 
ATOM     28  C   UNL     1       5.220  -0.539  -6.388  0.00  0.00    +0.046 A 
ATOM     29  C   UNL     1       4.380   0.461  -6.931  0.00  0.00    +0.041 A 
ATOM     30  C   UNL     1       3.232  -0.144  -7.284  0.00  0.00    +0.195 A 
ATOM     31  O   UNL     1       3.333  -1.451  -6.990  0.00  0.00    -0.467 OA
ENDBRANCH  26  27
ENDBRANCH   5  26
TORSDOF 6
