REMARK  Name = ZINC02342228
REMARK  5 active torsions:
REMARK  status: ('A' for Active; 'I' for Inactive)
REMARK    1  A    between atoms: C_1  and  C_2
REMARK    2  A    between atoms: C_13  and  C_14
REMARK    3  A    between atoms: C_13  and  C_20
REMARK    4  A    between atoms: C_13  and  N_66
REMARK    5  A    between atoms: C_27  and  C_32
REMARK                            x       y       z     vdW  Elec       q    Type
REMARK                         _______ _______ _______ _____ _____    ______ ____
ROOT
ATOM      1  C   UNL     1      -7.642   0.587   1.284  0.00  0.00    +0.066 C 
ATOM      2  C   UNL     1      -6.808   0.752   0.040  0.00  0.00    +0.054 A 
ATOM      3  C   UNL     1      -5.432   1.002   0.130  0.00  0.00    +0.060 A 
ATOM      4  C   UNL     1      -4.691   1.153  -1.048  0.00  0.00    +0.058 A 
ATOM      5  N   UNL     1      -5.319   1.049  -2.206  0.00  0.00    -0.219 NA
ATOM      6  C   UNL     1      -6.624   0.810  -2.253  0.00  0.00    +0.218 A 
ATOM      7  N   UNL     1      -7.358   0.665  -1.157  0.00  0.00    -0.219 NA
ATOM      8  N   UNL     1      -7.238   0.709  -3.483  0.00  0.00    -0.303 N 
ATOM      9  C   UNL     1      -7.009   1.918  -4.287  0.00  0.00    +0.089 C 
ATOM     10  C   UNL     1      -7.637   1.735  -5.670  0.00  0.00    -0.058 C 
ATOM     11  C   UNL     1      -9.304   0.261  -4.717  0.00  0.00    -0.058 C 
ATOM     12  C   UNL     1      -8.675   0.444  -3.334  0.00  0.00    +0.089 C 
ATOM     13  C   UNL     1      -3.214   1.429  -1.020  0.00  0.00    +0.065 C 
ATOM     14  C   UNL     1      -2.595   0.978   0.301  0.00  0.00    +0.039 C 
ATOM     15  C   UNL     1      -3.350   1.626   1.469  0.00  0.00    +0.088 C 
ATOM     16  C   UNL     1      -4.771   1.100   1.439  0.00  0.00    +0.167 C 
ATOM     17  O   UNL     1      -5.343   0.772   2.457  0.00  0.00    -0.292 OA
ATOM     18  N   UNL     1      -9.086   1.491  -5.506  0.00  0.00    +0.389 N 
ATOM     19  H   UNL     1      -9.504   2.286  -5.008  0.00  0.00    -0.080 HD
ENDROOT
BRANCH  14  20
ATOM     20  C   UNL     1      -1.148   1.396   0.346  0.00  0.00    -0.006 A 
ATOM     21  C   UNL     1      -0.040   0.624   0.466  0.00  0.00    +0.011 A 
ATOM     22  C   UNL     1       1.202   1.231   0.478  0.00  0.00    +0.008 A 
ATOM     23  C   UNL     1       1.275   2.581   0.375  0.00  0.00    +0.045 A 
ATOM     24  S   UNL     1      -0.448   3.036   0.256  0.00  0.00    -0.101 S 
ENDBRANCH  14  20
BRANCH  18  25
ATOM     25  C   UNL     1      -9.729   1.363  -6.831  0.00  0.00    -0.007 C 
BRANCH  25  26
ATOM     26  C   UNL     1     -11.209   1.149  -6.638  0.00  0.00    -0.057 A 
ATOM     27  C   UNL     1     -11.899   1.899  -5.705  0.00  0.00    +0.002 A 
ATOM     28  C   UNL     1     -13.257   1.707  -5.532  0.00  0.00    +0.000 A 
ATOM     29  C   UNL     1     -13.922   0.756  -6.284  0.00  0.00    +0.000 A 
ATOM     30  C   UNL     1     -13.230   0.002  -7.213  0.00  0.00    +0.000 A 
ATOM     31  C   UNL     1     -11.873   0.198  -7.390  0.00  0.00    +0.002 A 
ENDBRANCH  25  26
BRANCH  25  32
ATOM     32  C   UNL     1      -9.503   2.632  -7.611  0.00  0.00    -0.057 A 
ATOM     33  C   UNL     1      -9.677   3.859  -7.000  0.00  0.00    +0.002 A 
ATOM     34  C   UNL     1      -9.464   5.024  -7.714  0.00  0.00    +0.000 A 
ATOM     35  C   UNL     1      -9.088   4.961  -9.042  0.00  0.00    +0.000 A 
ATOM     36  C   UNL     1      -8.919   3.733  -9.655  0.00  0.00    +0.000 A 
ATOM     37  C   UNL     1      -9.126   2.569  -8.940  0.00  0.00    +0.002 A 
ENDBRANCH  25  32
ENDBRANCH  18  25
TORSDOF 4
