REMARK  Name = ZINC19431716
REMARK  6 active torsions:
REMARK  status: ('A' for Active; 'I' for Inactive)
REMARK    1  A    between atoms: C_1  and  C_2
REMARK    2  A    between atoms: C_5  and  N_14
REMARK    3  A    between atoms: C_6  and  C_13
REMARK    4  A    between atoms: C_7  and  N_8
REMARK    5  A    between atoms: N_8  and  S_9
REMARK    6  A    between atoms: S_9  and  N_12
REMARK                            x       y       z     vdW  Elec       q    Type
REMARK                         _______ _______ _______ _____ _____    ______ ____
ROOT
ATOM      1  C   UNL     1       4.013   1.830   3.390  0.00  0.00    +0.046 C 
ATOM      2  C   UNL     1       2.929   2.850   3.627  0.00  0.00    -0.028 A 
ATOM      3  C   UNL     1       3.241   4.068   4.200  0.00  0.00    +0.007 A 
ATOM      4  C   UNL     1       2.251   5.006   4.420  0.00  0.00    +0.023 A 
ATOM      5  C   UNL     1       0.938   4.729   4.059  0.00  0.00    +0.029 A 
ATOM      6  C   UNL     1       0.620   3.505   3.489  0.00  0.00    -0.007 A 
ATOM      7  C   UNL     1       1.617   2.565   3.270  0.00  0.00    +0.057 A 
ATOM      8  C   UNL     1      -0.804   3.199   3.103  0.00  0.00    +0.047 C 
ENDROOT
BRANCH   5   9
ATOM      9  N   UNL     1      -0.062   5.681   4.276  0.00  0.00    -0.358 N 
ATOM     10  H   UNL     1      -1.101   5.461   3.991  0.00  0.00    +0.142 HD
ATOM     11  H   UNL     1       0.190   6.649   4.732  0.00  0.00    +0.142 HD
ENDBRANCH   5   9
BRANCH   7  12
ATOM     12  N   UNL     1       1.302   1.334   2.690  0.00  0.00    -0.206 N 
ATOM     13  H   UNL     1       0.576   0.667   3.177  0.00  0.00    +0.175 HD
BRANCH  12  14
ATOM     14  S   UNL     1       2.022   0.880   1.270  0.00  0.00    +0.107 S 
ATOM     15  O   UNL     1       3.376   0.580   1.579  0.00  0.00    -0.138 OA
ATOM     16  O   UNL     1       1.153  -0.064   0.658  0.00  0.00    -0.138 OA
BRANCH  14  17
ATOM     17  N   UNL     1       2.045   2.211   0.285  0.00  0.00    -0.191 NA
ATOM     18  H   UNL     1       2.517   1.949  -0.674  0.00  0.00    +0.146 HD
ATOM     19  H   UNL     1       2.618   3.015   0.769  0.00  0.00    +0.146 HD
ENDBRANCH  14  17
ENDBRANCH  12  14
ENDBRANCH   7  12
TORSDOF 4
