REMARK  Name = ZINC39860137
REMARK  5 active torsions:
REMARK  status: ('A' for Active; 'I' for Inactive)
REMARK    1  A    between atoms: C_1  and  C_2
REMARK    2  A    between atoms: C_5  and  C_28
REMARK    3  A    between atoms: C_6  and  N_8
REMARK    4  A    between atoms: C_12  and  C_13
REMARK    5  A    between atoms: C_16  and  C_18
REMARK                            x       y       z     vdW  Elec       q    Type
REMARK                         _______ _______ _______ _____ _____    ______ ____
ROOT
ATOM      1  N   UNL     1       0.043  -2.928   2.331  0.00  0.00    -0.196 N 
ATOM      2  C   UNL     1       1.197  -3.294   2.862  0.00  0.00    +0.265 C 
ATOM      3  O   UNL     1       2.238  -3.183   2.239  0.00  0.00    -0.269 OA
ATOM      4  C   UNL     1       1.187  -3.822   4.189  0.00  0.00    +0.083 C 
ATOM      5  C   UNL     1       2.226  -4.266   4.954  0.00  0.00    +0.066 C 
ATOM      6  S   UNL     1      -0.556  -3.744   4.574  0.00  0.00    -0.025 S 
ATOM      7  C   UNL     1      -1.110  -3.046   3.026  0.00  0.00    +0.290 C 
ATOM      8  O   UNL     1      -2.240  -2.752   2.683  0.00  0.00    -0.262 OA
ENDROOT
BRANCH   1  14
ATOM      9  C   UNL     1       0.280   0.956  -0.676  0.00  0.00    +0.044 C 
ATOM     10  C   UNL     1       0.129  -0.527  -0.455  0.00  0.00    -0.049 A 
ATOM     11  C   UNL     1      -0.037  -1.374  -1.535  0.00  0.00    +0.004 A 
ATOM     12  C   UNL     1      -0.176  -2.735  -1.336  0.00  0.00    +0.005 A 
ATOM     13  C   UNL     1      -0.150  -3.253  -0.056  0.00  0.00    -0.029 A 
ATOM     14  C   UNL     1       0.017  -2.405   1.031  0.00  0.00    +0.048 A 
ATOM     15  C   UNL     1       0.161  -1.040   0.827  0.00  0.00    +0.027 A 
ATOM     16  C   UNL     1      -0.302  -4.736   0.161  0.00  0.00    +0.045 C 
ENDBRANCH   1  14
BRANCH   5  17
ATOM     17  C   UNL     1       3.554  -4.104   4.504  0.00  0.00    +0.130 A 
ATOM     18  C   UNL     1       4.690  -4.583   5.132  0.00  0.00    +0.050 A 
ATOM     19  C   UNL     1       5.779  -4.197   4.346  0.00  0.00    +0.050 A 
ATOM     20  C   UNL     1       5.279  -3.505   3.279  0.00  0.00    +0.136 A 
ATOM     21  O   UNL     1       3.938  -3.461   3.381  0.00  0.00    -0.455 OA
BRANCH  20  22
ATOM     22  C   UNL     1       6.078  -2.911   2.190  0.00  0.00    +0.019 A 
ATOM     23  C   UNL     1       7.470  -3.036   2.191  0.00  0.00    +0.011 A 
ATOM     24  C   UNL     1       8.210  -2.478   1.170  0.00  0.00    +0.002 A 
ATOM     25  C   UNL     1       7.579  -1.795   0.146  0.00  0.00    +0.020 A 
ATOM     26  C   UNL     1       6.200  -1.666   0.138  0.00  0.00    +0.042 A 
ATOM     27  C   UNL     1       5.446  -2.225   1.150  0.00  0.00    +0.031 A 
ATOM     28 CL   UNL     1       5.418  -0.806  -1.152  0.00  0.00    -0.084 Cl
ENDBRANCH  20  22
ENDBRANCH   5  17
TORSDOF 3
