REMARK  Name = ZINC36207865
REMARK  14 active torsions:
REMARK  status: ('A' for Active; 'I' for Inactive)
REMARK    1  A    between atoms: C_1  and  C_2
REMARK    2  A    between atoms: C_2  and  C_3
REMARK    3  A    between atoms: C_3  and  N_4
REMARK    4  A    between atoms: N_4  and  C_5
REMARK    5  A    between atoms: N_4  and  C_25
REMARK    6  A    between atoms: C_5  and  C_6
REMARK    7  A    between atoms: C_12  and  C_17
REMARK    8  A    between atoms: C_20  and  O_23
REMARK    9  A    between atoms: O_23  and  C_24
REMARK   10  A    between atoms: C_25  and  C_26
REMARK   11  A    between atoms: C_26  and  C_28
REMARK   12  A    between atoms: C_26  and  O_36
REMARK   13  A    between atoms: C_28  and  O_29
REMARK   14  A    between atoms: O_29  and  C_30
REMARK                            x       y       z     vdW  Elec       q    Type
REMARK                         _______ _______ _______ _____ _____    ______ ____
ROOT
ATOM      1  C   UNL     1       0.685  -2.342  -1.316  0.00  0.00    +0.094 A 
ATOM      2  N   UNL     1       1.223  -2.847  -2.455  0.00  0.00    -0.312 N 
ATOM      3  H   UNL     1       2.009  -3.414  -2.400  0.00  0.00    +0.170 HD
ATOM      4  C   UNL     1       0.688  -2.578  -3.661  0.00  0.00    +0.260 A 
ATOM      5  O   UNL     1       1.183  -3.040  -4.675  0.00  0.00    -0.267 OA
ATOM      6  C   UNL     1      -0.471  -1.741  -3.734  0.00  0.00    +0.080 A 
ATOM      7  C   UNL     1      -1.225  -1.309  -4.904  0.00  0.00    +0.004 A 
ATOM      8  C   UNL     1      -2.302  -0.507  -4.726  0.00  0.00    +0.056 A 
ATOM      9  S   UNL     1      -2.364  -0.286  -2.959  0.00  0.00    -0.076 S 
ATOM     10  C   UNL     1      -0.956  -1.265  -2.505  0.00  0.00    +0.116 A 
ATOM     11  N   UNL     1      -0.375  -1.580  -1.350  0.00  0.00    -0.229 NA
ENDROOT
BRANCH   7  12
ATOM     12  C   UNL     1      -0.820  -1.739  -6.264  0.00  0.00    -0.016 A 
ATOM     13  C   UNL     1       0.505  -1.602  -6.675  0.00  0.00    +0.012 A 
ATOM     14  C   UNL     1       0.879  -2.004  -7.940  0.00  0.00    +0.046 A 
ATOM     15  C   UNL     1      -0.063  -2.544  -8.805  0.00  0.00    +0.120 A 
ATOM     16  C   UNL     1      -1.384  -2.681  -8.400  0.00  0.00    +0.046 A 
ATOM     17  C   UNL     1      -1.762  -2.287  -7.133  0.00  0.00    +0.012 A 
BRANCH  15  18
ATOM     18  O   UNL     1       0.308  -2.938 -10.052  0.00  0.00    -0.495 OA
ATOM     19  C   UNL     1      -0.712  -3.486 -10.890  0.00  0.00    +0.277 C 
ENDBRANCH  15  18
ENDBRANCH   7  12
BRANCH   1  20
ATOM     20  C   UNL     1       1.318  -2.672   0.012  0.00  0.00    -0.003 C 
BRANCH  20  21
ATOM     21  N   UNL     1       0.655  -1.905   1.074  0.00  0.00    +0.386 N 
ATOM     22  H   UNL     1      -0.341  -2.066   1.035  0.00  0.00    -0.081 HD
BRANCH  21  23
ATOM     23  C   UNL     1       0.926  -0.473   0.887  0.00  0.00    -0.078 C 
BRANCH  23  25
ATOM     24  C   UNL     1       2.726   1.254   0.754  0.00  0.00    +0.002 C 
ATOM     25  C   UNL     1       2.420  -0.208   1.085  0.00  0.00    -0.022 C 
ENDBRANCH  23  25
ENDBRANCH  21  23
BRANCH  21  26
ATOM     26  C   UNL     1       1.169  -2.334   2.382  0.00  0.00    -0.043 C 
BRANCH  26  27
ATOM     27  C   UNL     1       0.357  -1.665   3.493  0.00  0.00    +0.135 C 
BRANCH  27  28
ATOM     28  O   UNL     1       0.597  -0.256   3.476  0.00  0.00    -0.390 OA
ATOM     29  H   UNL     1       1.523  -0.013   3.613  0.00  0.00    +0.210 HD
ENDBRANCH  27  28
BRANCH  27  30
ATOM     30  C   UNL     1       0.779  -2.238   4.848  0.00  0.00    +0.258 C 
BRANCH  30  31
ATOM     31  O   UNL     1      -0.057  -1.700   5.874  0.00  0.00    -0.489 OA
BRANCH  31  32
ATOM     32  C   UNL     1       0.186  -2.109   7.147  0.00  0.00    +0.121 A 
ATOM     33  C   UNL     1       1.213  -3.007   7.403  0.00  0.00    +0.045 A 
ATOM     34  C   UNL     1       1.458  -3.421   8.698  0.00  0.00    +0.004 A 
ATOM     35  C   UNL     1       0.682  -2.943   9.737  0.00  0.00    +0.000 A 
ATOM     36  C   UNL     1      -0.342  -2.049   9.484  0.00  0.00    +0.004 A 
ATOM     37  C   UNL     1      -0.588  -1.627   8.192  0.00  0.00    +0.045 A 
ENDBRANCH  31  32
ENDBRANCH  30  31
ENDBRANCH  27  30
ENDBRANCH  26  27
ENDBRANCH  21  26
ENDBRANCH  20  21
ENDBRANCH   1  20
TORSDOF 12
