REMARK  Name = ZINC08971211
REMARK  9 active torsions:
REMARK  status: ('A' for Active; 'I' for Inactive)
REMARK    1  A    between atoms: C_1  and  C_2
REMARK    2  A    between atoms: C_9  and  O_19
REMARK    3  A    between atoms: C_15  and  C_17
REMARK    4  A    between atoms: C_15  and  C_18
REMARK    5  A    between atoms: O_19  and  C_20
REMARK    6  A    between atoms: C_20  and  C_21
REMARK    7  A    between atoms: N_23  and  C_24
REMARK    8  A    between atoms: C_29  and  C_30
REMARK    9  A    between atoms: C_29  and  N_70
REMARK                            x       y       z     vdW  Elec       q    Type
REMARK                         _______ _______ _______ _____ _____    ______ ____
ROOT
ATOM      1  O   UNL     1       2.407   1.011   0.512  0.00  0.00    -0.482 OA
ENDROOT
BRANCH   1  10
ATOM      2  C   UNL     1       3.243  -1.281  -0.041  0.00  0.00    +0.045 C 
ATOM      3  C   UNL     1       4.609  -0.646  -0.048  0.00  0.00    -0.030 A 
ATOM      4  C   UNL     1       5.720  -1.385  -0.309  0.00  0.00    +0.096 A 
ATOM      5  C   UNL     1       6.984  -0.766  -0.309  0.00  0.00    +0.337 A 
ATOM      6  O   UNL     1       7.970  -1.441  -0.544  0.00  0.00    -0.245 OA
ATOM      7  O   UNL     1       7.138   0.540  -0.059  0.00  0.00    -0.422 OA
ATOM      8  C   UNL     1       6.056   1.303   0.203  0.00  0.00    +0.149 A 
ATOM      9  C   UNL     1       4.770   0.737   0.224  0.00  0.00    +0.063 A 
ATOM     10  C   UNL     1       3.654   1.548   0.494  0.00  0.00    +0.136 A 
ATOM     11  C   UNL     1       3.834   2.891   0.748  0.00  0.00    +0.092 A 
ATOM     12  C   UNL     1       5.114   3.450   0.733  0.00  0.00    +0.131 A 
ATOM     13  C   UNL     1       6.217   2.659   0.464  0.00  0.00    +0.038 A 
ATOM     14  C   UNL     1       7.611   3.234   0.448  0.00  0.00    +0.046 C 
ATOM     15  C   UNL     1       7.541   4.757   0.318  0.00  0.00    +0.052 C 
ATOM     16  C   UNL     1       6.522   5.280   1.339  0.00  0.00    +0.105 C 
ATOM     17  O   UNL     1       5.233   4.779   0.985  0.00  0.00    -0.486 OA
ATOM     18  C   UNL     1       6.506   6.809   1.314  0.00  0.00    +0.055 C 
ATOM     19  C   UNL     1       6.899   4.790   2.739  0.00  0.00    +0.055 C 
ENDBRANCH   1  10
BRANCH   1  20
ATOM     20  C   UNL     1       1.323   1.896   0.800  0.00  0.00    +0.324 C 
BRANCH  20  21
ATOM     21  C   UNL     1       0.027   1.128   0.776  0.00  0.00    +0.251 C 
ATOM     22  O   UNL     1       0.031  -0.061   0.535  0.00  0.00    -0.272 OA
ATOM     23  N   UNL     1      -1.137   1.763   1.016  0.00  0.00    -0.310 N 
ATOM     24  H   UNL     1      -1.140   2.714   1.209  0.00  0.00    +0.149 HD
BRANCH  23  25
ATOM     25  C   UNL     1      -2.398   1.017   0.987  0.00  0.00    +0.070 C 
ATOM     26  C   UNL     1      -2.914   0.942  -0.453  0.00  0.00    +0.003 C 
ATOM     27  C   UNL     1      -4.261   0.215  -0.469  0.00  0.00    -0.077 C 
ATOM     28  C   UNL     1      -4.767   0.983   1.773  0.00  0.00    -0.077 C 
ATOM     29  C   UNL     1      -3.436   1.732   1.856  0.00  0.00    +0.003 C 
ATOM     30  N   UNL     1      -5.222   0.967   0.366  0.00  0.00    +0.382 N 
ATOM     31  H   UNL     1      -5.277   1.933   0.022  0.00  0.00    -0.081 HD
BRANCH  30  32
ATOM     32  C   UNL     1      -6.560   0.348   0.275  0.00  0.00    -0.043 C 
BRANCH  32  33
ATOM     33  C   UNL     1      -7.090   0.541  -1.123  0.00  0.00    -0.064 A 
ATOM     34  C   UNL     1      -7.822   1.671  -1.435  0.00  0.00    +0.002 A 
ATOM     35  C   UNL     1      -8.304   1.850  -2.718  0.00  0.00    +0.000 A 
ATOM     36  C   UNL     1      -8.062   0.894  -3.687  0.00  0.00    +0.000 A 
ATOM     37  C   UNL     1      -7.335  -0.239  -3.373  0.00  0.00    +0.000 A 
ATOM     38  C   UNL     1      -6.849  -0.415  -2.091  0.00  0.00    +0.002 A 
ENDBRANCH  32  33
ENDBRANCH  30  32
ENDBRANCH  23  25
ENDBRANCH  20  21
ENDBRANCH   1  20
TORSDOF 6
