REMARK  Name = ZINC40982314
REMARK  8 active torsions:
REMARK  status: ('A' for Active; 'I' for Inactive)
REMARK    1  A    between atoms: C_1  and  C_2
REMARK    2  A    between atoms: C_2  and  C_3
REMARK    3  A    between atoms: C_3  and  S_4
REMARK    4  A    between atoms: S_4  and  C_5
REMARK    5  A    between atoms: C_10  and  C_20
REMARK    6  A    between atoms: C_25  and  O_26
REMARK    7  A    between atoms: O_26  and  C_27
REMARK    8  A    between atoms: C_27  and  C_28
REMARK                            x       y       z     vdW  Elec       q    Type
REMARK                         _______ _______ _______ _____ _____    ______ ____
ROOT
ATOM      1  C   UNL     1       1.589  -2.718  -2.758  0.00  0.00    +0.210 A 
ATOM      2  N   UNL     1       2.084  -1.835  -3.638  0.00  0.00    -0.187 NA
ATOM      3  C   UNL     1       2.649  -2.475  -4.625  0.00  0.00    +0.219 A 
ATOM      4  N   UNL     1       2.521  -3.804  -4.395  0.00  0.00    -0.220 N 
ATOM      5  N   UNL     1       1.843  -3.937  -3.184  0.00  0.00    -0.141 NA
ATOM      6  C   UNL     1       3.029  -4.828  -5.300  0.00  0.00    +0.179 C 
ATOM      7  C   UNL     1       3.982  -4.208  -6.299  0.00  0.00    +0.041 C 
ATOM      8  C   UNL     1       4.062  -2.873  -6.481  0.00  0.00    +0.020 C 
ATOM      9  N   UNL     1       3.295  -1.995  -5.753  0.00  0.00    -0.287 N 
ATOM     10  C   UNL     1       5.006  -2.285  -7.503  0.00  0.00    +0.052 C 
ATOM     11  C   UNL     1       6.243  -3.176  -7.633  0.00  0.00    +0.014 C 
ATOM     12  C   UNL     1       5.785  -4.578  -8.048  0.00  0.00    +0.080 C 
ATOM     13  C   UNL     1       4.793  -5.087  -7.039  0.00  0.00    +0.163 C 
ATOM     14  O   UNL     1       4.690  -6.284  -6.860  0.00  0.00    -0.292 OA
ATOM     15  H   UNL     1       3.207  -1.067  -6.022  0.00  0.00    +0.155 HD
ENDROOT
BRANCH   6  16
ATOM     16  C   UNL     1       1.877  -5.460  -6.038  0.00  0.00    +0.023 A 
ATOM     17  C   UNL     1       1.061  -4.686  -6.840  0.00  0.00    +0.009 A 
ATOM     18  C   UNL     1       0.004  -5.265  -7.516  0.00  0.00    +0.001 A 
ATOM     19  C   UNL     1      -0.240  -6.621  -7.392  0.00  0.00    +0.004 A 
ATOM     20  C   UNL     1       0.573  -7.399  -6.592  0.00  0.00    +0.046 A 
ATOM     21  C   UNL     1       1.639  -6.821  -5.916  0.00  0.00    +0.127 A 
BRANCH  21  22
ATOM     22  O   UNL     1       2.443  -7.586  -5.133  0.00  0.00    -0.487 OA
BRANCH  22  23
ATOM     23  C   UNL     1       2.138  -8.980  -5.055  0.00  0.00    +0.266 C 
BRANCH  23  24
ATOM     24  C   UNL     1       3.130  -9.661  -4.147  0.00  0.00    +0.008 A 
ATOM     25  C   UNL     1       4.131  -8.925  -3.541  0.00  0.00    +0.010 A 
ATOM     26  C   UNL     1       5.041  -9.549  -2.709  0.00  0.00    +0.020 A 
ATOM     27  C   UNL     1       4.951 -10.911  -2.482  0.00  0.00    +0.042 A 
ATOM     28  C   UNL     1       3.949 -11.648  -3.087  0.00  0.00    +0.040 A 
ATOM     29  C   UNL     1       3.035 -11.022  -3.917  0.00  0.00    +0.049 A 
ATOM     30 CL   UNL     1       1.774 -11.945  -4.673  0.00  0.00    -0.083 Cl
ATOM     31 CL   UNL     1       6.094 -11.695  -1.437  0.00  0.00    -0.083 Cl
ENDBRANCH  23  24
ENDBRANCH  22  23
ENDBRANCH  21  22
ENDBRANCH   6  16
BRANCH   1  32
ATOM     32  S   UNL     1       0.743  -2.311  -1.267  0.00  0.00    -0.084 S 
BRANCH  32  33
ATOM     33  C   UNL     1       0.718  -0.497  -1.257  0.00  0.00    +0.077 C 
BRANCH  33  35
ATOM     34  C   UNL     1      -0.019   1.526   0.010  0.00  0.00    +0.004 C 
ATOM     35  C   UNL     1       0.002  -0.004   0.002  0.00  0.00    +0.008 C 
ENDBRANCH  33  35
ENDBRANCH  32  33
ENDBRANCH   1  32
TORSDOF 7
