REMARK  Name = ZINC01127600
REMARK  3 active torsions:
REMARK  status: ('A' for Active; 'I' for Inactive)
REMARK    1  A    between atoms: C_1  and  C_2
REMARK    2  A    between atoms: C_5  and  C_8
REMARK    3  A    between atoms: C_11  and  C_20
REMARK                            x       y       z     vdW  Elec       q    Type
REMARK                         _______ _______ _______ _____ _____    ______ ____
ROOT
ATOM      1  C   UNL     1       0.059  -4.275  -0.021  0.00  0.00    +0.106 C 
ATOM      2  C   UNL     1      -1.353  -4.810   0.243  0.00  0.00    +0.059 C 
ATOM      3  C   UNL     1      -1.347  -6.342   0.181  0.00  0.00    +0.147 C 
ATOM      4  N   UNL     1      -0.250  -6.843   1.008  0.00  0.00    -0.224 N 
ATOM      5  C   UNL     1       0.811  -6.099   1.403  0.00  0.00    +0.216 A 
ATOM      6  N   UNL     1       1.592  -6.854   2.128  0.00  0.00    -0.180 NA
ATOM      7  C   UNL     1       1.067  -8.085   2.216  0.00  0.00    +0.233 A 
ATOM      8  N   UNL     1      -0.062  -8.118   1.543  0.00  0.00    -0.132 NA
ATOM      9  N   UNL     1       1.627  -9.157   2.912  0.00  0.00    -0.326 N 
ATOM     10  N   UNL     1       0.959  -4.765   1.041  0.00  0.00    -0.307 N 
ATOM     11  H   UNL     1       2.467  -9.043   3.384  0.00  0.00    +0.145 HD
ATOM     12  H   UNL     1       1.177 -10.017   2.923  0.00  0.00    +0.145 HD
ATOM     13  H   UNL     1       1.613  -4.188   1.465  0.00  0.00    +0.149 HD
ENDROOT
BRANCH   3  14
ATOM     14  C   UNL     1      -2.658  -6.874   0.700  0.00  0.00    +0.031 A 
ATOM     15  C   UNL     1      -3.057  -6.590   1.995  0.00  0.00    +0.130 A 
ATOM     16  C   UNL     1      -4.261  -7.080   2.470  0.00  0.00    +0.039 A 
ATOM     17  C   UNL     1      -5.065  -7.850   1.652  0.00  0.00    +0.004 A 
ATOM     18  C   UNL     1      -4.667  -8.133   0.359  0.00  0.00    +0.020 A 
ATOM     19  C   UNL     1      -3.466  -7.641  -0.120  0.00  0.00    +0.049 A 
ATOM     20 CL   UNL     1      -2.970  -7.991  -1.746  0.00  0.00    -0.083 Cl
ATOM     21  F   UNL     1      -2.270  -5.837   2.795  0.00  0.00    -0.205 F 
ENDBRANCH   3  14
BRANCH   1  26
ATOM     22  C   UNL     1      -0.018   1.503   0.010  0.00  0.00    +0.044 C 
ATOM     23  C   UNL     1       0.002  -0.004   0.002  0.00  0.00    -0.050 A 
ATOM     24  C   UNL     1       0.006  -0.689  -1.199  0.00  0.00    +0.004 A 
ATOM     25  C   UNL     1       0.025  -2.071  -1.206  0.00  0.00    +0.006 A 
ATOM     26  C   UNL     1       0.040  -2.768  -0.013  0.00  0.00    -0.027 A 
ATOM     27  C   UNL     1       0.037  -2.084   1.188  0.00  0.00    +0.006 A 
ATOM     28  C   UNL     1       0.023  -0.702   1.195  0.00  0.00    +0.004 A 
ENDBRANCH   1  26
TORSDOF 2
