REMARK  Name = ZINC08444102
REMARK  9 active torsions:
REMARK  status: ('A' for Active; 'I' for Inactive)
REMARK    1  A    between atoms: C_1  and  C_2
REMARK    2  A    between atoms: C_2  and  C_3
REMARK    3  A    between atoms: C_3  and  C_4
REMARK    4  A    between atoms: C_4  and  O_5
REMARK    5  A    between atoms: O_5  and  C_6
REMARK    6  A    between atoms: C_9  and  C_12
REMARK    7  A    between atoms: C_17  and  C_22
REMARK    8  A    between atoms: C_36  and  C_38
REMARK    9  A    between atoms: C_38  and  C_39
REMARK                            x       y       z     vdW  Elec       q    Type
REMARK                         _______ _______ _______ _____ _____    ______ ____
ROOT
ATOM      1  C   UNL     1       0.489   5.881   1.357  0.00  0.00    +0.147 C 
ATOM      2  C   UNL     1       1.963   5.625   1.558  0.00  0.00    +0.037 C 
ATOM      3  C   UNL     1       2.706   4.729   0.886  0.00  0.00    +0.017 C 
ATOM      4  C   UNL     1       4.188   4.577   1.187  0.00  0.00    +0.059 C 
ATOM      5  C   UNL     1       4.452   4.862   2.664  0.00  0.00    +0.032 C 
ATOM      6  C   UNL     1       3.994   6.298   2.951  0.00  0.00    +0.088 C 
ATOM      7  C   UNL     1       2.551   6.425   2.566  0.00  0.00    +0.163 C 
ATOM      8  O   UNL     1       1.861   7.244   3.140  0.00  0.00    -0.292 OA
ATOM      9  N   UNL     1       2.239   3.915  -0.096  0.00  0.00    -0.316 N 
ATOM     10  C   UNL     1       1.068   3.170  -0.023  0.00  0.00    +0.053 A 
ATOM     11  C   UNL     1       1.065   1.787  -0.067  0.00  0.00    +0.025 A 
ATOM     12  C   UNL     1      -0.142   1.110  -0.057  0.00  0.00    +0.002 A 
ATOM     13  C   UNL     1      -1.334   1.811  -0.025  0.00  0.00    +0.002 A 
ATOM     14  C   UNL     1      -1.332   3.194   0.029  0.00  0.00    +0.025 A 
ATOM     15  C   UNL     1      -0.125   3.874   0.048  0.00  0.00    +0.058 A 
ATOM     16  N   UNL     1      -0.073   5.263   0.175  0.00  0.00    -0.258 N 
ATOM     17  C   UNL     1      -0.552   6.039  -0.817  0.00  0.00    +0.220 C 
ATOM     18  O   UNL     1      -0.511   7.247  -0.716  0.00  0.00    -0.275 OA
ATOM     19  H   UNL     1       2.763   3.848  -0.909  0.00  0.00    +0.152 HD
ENDROOT
BRANCH   1  23
ATOM     20  C   UNL     1      -1.617   4.425   4.779  0.00  0.00    +0.121 A 
ATOM     21  C   UNL     1      -1.639   5.779   4.473  0.00  0.00    +0.046 A 
ATOM     22  C   UNL     1      -0.958   6.247   3.366  0.00  0.00    +0.009 A 
ATOM     23  C   UNL     1      -0.254   5.368   2.563  0.00  0.00    -0.022 A 
ATOM     24  C   UNL     1      -0.235   4.018   2.863  0.00  0.00    +0.009 A 
ATOM     25  C   UNL     1      -0.911   3.546   3.971  0.00  0.00    +0.046 A 
BRANCH  20  26
ATOM     26  O   UNL     1      -2.287   3.962   5.867  0.00  0.00    -0.492 OA
BRANCH  26  27
ATOM     27  C   UNL     1      -2.220   2.558   6.120  0.00  0.00    +0.229 C 
BRANCH  27  28
ATOM     28  C   UNL     1      -3.028   2.227   7.377  0.00  0.00    +0.041 C 
BRANCH  28  30
ATOM     29  C   UNL     1      -3.765   0.393   8.905  0.00  0.00    +0.004 C 
ATOM     30  C   UNL     1      -2.957   0.723   7.648  0.00  0.00    -0.000 C 
ENDBRANCH  28  30
ENDBRANCH  27  28
ENDBRANCH  26  27
ENDBRANCH  20  26
ENDBRANCH   1  23
BRANCH   5  31
ATOM     31  C   UNL     1       5.924   4.728   2.955  0.00  0.00    -0.044 A 
ATOM     32  C   UNL     1       6.836   5.528   2.292  0.00  0.00    +0.004 A 
ATOM     33  C   UNL     1       8.186   5.408   2.563  0.00  0.00    +0.000 A 
ATOM     34  C   UNL     1       8.626   4.480   3.488  0.00  0.00    +0.000 A 
ATOM     35  C   UNL     1       7.715   3.676   4.147  0.00  0.00    +0.000 A 
ATOM     36  C   UNL     1       6.364   3.800   3.880  0.00  0.00    +0.004 A 
ENDBRANCH   5  31
BRANCH  17  37
ATOM     37  C   UNL     1      -1.139   5.406  -2.052  0.00  0.00    +0.093 C 
ATOM     38  C   UNL     1      -1.606   6.501  -3.014  0.00  0.00    +0.013 C 
ENDBRANCH  17  37
TORSDOF 7
