REMARK  Name = ZINC36071825
REMARK  14 active torsions:
REMARK  status: ('A' for Active; 'I' for Inactive)
REMARK    1  A    between atoms: C_1  and  C_2
REMARK    2  A    between atoms: C_5  and  C_37
REMARK    3  A    between atoms: C_6  and  C_8
REMARK    4  A    between atoms: C_10  and  C_31
REMARK    5  A    between atoms: C_11  and  C_30
REMARK    6  A    between atoms: C_15  and  C_18
REMARK    7  A    between atoms: C_19  and  N_21
REMARK    8  A    between atoms: N_21  and  C_22
REMARK    9  A    between atoms: N_21  and  C_23
REMARK   10  A    between atoms: C_23  and  C_24
REMARK   11  A    between atoms: C_31  and  O_33
REMARK   12  A    between atoms: O_33  and  C_34
REMARK   13  A    between atoms: C_34  and  C_35
REMARK   14  A    between atoms: C_34  and  C_36
REMARK                            x       y       z     vdW  Elec       q    Type
REMARK                         _______ _______ _______ _____ _____    ______ ____
ROOT
ATOM      1  C   UNL     1       0.028  -2.841   2.511  0.00  0.00    +0.150 C 
ATOM      2  C   UNL     1      -1.271  -3.515   2.892  0.00  0.00    +0.083 C 
ATOM      3  C   UNL     1      -1.947  -3.034   3.996  0.00  0.00    +0.053 C 
ATOM      4  N   UNL     1      -1.462  -2.015   4.688  0.00  0.00    -0.230 NA
ATOM      5  C   UNL     1      -0.340  -1.385   4.410  0.00  0.00    +0.166 C 
ATOM      6  N   UNL     1       0.475  -1.706   3.361  0.00  0.00    -0.267 N 
ATOM      7  C   UNL     1       1.618  -0.948   3.202  0.00  0.00    +0.048 C 
ATOM      8  C   UNL     1       1.840   0.046   4.090  0.00  0.00    +0.072 C 
ATOM      9  S   UNL     1       0.424  -0.091   5.159  0.00  0.00    -0.060 S 
ATOM     10  C   UNL     1      -3.246  -3.672   4.416  0.00  0.00    +0.066 C 
ENDROOT
BRANCH   1  16
ATOM     11  C   UNL     1      -1.821   0.478  -0.747  0.00  0.00    +0.044 C 
ATOM     12  C   UNL     1      -0.994  -0.749  -0.461  0.00  0.00    -0.050 A 
ATOM     13  C   UNL     1      -0.360  -1.411  -1.496  0.00  0.00    +0.003 A 
ATOM     14  C   UNL     1       0.399  -2.537  -1.234  0.00  0.00    +0.004 A 
ATOM     15  C   UNL     1       0.525  -2.999   0.063  0.00  0.00    -0.045 A 
ATOM     16  C   UNL     1      -0.108  -2.336   1.097  0.00  0.00    -0.019 A 
ATOM     17  C   UNL     1      -0.864  -1.208   0.836  0.00  0.00    +0.009 A 
ATOM     18  C   UNL     1       1.351  -4.226   0.348  0.00  0.00    +0.044 C 
ENDBRANCH   1  16
BRANCH   7  19
ATOM     19  C   UNL     1       2.561  -1.213   2.106  0.00  0.00    +0.091 C 
ATOM     20  C   UNL     1       3.736  -0.558   2.054  0.00  0.00    +0.241 C 
ATOM     21  O   UNL     1       4.113   0.239   3.084  0.00  0.00    -0.271 OA
BRANCH  20  22
ATOM     22  N   UNL     1       4.560  -0.698   0.950  0.00  0.00    -0.297 N 
ATOM     23  C   UNL     1       4.105  -1.470  -0.209  0.00  0.00    +0.132 C 
BRANCH  22  24
ATOM     24  C   UNL     1       5.885  -0.074   0.941  0.00  0.00    +0.142 C 
BRANCH  24  25
ATOM     25  C   UNL     1       6.916  -1.079   1.387  0.00  0.00    -0.030 A 
ATOM     26  C   UNL     1       7.156  -1.271   2.735  0.00  0.00    +0.005 A 
ATOM     27  C   UNL     1       8.101  -2.192   3.145  0.00  0.00    +0.000 A 
ATOM     28  C   UNL     1       8.807  -2.923   2.207  0.00  0.00    +0.000 A 
ATOM     29  C   UNL     1       8.566  -2.732   0.859  0.00  0.00    +0.000 A 
ATOM     30  C   UNL     1       7.617  -1.813   0.449  0.00  0.00    +0.005 A 
ENDBRANCH  24  25
ENDBRANCH  22  24
ENDBRANCH  20  22
ENDBRANCH   7  19
BRANCH   2  31
ATOM     31  C   UNL     1      -1.771  -4.592   2.150  0.00  0.00    +0.339 C 
ATOM     32  O   UNL     1      -2.857  -5.071   2.427  0.00  0.00    -0.245 OA
BRANCH  31  33
ATOM     33  O   UNL     1      -1.050  -5.101   1.127  0.00  0.00    -0.459 OA
BRANCH  33  34
ATOM     34  C   UNL     1      -1.668  -6.124   0.343  0.00  0.00    +0.171 C 
ATOM     35  C   UNL     1      -2.530  -5.482  -0.746  0.00  0.00    +0.052 C 
ATOM     36  C   UNL     1      -0.588  -6.991  -0.307  0.00  0.00    +0.052 C 
ENDBRANCH  33  34
ENDBRANCH  31  33
ENDBRANCH   2  31
TORSDOF 8
