REMARK  Name = ZINC35270715
REMARK  8 active torsions:
REMARK  status: ('A' for Active; 'I' for Inactive)
REMARK    1  A    between atoms: C_1  and  C_2
REMARK    2  A    between atoms: C_4  and  O_35
REMARK    3  A    between atoms: C_14  and  C_34
REMARK    4  A    between atoms: C_16  and  O_33
REMARK    5  A    between atoms: C_24  and  C_29
REMARK    6  A    between atoms: C_29  and  C_30
REMARK    7  A    between atoms: C_30  and  C_31
REMARK    8  A    between atoms: C_30  and  C_32
REMARK                            x       y       z     vdW  Elec       q    Type
REMARK                         _______ _______ _______ _____ _____    ______ ____
ROOT
ATOM      1  C   UNL     1       0.592   2.345   0.714  0.00  0.00    +0.039 C 
ATOM      2  C   UNL     1       0.603   0.853   0.503  0.00  0.00    -0.068 C 
ATOM      3  C   UNL     1       0.759   0.326  -0.693  0.00  0.00    +0.004 C 
ATOM      4  C   UNL     1       0.716  -1.166  -0.832  0.00  0.00    +0.146 C 
ATOM      5  C   UNL     1       1.585  -1.852   0.185  0.00  0.00    +0.067 C 
ATOM      6  C   UNL     1       3.057  -1.722  -0.113  0.00  0.00    -0.023 C 
ATOM      7  C   UNL     1       3.850  -2.666   0.341  0.00  0.00    -0.031 C 
ATOM      8  C   UNL     1       5.339  -2.610   0.124  0.00  0.00    +0.029 C 
ATOM      9  C   UNL     1       6.041  -2.776   1.473  0.00  0.00    +0.038 C 
ATOM     10  C   UNL     1       5.353  -3.863   2.295  0.00  0.00    +0.154 C 
ATOM     11  C   UNL     1       4.489  -3.443   3.484  0.00  0.00    +0.119 C 
ATOM     12  O   UNL     1       5.770  -4.049   3.648  0.00  0.00    -0.362 OA
ATOM     13  C   UNL     1       4.357  -1.950   3.790  0.00  0.00    +0.156 C 
ATOM     14  C   UNL     1       2.883  -1.549   3.679  0.00  0.00    +0.109 C 
ATOM     15  C   UNL     1       2.607  -1.062   2.283  0.00  0.00    +0.152 C 
ATOM     16  O   UNL     1       3.450  -0.420   1.704  0.00  0.00    -0.296 OA
ATOM     17  C   UNL     1       1.308  -1.357   1.592  0.00  0.00    +0.122 C 
ATOM     18  C   UNL     1       0.442  -0.105   1.647  0.00  0.00    +0.057 C 
ATOM     19  C   UNL     1      -0.947  -0.751   1.670  0.00  0.00    +0.082 C 
ATOM     20  N   UNL     1      -0.770  -2.037   2.359  0.00  0.00    -0.311 N 
ATOM     21  C   UNL     1       0.520  -2.381   2.368  0.00  0.00    +0.228 C 
ATOM     22  O   UNL     1       0.983  -3.358   2.917  0.00  0.00    -0.275 OA
ATOM     23  C   UNL     1       3.257  -4.292   3.807  0.00  0.00    +0.047 C 
ATOM     24  H   UNL     1      -1.486  -2.561   2.750  0.00  0.00    +0.149 HD
ENDROOT
BRANCH  13  25
ATOM     25  O   UNL     1       4.828  -1.689   5.114  0.00  0.00    -0.388 OA
ATOM     26  H   UNL     1       4.773  -0.760   5.376  0.00  0.00    +0.210 HD
ENDBRANCH  13  25
BRANCH   4  27
ATOM     27  O   UNL     1      -0.632  -1.610  -0.664  0.00  0.00    -0.387 OA
ATOM     28  H   UNL     1      -1.251  -1.241  -1.308  0.00  0.00    +0.210 HD
ENDBRANCH   4  27
BRANCH  19  29
ATOM     29  C   UNL     1      -1.930   0.133   2.439  0.00  0.00    +0.026 C 
BRANCH  29  30
ATOM     30  C   UNL     1      -2.271   1.367   1.601  0.00  0.00    -0.015 C 
ATOM     31  C   UNL     1      -3.052   0.938   0.357  0.00  0.00    +0.007 C 
ATOM     32  C   UNL     1      -3.123   2.329   2.431  0.00  0.00    +0.007 C 
ENDBRANCH  29  30
ENDBRANCH  19  29
TORSDOF 4
