REMARK  Name = ZINC13093029
REMARK  13 active torsions:
REMARK  status: ('A' for Active; 'I' for Inactive)
REMARK    1  A    between atoms: C_1  and  N_2
REMARK    2  A    between atoms: N_2  and  C_3
REMARK    3  A    between atoms: N_2  and  S_4
REMARK    4  A    between atoms: S_4  and  C_7
REMARK    5  A    between atoms: C_10  and  O_30
REMARK    6  A    between atoms: C_11  and  N_13
REMARK    7  A    between atoms: C_14  and  C_16
REMARK    8  A    between atoms: C_16  and  S_17
REMARK    9  A    between atoms: S_17  and  C_18
REMARK   10  A    between atoms: C_22  and  C_25
REMARK   11  A    between atoms: C_25  and  C_26
REMARK   12  A    between atoms: C_26  and  C_27
REMARK   13  A    between atoms: O_30  and  C_31
REMARK                            x       y       z     vdW  Elec       q    Type
REMARK                         _______ _______ _______ _____ _____    ______ ____
ROOT
ATOM      1  N   UNL     1      -1.391  -3.594  -4.337  0.00  0.00    -0.282 N 
ATOM      2  C   UNL     1      -1.073  -4.706  -3.645  0.00  0.00    +0.228 C 
ATOM      3  O   UNL     1      -1.246  -4.744  -2.445  0.00  0.00    -0.275 OA
ATOM      4  H   UNL     1      -1.329  -3.591  -5.305  0.00  0.00    +0.155 HD
ENDROOT
BRANCH   1   9
ATOM      5  C   UNL     1      -1.855  -1.103  -1.670  0.00  0.00    +0.107 A 
ATOM      6  C   UNL     1      -2.643  -0.167  -2.315  0.00  0.00    +0.032 A 
ATOM      7  C   UNL     1      -3.018  -0.363  -3.631  0.00  0.00    +0.049 A 
ATOM      8  C   UNL     1      -2.605  -1.500  -4.308  0.00  0.00    +0.141 A 
ATOM      9  C   UNL     1      -1.811  -2.442  -3.658  0.00  0.00    +0.077 A 
ATOM     10  C   UNL     1      -1.434  -2.236  -2.339  0.00  0.00    +0.055 A 
BRANCH   5  11
ATOM     11  S   UNL     1      -1.382  -0.846   0.008  0.00  0.00    +0.060 S 
ATOM     12  O   UNL     1      -1.094  -2.128   0.549  0.00  0.00    -0.153 OA
ATOM     13  O   UNL     1      -2.354   0.020   0.577  0.00  0.00    -0.153 OA
BRANCH  11  15
ATOM     14  C   UNL     1       0.036   1.457  -0.003  0.00  0.00    +0.131 C 
ATOM     15  N   UNL     1       0.046  -0.008  -0.009  0.00  0.00    -0.183 NA
ATOM     16  C   UNL     1       1.320  -0.732  -0.030  0.00  0.00    +0.131 C 
ENDBRANCH  11  15
ENDBRANCH   5  11
BRANCH   8  17
ATOM     17  O   UNL     1      -2.974  -1.694  -5.602  0.00  0.00    -0.493 OA
ATOM     18  C   UNL     1      -3.788  -0.685  -6.203  0.00  0.00    +0.277 C 
ENDBRANCH   8  17
ENDBRANCH   1   9
BRANCH   2  19
ATOM     19  C   UNL     1      -0.502  -5.902  -4.363  0.00  0.00    +0.173 C 
BRANCH  19  20
ATOM     20  S   UNL     1      -0.181  -7.228  -3.167  0.00  0.00    -0.075 S 
BRANCH  20  21
ATOM     21  C   UNL     1       0.473  -8.537  -4.147  0.00  0.00    +0.213 A 
ATOM     22  N   UNL     1       0.821  -9.680  -3.568  0.00  0.00    -0.180 NA
ATOM     23  C   UNL     1       1.314 -10.664  -4.312  0.00  0.00    +0.296 A 
ATOM     24  O   UNL     1       1.677 -11.842  -3.749  0.00  0.00    -0.264 OA
ATOM     25  C   UNL     1       1.451 -10.461  -5.686  0.00  0.00    +0.130 A 
ATOM     26  N   UNL     1       1.088  -9.303  -6.205  0.00  0.00    -0.146 NA
ATOM     27  N   UNL     1       0.609  -8.371  -5.457  0.00  0.00    -0.122 NA
BRANCH  25  28
ATOM     28  C   UNL     1       2.006 -11.550  -6.567  0.00  0.00    +0.074 C 
BRANCH  28  29
ATOM     29  C   UNL     1       0.861 -12.430  -7.073  0.00  0.00    +0.131 C 
BRANCH  29  30
ATOM     30  C   UNL     1       1.417 -13.520  -7.953  0.00  0.00    +0.356 C 
ATOM     31  O   UNL     1       2.617 -13.586  -8.157  0.00  0.00    -0.246 OA
ATOM     32  O   UNL     1       0.666 -14.335  -8.462  0.00  0.00    -0.246 OA
ENDBRANCH  29  30
ENDBRANCH  28  29
ENDBRANCH  25  28
ENDBRANCH  20  21
ENDBRANCH  19  20
ENDBRANCH   2  19
TORSDOF 10
