REMARK  Name = ZINC38288317
REMARK  10 active torsions:
REMARK  status: ('A' for Active; 'I' for Inactive)
REMARK    1  A    between atoms: C_1  and  C_2
REMARK    2  A    between atoms: C_5  and  C_32
REMARK    3  A    between atoms: C_6  and  N_8
REMARK    4  A    between atoms: C_9  and  C_11
REMARK    5  A    between atoms: C_14  and  C_31
REMARK    6  A    between atoms: C_15  and  C_16
REMARK    7  A    between atoms: C_15  and  C_17
REMARK    8  A    between atoms: N_19  and  O_20
REMARK    9  A    between atoms: O_20  and  C_21
REMARK   10  A    between atoms: C_21  and  C_23
REMARK                            x       y       z     vdW  Elec       q    Type
REMARK                         _______ _______ _______ _____ _____    ______ ____
ROOT
ATOM      1  C   UNL     1       0.280  -2.900   4.854  0.00  0.00    +0.058 C 
ATOM      2  C   UNL     1      -0.913  -3.836   5.219  0.00  0.00    +0.018 C 
ATOM      3  C   UNL     1      -0.759  -4.083   6.737  0.00  0.00    +0.014 C 
ATOM      4  C   UNL     1       0.507  -3.267   7.142  0.00  0.00    +0.015 C 
ATOM      5  C   UNL     1       0.389  -2.044   6.165  0.00  0.00    -0.010 C 
ATOM      6  C   UNL     1       1.636  -1.157   6.172  0.00  0.00    +0.013 C 
ATOM      7  C   UNL     1      -0.884  -1.237   6.433  0.00  0.00    +0.013 C 
ATOM      8  C   UNL     1       1.678  -4.031   6.508  0.00  0.00    +0.066 C 
ATOM      9  N   UNL     1       2.577  -4.712   7.111  0.00  0.00    -0.083 NA
ATOM     10  C   UNL     1       1.552  -3.791   4.998  0.00  0.00    +0.071 C 
ATOM     11  C   UNL     1       0.638  -2.931   8.629  0.00  0.00    +0.018 C 
ENDROOT
BRANCH   1  13
ATOM     12  N   UNL     1       0.052  -2.797   2.393  0.00  0.00    -0.285 N 
ATOM     13  C   UNL     1       0.150  -2.135   3.562  0.00  0.00    +0.224 C 
ATOM     14  O   UNL     1       0.134  -0.922   3.575  0.00  0.00    -0.275 OA
ATOM     15  H   UNL     1      -0.016  -3.765   2.388  0.00  0.00    +0.155 HD
BRANCH  12  21
ATOM     16  C   UNL     1       1.264   1.227  -0.158  0.00  0.00    +0.044 C 
ATOM     17  C   UNL     1       0.628  -0.137  -0.079  0.00  0.00    -0.049 A 
ATOM     18  C   UNL     1       0.039  -0.690  -1.201  0.00  0.00    +0.004 A 
ATOM     19  C   UNL     1      -0.546  -1.941  -1.133  0.00  0.00    +0.005 A 
ATOM     20  C   UNL     1      -0.543  -2.643   0.057  0.00  0.00    -0.029 A 
ATOM     21  C   UNL     1       0.048  -2.090   1.185  0.00  0.00    +0.037 A 
ATOM     22  C   UNL     1       0.639  -0.835   1.112  0.00  0.00    +0.027 A 
ATOM     23  C   UNL     1      -1.181  -4.006   0.131  0.00  0.00    +0.045 C 
ENDBRANCH  12  21
ENDBRANCH   1  13
BRANCH   9  24
ATOM     24  O   UNL     1       2.556  -4.819   8.523  0.00  0.00    -0.312 OA
BRANCH  24  25
ATOM     25  C   UNL     1       3.557  -5.564   9.030  0.00  0.00    +0.367 C 
ATOM     26  O   UNL     1       4.374  -6.071   8.288  0.00  0.00    -0.243 OA
BRANCH  25  27
ATOM     27  C   UNL     1       3.662  -5.763  10.490  0.00  0.00    +0.075 A 
ATOM     28  C   UNL     1       2.721  -5.187  11.346  0.00  0.00    +0.016 A 
ATOM     29  C   UNL     1       2.825  -5.378  12.708  0.00  0.00    +0.001 A 
ATOM     30  C   UNL     1       3.858  -6.138  13.227  0.00  0.00    +0.001 A 
ATOM     31  C   UNL     1       4.793  -6.712  12.386  0.00  0.00    +0.016 A 
ATOM     32  C   UNL     1       4.699  -6.535  11.020  0.00  0.00    +0.032 A 
ATOM     33 BR   UNL     1       5.974  -7.327   9.871  0.00  0.00    -0.049 Br
ENDBRANCH  25  27
ENDBRANCH  24  25
ENDBRANCH   9  24
TORSDOF 5
