REMARK  Name = ZINC25397148
REMARK  7 active torsions:
REMARK  status: ('A' for Active; 'I' for Inactive)
REMARK    1  A    between atoms: C_1  and  C_2
REMARK    2  A    between atoms: C_5  and  S_7
REMARK    3  A    between atoms: S_7  and  N_10
REMARK    4  A    between atoms: C_14  and  C_17
REMARK    5  A    between atoms: C_17  and  O_19
REMARK    6  A    between atoms: O_19  and  C_20
REMARK    7  A    between atoms: C_29  and  C_31
REMARK                            x       y       z     vdW  Elec       q    Type
REMARK                         _______ _______ _______ _____ _____    ______ ____
ROOT
ATOM      1  N   UNL     1      -1.425  -1.984   0.057  0.00  0.00    -0.175 NA
ATOM      2  C   UNL     1      -0.775  -2.571  -1.123  0.00  0.00    +0.109 C 
ATOM      3  C   UNL     1       0.653  -2.025  -1.222  0.00  0.00    +0.018 C 
ATOM      4  C   UNL     1       0.611  -0.495  -1.225  0.00  0.00    +0.017 C 
ATOM      5  C   UNL     1      -0.007   0.002   0.084  0.00  0.00    +0.114 C 
ATOM      6  C   UNL     1      -1.442  -0.521   0.199  0.00  0.00    +0.124 C 
ENDROOT
BRANCH   1   7
ATOM      7  S   UNL     1      -2.125  -2.951   1.204  0.00  0.00    +0.067 S 
ATOM      8  O   UNL     1      -1.491  -4.219   1.108  0.00  0.00    -0.152 OA
ATOM      9  O   UNL     1      -2.148  -2.200   2.409  0.00  0.00    -0.152 OA
BRANCH   7  14
ATOM     10  C   UNL     1      -7.945  -2.946   0.142  0.00  0.00    +0.051 C 
ATOM     11  C   UNL     1      -6.460  -3.172   0.254  0.00  0.00    -0.011 A 
ATOM     12  C   UNL     1      -5.701  -4.151  -0.296  0.00  0.00    +0.013 A 
ATOM     13  C   UNL     1      -4.339  -4.158  -0.058  0.00  0.00    +0.036 A 
ATOM     14  C   UNL     1      -3.805  -3.191   0.727  0.00  0.00    +0.143 A 
ATOM     15  S   UNL     1      -5.242  -2.220   1.148  0.00  0.00    -0.074 S 
ENDBRANCH   7  14
ENDBRANCH   1   7
BRANCH   5  16
ATOM     16  C   UNL     1      -0.018   1.509   0.095  0.00  0.00    +0.317 C 
ATOM     17  O   UNL     1      -1.066   2.104   0.180  0.00  0.00    -0.250 OA
BRANCH  16  18
ATOM     18  O   UNL     1       1.135   2.190   0.003  0.00  0.00    -0.425 OA
BRANCH  18  19
ATOM     19  C   UNL     1       1.047   3.541  -0.094  0.00  0.00    +0.143 A 
ATOM     20  C   UNL     1       1.044   4.147  -1.339  0.00  0.00    +0.050 A 
ATOM     21  C   UNL     1       0.955   5.521  -1.441  0.00  0.00    +0.042 A 
ATOM     22  C   UNL     1       0.867   6.302  -0.298  0.00  0.00    +0.128 A 
ATOM     23  C   UNL     1       0.869   5.715   0.953  0.00  0.00    +0.005 A 
ATOM     24  C   UNL     1       0.953   4.327   1.071  0.00  0.00    +0.066 A 
ATOM     25  C   UNL     1       0.930   3.924   2.483  0.00  0.00    +0.168 C 
ATOM     26  O   UNL     1       0.992   2.786   2.900  0.00  0.00    -0.292 OA
ATOM     27  C   UNL     1       0.816   5.170   3.327  0.00  0.00    +0.087 C 
ATOM     28  C   UNL     1       0.784   6.335   2.327  0.00  0.00    +0.027 C 
ATOM     29  C   UNL     1      -0.530   7.104   2.478  0.00  0.00    +0.013 C 
ATOM     30  F   UNL     1       0.780   7.646  -0.409  0.00  0.00    -0.205 F 
ENDBRANCH  18  19
ENDBRANCH  16  18
ENDBRANCH   5  16
TORSDOF 5
