REMARK  Name = ZINC09542678
REMARK  6 active torsions:
REMARK  status: ('A' for Active; 'I' for Inactive)
REMARK    1  A    between atoms: C_1  and  C_2
REMARK    2  A    between atoms: C_2  and  C_3
REMARK    3  A    between atoms: C_6  and  C_9
REMARK    4  A    between atoms: C_11  and  C_24
REMARK    5  A    between atoms: C_13  and  C_16
REMARK    6  A    between atoms: C_21  and  O_22
REMARK                            x       y       z     vdW  Elec       q    Type
REMARK                         _______ _______ _______ _____ _____    ______ ____
ROOT
ATOM      1  C   UNL     1       2.477   1.076  -0.016  0.00  0.00    +0.040 C 
ATOM      2  N   UNL     1       2.465  -0.203  -0.017  0.00  0.00    -0.298 NA
ATOM      3  C   UNL     1       3.663  -1.033  -0.048  0.00  0.00    +0.082 C 
ATOM      4  C   UNL     1       4.919   0.991  -0.429  0.00  0.00    -0.028 C 
ATOM      5  C   UNL     1       3.744   1.885  -0.024  0.00  0.00    +0.044 C 
ATOM      6  N   UNL     1       4.844  -0.256   0.357  0.00  0.00    +0.401 N 
ATOM      7  H   UNL     1       5.691  -0.813   0.194  0.00  0.00    -0.081 HD
ATOM      8  H   UNL     1       4.774  -0.025   1.355  0.00  0.00    -0.081 HD
ENDROOT
BRANCH   3   9
ATOM      9  C   UNL     1       3.485  -2.190   0.901  0.00  0.00    -0.022 A 
ATOM     10  C   UNL     1       4.574  -2.693   1.588  0.00  0.00    +0.006 A 
ATOM     11  C   UNL     1       4.411  -3.751   2.463  0.00  0.00    +0.020 A 
ATOM     12  C   UNL     1       3.159  -4.313   2.643  0.00  0.00    +0.042 A 
ATOM     13  C   UNL     1       2.071  -3.813   1.952  0.00  0.00    +0.040 A 
ATOM     14  C   UNL     1       2.234  -2.751   1.080  0.00  0.00    +0.046 A 
ATOM     15 CL   UNL     1       0.868  -2.123   0.212  0.00  0.00    -0.083 Cl
ATOM     16 CL   UNL     1       2.955  -5.646   3.737  0.00  0.00    -0.083 Cl
ENDBRANCH   3   9
BRANCH   4  17
ATOM     17  C   UNL     1       6.219   1.694  -0.137  0.00  0.00    -0.018 A 
ATOM     18  C   UNL     1       6.931   1.385   1.006  0.00  0.00    +0.020 A 
ATOM     19  C   UNL     1       8.127   2.027   1.273  0.00  0.00    +0.018 A 
ATOM     20  C   UNL     1       8.607   2.989   0.401  0.00  0.00    +0.019 A 
ATOM     21  C   UNL     1       7.896   3.304  -0.740  0.00  0.00    +0.047 A 
ATOM     22  C   UNL     1       6.700   2.657  -1.012  0.00  0.00    +0.119 A 
ATOM     23 BR   UNL     1       9.102   1.597   2.835  0.00  0.00    -0.050 Br
BRANCH  22  24
ATOM     24  O   UNL     1       5.998   2.967  -2.135  0.00  0.00    -0.507 OA
ATOM     25  H   UNL     1       5.357   3.680  -2.014  0.00  0.00    +0.292 HD
ENDBRANCH  22  24
ENDBRANCH   4  17
BRANCH   1  29
ATOM     26  C   UNL     1      -1.236   3.134   0.029  0.00  0.00    -0.048 A 
ATOM     27  C   UNL     1      -1.216   1.751   0.017  0.00  0.00    +0.004 A 
ATOM     28  C   UNL     1      -0.013   1.076   0.008  0.00  0.00    +0.010 A 
ATOM     29  C   UNL     1       1.186   1.792   0.000  0.00  0.00    -0.004 A 
ATOM     30  C   UNL     1       1.158   3.188   0.008  0.00  0.00    +0.010 A 
ATOM     31  C   UNL     1      -0.052   3.850   0.022  0.00  0.00    +0.004 A 
BRANCH  26  33
ATOM     32  C   UNL     1      -3.013   4.119  -1.392  0.00  0.00    +0.009 C 
ATOM     33  C   UNL     1      -2.554   3.865   0.045  0.00  0.00    +0.032 C 
ENDBRANCH  26  33
ENDBRANCH   1  29
TORSDOF 5
