REMARK  Name = ZINC16193275
REMARK  9 active torsions:
REMARK  status: ('A' for Active; 'I' for Inactive)
REMARK    1  A    between atoms: C_1  and  C_2
REMARK    2  A    between atoms: C_2  and  O_4
REMARK    3  A    between atoms: O_4  and  C_5
REMARK    4  A    between atoms: C_5  and  C_6
REMARK    5  A    between atoms: CA_7  and  C_31
REMARK    6  A    between atoms: CA_11  and  N_15
REMARK    7  A    between atoms: C_16  and  C_18
REMARK    8  A    between atoms: C_20  and  C_24
REMARK    9  A    between atoms: N_22  and  C_23
REMARK                            x       y       z     vdW  Elec       q    Type
REMARK                         _______ _______ _______ _____ _____    ______ ____
ROOT
ATOM      1  C   UNL     1      -2.485   4.367  -1.029  0.00  0.00    +0.006 C 
ATOM      2  CA  UNL     1      -2.477   3.576   0.033  0.00  0.00    +0.130 C 
ATOM      3  N   UNL     1      -1.648   2.443   0.067  0.00  0.00    -0.249 N 
ATOM      4  C   UNL     1      -1.042   1.749  -1.114  0.00  0.00    +0.169 C 
ATOM      5  CA  UNL     1      -0.093   1.114  -0.102  0.00  0.00    +0.191 C 
ATOM      6  C   UNL     1      -0.976   1.715   0.979  0.00  0.00    +0.244 C 
ATOM      7  O   UNL     1      -1.046   1.588   2.183  0.00  0.00    -0.273 OA
ATOM      8  S   UNL     1      -0.319   3.076  -2.136  0.00  0.00    -0.131 S 
ATOM      9  C   UNL     1      -1.733   4.208  -2.310  0.00  0.00    +0.107 C 
ENDROOT
BRANCH   5  10
ATOM     10  N   UNL     1       1.261   1.673  -0.134  0.00  0.00    -0.296 N 
ATOM     11  C   UNL     1       2.300   0.948   0.323  0.00  0.00    +0.264 C 
ATOM     12  O   UNL     1       2.104  -0.133   0.847  0.00  0.00    -0.268 OA
ATOM     13  H   UNL     1       1.409   2.565  -0.485  0.00  0.00    +0.150 HD
BRANCH  11  14
ATOM     14  C   UNL     1       3.671   1.462   0.190  0.00  0.00    +0.142 A 
ATOM     15  C   UNL     1       4.425   2.084   1.172  0.00  0.00    +0.103 A 
ATOM     16  C   UNL     1       5.648   2.385   0.563  0.00  0.00    +0.184 A 
ATOM     17  N   UNL     1       5.594   1.965  -0.675  0.00  0.00    -0.165 NA
ATOM     18  N   UNL     1       4.460   1.418  -0.926  0.00  0.00    -0.260 N 
ATOM     19  C   UNL     1       4.069   0.838  -2.214  0.00  0.00    +0.173 C 
ATOM     20 CL   UNL     1       3.953   2.419   2.808  0.00  0.00    -0.079 Cl
BRANCH  16  21
ATOM     21  C   UNL     1       6.819   3.071   1.217  0.00  0.00    +0.437 C 
ATOM     22  F   UNL     1       7.657   2.113   1.797  0.00  0.00    -0.164 F 
ATOM     23  F   UNL     1       7.532   3.794   0.255  0.00  0.00    -0.164 F 
ATOM     24  F   UNL     1       6.354   3.944   2.207  0.00  0.00    -0.164 F 
ENDBRANCH  16  21
ENDBRANCH  11  14
ENDBRANCH   5  10
BRANCH   2  25
ATOM     25  C   UNL     1      -3.343   3.887   1.186  0.00  0.00    +0.401 C 
ATOM     26  O   UNL     1      -3.261   3.226   2.202  0.00  0.00    -0.239 OA
ATOM     27  OXT UNL     1      -4.225   4.903   1.111  0.00  0.00    -0.239 OA
ENDBRANCH   2  25
BRANCH   1  28
ATOM     28  C   UNL     1      -3.366   5.585  -0.933  0.00  0.00    +0.266 C 
BRANCH  28  29
ATOM     29  O   UNL     1      -3.182   6.410  -2.114  0.00  0.00    -0.460 OA
BRANCH  29  31
ATOM     30  C   UNL     1      -3.769   8.450  -3.375  0.00  0.00    +0.136 C 
ATOM     31  C   UNL     1      -3.821   7.591  -2.138  0.00  0.00    +0.304 C 
ATOM     32  O   UNL     1      -4.437   7.964  -1.168  0.00  0.00    -0.251 OA
ENDBRANCH  29  31
ENDBRANCH  28  29
ENDBRANCH   1  28
TORSDOF 7
