REMARK  Name = ZINC01082038
REMARK  10 active torsions:
REMARK  status: ('A' for Active; 'I' for Inactive)
REMARK    1  A    between atoms: C_1  and  C_2
REMARK    2  A    between atoms: C_2  and  C_3
REMARK    3  A    between atoms: C_3  and  C_5
REMARK    4  A    between atoms: C_3  and  O_6
REMARK    5  A    between atoms: O_6  and  C_7
REMARK    6  A    between atoms: C_7  and  C_9
REMARK    7  A    between atoms: C_10  and  C_37
REMARK    8  A    between atoms: C_14  and  C_16
REMARK    9  A    between atoms: C_19  and  N_22
REMARK   10  A    between atoms: C_28  and  C_31
REMARK                            x       y       z     vdW  Elec       q    Type
REMARK                         _______ _______ _______ _____ _____    ______ ____
ROOT
ATOM      1  C   UNL     1      -1.222   3.533  -0.383  0.00  0.00    +0.065 C 
ATOM      2  C   UNL     1      -0.030   4.154  -0.373  0.00  0.00    +0.016 C 
ATOM      3  N   UNL     1       1.097   3.483   0.009  0.00  0.00    -0.321 N 
ATOM      4  C   UNL     1       1.130   2.114   0.003  0.00  0.00    +0.016 C 
ATOM      5  C   UNL     1      -0.017   1.402   0.010  0.00  0.00    +0.024 C 
ATOM      6  C   UNL     1      -1.355   2.097   0.033  0.00  0.00    +0.092 C 
ATOM      7  C   UNL     1       0.002  -0.004   0.002  0.00  0.00    +0.162 C 
ATOM      8  O   UNL     1      -1.048  -0.615  -0.011  0.00  0.00    -0.292 OA
ATOM      9  C   UNL     1       1.300  -0.765   0.009  0.00  0.00    +0.088 C 
ATOM     10  C   UNL     1       2.370   0.081   0.706  0.00  0.00    +0.032 C 
ATOM     11  C   UNL     1       2.472   1.426  -0.016  0.00  0.00    +0.059 C 
ATOM     12  C   UNL     1       0.063   5.601  -0.785  0.00  0.00    +0.061 C 
ATOM     13  H   UNL     1       1.990   4.042   0.325  0.00  0.00    +0.152 HD
ENDROOT
BRANCH   6  14
ATOM     14  C   UNL     1      -1.922   2.033   1.427  0.00  0.00    -0.035 A 
ATOM     15  C   UNL     1      -1.226   2.594   2.482  0.00  0.00    +0.007 A 
ATOM     16  C   UNL     1      -1.748   2.540   3.761  0.00  0.00    +0.033 A 
ATOM     17  C   UNL     1      -2.961   1.917   3.987  0.00  0.00    +0.126 A 
ATOM     18  C   UNL     1      -3.654   1.351   2.933  0.00  0.00    +0.033 A 
ATOM     19  C   UNL     1      -3.135   1.410   1.653  0.00  0.00    +0.007 A 
BRANCH  17  20
ATOM     20  N   UNL     1      -3.518   1.854   5.357  0.00  0.00    +0.056 N 
ATOM     21  O   UNL     1      -4.587   1.305   5.556  0.00  0.00    -0.126 OA
ATOM     22  O   UNL     1      -2.907   2.352   6.285  0.00  0.00    -0.126 OA
ENDBRANCH  17  20
ENDBRANCH   6  14
BRANCH  10  23
ATOM     23  C   UNL     1       3.698  -0.630   0.643  0.00  0.00    -0.044 A 
ATOM     24  C   UNL     1       4.259  -0.939  -0.582  0.00  0.00    +0.004 A 
ATOM     25  C   UNL     1       5.478  -1.587  -0.640  0.00  0.00    +0.000 A 
ATOM     26  C   UNL     1       6.133  -1.934   0.527  0.00  0.00    +0.000 A 
ATOM     27  C   UNL     1       5.569  -1.629   1.752  0.00  0.00    +0.000 A 
ATOM     28  C   UNL     1       4.352  -0.978   1.810  0.00  0.00    +0.004 A 
ENDBRANCH  10  23
BRANCH   1  29
ATOM     29  C   UNL     1      -2.373   4.247  -0.790  0.00  0.00    +0.338 C 
ATOM     30  O   UNL     1      -2.279   5.412  -1.128  0.00  0.00    -0.245 OA
BRANCH  29  31
ATOM     31  O   UNL     1      -3.576   3.636  -0.805  0.00  0.00    -0.458 OA
BRANCH  31  32
ATOM     32  C   UNL     1      -4.696   4.417  -1.228  0.00  0.00    +0.173 C 
ATOM     33  C   UNL     1      -4.869   4.283  -2.742  0.00  0.00    +0.052 C 
BRANCH  32  35
ATOM     34  C   UNL     1      -5.838   4.168   0.981  0.00  0.00    +0.007 C 
ATOM     35  C   UNL     1      -5.960   3.919  -0.524  0.00  0.00    +0.041 C 
ENDBRANCH  32  35
ENDBRANCH  31  32
ENDBRANCH  29  31
ENDBRANCH   1  29
TORSDOF 7
