REMARK  Name = ZINC12569779
REMARK  7 active torsions:
REMARK  status: ('A' for Active; 'I' for Inactive)
REMARK    1  A    between atoms: C_1  and  C_2
REMARK    2  A    between atoms: C_2  and  C_22
REMARK    3  A    between atoms: N_3  and  N_4
REMARK    4  A    between atoms: C_5  and  C_7
REMARK    5  A    between atoms: C_10  and  N_13
REMARK    6  A    between atoms: N_13  and  S_14
REMARK    7  A    between atoms: S_14  and  C_17
REMARK                            x       y       z     vdW  Elec       q    Type
REMARK                         _______ _______ _______ _____ _____    ______ ____
ROOT
ATOM      1  N   UNL     1      -0.299  -0.373   0.351  0.00  0.00    -0.203 N 
ATOM      2  C   UNL     1      -0.210   0.960   0.178  0.00  0.00    +0.263 C 
ATOM      3  O   UNL     1       0.878   1.484   0.039  0.00  0.00    -0.268 OA
ATOM      4  H   UNL     1      -1.168  -0.791   0.461  0.00  0.00    +0.178 HD
ENDROOT
BRANCH   2   5
ATOM      5  C   UNL     1      -1.434   1.783   0.150  0.00  0.00    +0.038 A 
ATOM      6  C   UNL     1      -2.687   1.181   0.298  0.00  0.00    +0.015 A 
ATOM      7  C   UNL     1      -3.826   1.952   0.278  0.00  0.00    +0.025 A 
ATOM      8  C   UNL     1      -3.733   3.330   0.099  0.00  0.00    +0.048 A 
ATOM      9  C   UNL     1      -2.487   3.932  -0.055  0.00  0.00    +0.025 A 
ATOM     10  C   UNL     1      -1.343   3.167  -0.030  0.00  0.00    +0.015 A 
BRANCH   8  11
ATOM     11  N   UNL     1      -4.886   4.106   0.074  0.00  0.00    -0.216 N 
ATOM     12  H   UNL     1      -5.367   4.288   0.897  0.00  0.00    +0.174 HD
BRANCH  11  13
ATOM     13  S   UNL     1      -5.440   4.721  -1.361  0.00  0.00    +0.079 S 
ATOM     14  O   UNL     1      -6.631   5.436  -1.064  0.00  0.00    -0.149 OA
ATOM     15  O   UNL     1      -4.325   5.328  -2.000  0.00  0.00    -0.149 OA
BRANCH  13  16
ATOM     16  C   UNL     1      -5.912   3.353  -2.366  0.00  0.00    +0.146 A 
ATOM     17  C   UNL     1      -7.087   2.678  -2.391  0.00  0.00    +0.036 A 
ATOM     18  C   UNL     1      -7.236   1.624  -3.274  0.00  0.00    +0.010 A 
ATOM     19  C   UNL     1      -6.202   1.297  -4.088  0.00  0.00    +0.047 A 
ATOM     20  S   UNL     1      -4.970   2.501  -3.621  0.00  0.00    -0.077 S 
ENDBRANCH  13  16
ENDBRANCH  11  13
ENDBRANCH   8  11
ENDBRANCH   2   5
BRANCH   1  23
ATOM     21  C   UNL     1      -0.572  -3.091   0.710  0.00  0.00    +0.068 C 
ATOM     22  C   UNL     1       0.777  -2.442   0.538  0.00  0.00    +0.064 C 
ATOM     23  N   UNL     1       0.863  -1.156   0.371  0.00  0.00    -0.184 NA
BRANCH  22  24
ATOM     24  C   UNL     1       1.997  -3.264   0.560  0.00  0.00    +0.005 A 
ATOM     25  C   UNL     1       1.933  -4.621   0.850  0.00  0.00    +0.010 A 
ATOM     26  C   UNL     1       3.086  -5.394   0.870  0.00  0.00    +0.001 A 
ATOM     27  C   UNL     1       4.311  -4.862   0.609  0.00  0.00    +0.008 A 
ATOM     28  C   UNL     1       4.451  -3.497   0.308  0.00  0.00    -0.017 A 
ATOM     29  C   UNL     1       3.301  -2.671   0.270  0.00  0.00    -0.009 A 
ATOM     30  C   UNL     1       3.437  -1.309  -0.023  0.00  0.00    +0.009 A 
ATOM     31  C   UNL     1       4.673  -0.795  -0.282  0.00  0.00    +0.001 A 
ATOM     32  C   UNL     1       5.805  -1.606  -0.251  0.00  0.00    +0.001 A 
ATOM     33  C   UNL     1       5.710  -2.933   0.037  0.00  0.00    +0.008 A 
ENDBRANCH  22  24
ENDBRANCH   1  23
TORSDOF 6
