REMARK  Name = ZINC02708613
REMARK  10 active torsions:
REMARK  status: ('A' for Active; 'I' for Inactive)
REMARK    1  A    between atoms: C_1  and  C_2
REMARK    2  A    between atoms: C_2  and  O_3
REMARK    3  A    between atoms: O_3  and  C_4
REMARK    4  A    between atoms: C_4  and  C_6
REMARK    5  A    between atoms: C_7  and  C_33
REMARK    6  A    between atoms: C_11  and  C_20
REMARK    7  A    between atoms: C_12  and  O_19
REMARK    8  A    between atoms: C_20  and  N_65
REMARK    9  A    between atoms: C_23  and  C_26
REMARK   10  A    between atoms: C_26  and  C_27
REMARK                            x       y       z     vdW  Elec       q    Type
REMARK                         _______ _______ _______ _____ _____    ______ ____
ROOT
ATOM      1  C   UNL     1       0.631   7.425   0.034  0.00  0.00    +0.108 A 
ATOM      2  C   UNL     1      -0.717   7.412   0.228  0.00  0.00    +0.117 A 
ATOM      3  O   UNL     1      -1.182   6.170   0.064  0.00  0.00    -0.459 OA
ATOM      4  C   UNL     1      -0.189   5.311  -0.241  0.00  0.00    +0.144 A 
ATOM      5  C   UNL     1       1.003   6.031  -0.281  0.00  0.00    +0.040 A 
ATOM      6  C   UNL     1       2.218   5.397  -0.577  0.00  0.00    -0.010 A 
ATOM      7  C   UNL     1       2.260   4.060  -0.833  0.00  0.00    +0.127 A 
ATOM      8  C   UNL     1       1.071   3.296  -0.802  0.00  0.00    +0.027 A 
ATOM      9  C   UNL     1      -0.162   3.924  -0.504  0.00  0.00    +0.028 A 
ATOM     10  C   UNL     1      -1.337   3.157  -0.475  0.00  0.00    +0.012 A 
ATOM     11  C   UNL     1      -1.278   1.822  -0.738  0.00  0.00    +0.001 A 
ATOM     12  C   UNL     1      -0.065   1.203  -1.026  0.00  0.00    +0.001 A 
ATOM     13  C   UNL     1       1.095   1.917  -1.062  0.00  0.00    +0.012 A 
ATOM     14  C   UNL     1      -1.556   8.615   0.575  0.00  0.00    +0.087 C 
ENDROOT
BRANCH   1  15
ATOM     15  C   UNL     1       1.529   8.585   0.119  0.00  0.00    +0.343 C 
ATOM     16  O   UNL     1       1.837   9.191  -0.889  0.00  0.00    -0.245 OA
BRANCH  15  17
ATOM     17  O   UNL     1       2.012   8.977   1.315  0.00  0.00    -0.461 OA
BRANCH  17  19
ATOM     18  C   UNL     1       3.336  10.423   2.760  0.00  0.00    +0.048 C 
ATOM     19  C   UNL     1       2.893  10.131   1.325  0.00  0.00    +0.229 C 
ENDBRANCH  17  19
ENDBRANCH  15  17
ENDBRANCH   1  15
BRANCH   7  20
ATOM     20  O   UNL     1       3.445   3.460  -1.118  0.00  0.00    -0.506 OA
ATOM     21  H   UNL     1       3.663   3.447  -2.060  0.00  0.00    +0.292 HD
ENDBRANCH   7  20
BRANCH   6  22
ATOM     22  C   UNL     1       3.491   6.203  -0.613  0.00  0.00    -0.039 C 
BRANCH  22  28
ATOM     23  C   UNL     1       4.114   5.024   1.408  0.00  0.00    -0.078 C 
ATOM     24  C   UNL     1       4.535   5.213   2.867  0.00  0.00    -0.015 C 
ATOM     25  C   UNL     1       5.892   5.921   2.913  0.00  0.00    -0.010 C 
ATOM     26  C   UNL     1       5.786   7.260   2.179  0.00  0.00    -0.015 C 
ATOM     27  C   UNL     1       5.328   7.012   0.740  0.00  0.00    -0.078 C 
ATOM     28  N   UNL     1       4.006   6.351   0.764  0.00  0.00    +0.382 N 
ATOM     29  H   UNL     1       3.354   6.931   1.304  0.00  0.00    -0.081 HD
BRANCH  25  30
ATOM     30  C   UNL     1       6.292   6.167   4.370  0.00  0.00    +0.038 C 
BRANCH  30  31
ATOM     31  C   UNL     1       6.516   4.846   5.059  0.00  0.00    -0.047 A 
ATOM     32  C   UNL     1       5.467   4.215   5.702  0.00  0.00    +0.003 A 
ATOM     33  C   UNL     1       5.671   3.001   6.330  0.00  0.00    +0.000 A 
ATOM     34  C   UNL     1       6.927   2.422   6.325  0.00  0.00    +0.000 A 
ATOM     35  C   UNL     1       7.977   3.055   5.687  0.00  0.00    +0.000 A 
ATOM     36  C   UNL     1       7.771   4.267   5.054  0.00  0.00    +0.003 A 
ENDBRANCH  30  31
ENDBRANCH  25  30
ENDBRANCH  22  28
ENDBRANCH   6  22
TORSDOF 8
