REMARK  Name = ZINC16931189
REMARK  10 active torsions:
REMARK  status: ('A' for Active; 'I' for Inactive)
REMARK    1  A    between atoms: C_1  and  C_2
REMARK    2  A    between atoms: C_2  and  C_3
REMARK    3  A    between atoms: C_3  and  C_5
REMARK    4  A    between atoms: C_3  and  O_8
REMARK    5  A    between atoms: O_8  and  C_9
REMARK    6  A    between atoms: C_12  and  C_15
REMARK    7  A    between atoms: N_19  and  C_33
REMARK    8  A    between atoms: N_21  and  C_22
REMARK    9  A    between atoms: C_25  and  C_29
REMARK   10  A    between atoms: C_26  and  O_28
REMARK                            x       y       z     vdW  Elec       q    Type
REMARK                         _______ _______ _______ _____ _____    ______ ____
ROOT
ATOM      1  C   UNL     1       2.608   0.487  -7.308  0.00  0.00    +0.028 C 
ATOM      2  C   UNL     1       1.935   0.957  -8.389  0.00  0.00    +0.078 C 
ATOM      3  C   UNL     1       2.439   1.284  -9.736  0.00  0.00    +0.259 C 
ATOM      4  O   UNL     1       3.613   1.150 -10.026  0.00  0.00    -0.269 OA
ATOM      5  N   UNL     1       1.556   1.730 -10.614  0.00  0.00    -0.249 N 
ATOM      6  C   UNL     1       0.232   1.875 -10.268  0.00  0.00    +0.168 C 
ATOM      7  N   UNL     1      -0.767   2.301 -11.013  0.00  0.00    -0.225 NA
ATOM      8  S   UNL     1       0.198   1.337  -8.566  0.00  0.00    -0.049 S 
ATOM      9  C   UNL     1       1.992   2.073 -11.970  0.00  0.00    +0.140 C 
ENDROOT
BRANCH   1  13
ATOM     10  C   UNL     1       0.651   0.183  -3.558  0.00  0.00    +0.122 A 
ATOM     11  C   UNL     1       1.836  -0.510  -3.779  0.00  0.00    +0.046 A 
ATOM     12  C   UNL     1       2.476  -0.415  -4.995  0.00  0.00    +0.011 A 
ATOM     13  C   UNL     1       1.930   0.381  -6.010  0.00  0.00    -0.024 A 
ATOM     14  C   UNL     1       0.736   1.077  -5.782  0.00  0.00    +0.011 A 
ATOM     15  C   UNL     1       0.102   0.970  -4.564  0.00  0.00    +0.046 A 
BRANCH  10  16
ATOM     16  O   UNL     1       0.024   0.085  -2.358  0.00  0.00    -0.477 OA
BRANCH  16  17
ATOM     17  C   UNL     1      -1.250   0.720  -2.238  0.00  0.00    +0.285 C 
BRANCH  17  18
ATOM     18  C   UNL     1      -1.056   2.175  -1.895  0.00  0.00    +0.396 C 
ATOM     19  O   UNL     1       0.063   2.605  -1.675  0.00  0.00    -0.242 OA
ATOM     20  O   UNL     1      -2.019   2.921  -1.837  0.00  0.00    -0.242 OA
ENDBRANCH  17  18
BRANCH  17  22
ATOM     21  C   UNL     1      -2.361  -1.405  -1.538  0.00  0.00    +0.008 C 
ATOM     22  C   UNL     1      -2.058   0.038  -1.132  0.00  0.00    +0.053 C 
ENDBRANCH  17  22
ENDBRANCH  16  17
ENDBRANCH  10  16
ENDBRANCH   1  13
BRANCH   7  23
ATOM     23  C   UNL     1      -2.022   2.377 -10.489  0.00  0.00    +0.070 A 
ATOM     24  C   UNL     1      -2.524   1.319  -9.717  0.00  0.00    +0.029 A 
ATOM     25  C   UNL     1      -3.778   1.388  -9.191  0.00  0.00    +0.021 A 
ATOM     26  C   UNL     1      -4.577   2.519  -9.418  0.00  0.00    +0.105 A 
ATOM     27  C   UNL     1      -4.080   3.584 -10.191  0.00  0.00    +0.133 A 
ATOM     28  C   UNL     1      -2.806   3.512 -10.718  0.00  0.00    +0.074 A 
BRANCH  26  29
ATOM     29  C   UNL     1      -5.926   2.590  -8.851  0.00  0.00    +0.390 C 
ATOM     30  O   UNL     1      -6.358   1.662  -8.179  0.00  0.00    -0.240 OA
ATOM     31  O   UNL     1      -6.623   3.577  -9.050  0.00  0.00    -0.240 OA
ENDBRANCH  26  29
BRANCH  27  32
ATOM     32  O   UNL     1      -4.848   4.680 -10.415  0.00  0.00    -0.506 OA
ATOM     33  H   UNL     1      -4.745   5.375  -9.750  0.00  0.00    +0.292 HD
ENDBRANCH  27  32
ENDBRANCH   7  23
TORSDOF 8
