REMARK  Name = ZINC01790891
REMARK  4 active torsions:
REMARK  status: ('A' for Active; 'I' for Inactive)
REMARK    1  A    between atoms: C_3  and  C_8
REMARK    2  A    between atoms: C_10  and  C_27
REMARK    3  A    between atoms: C_10  and  C_31
REMARK    4  A    between atoms: N_16  and  C_19
REMARK                            x       y       z     vdW  Elec       q    Type
REMARK                         _______ _______ _______ _____ _____    ______ ____
ROOT
ATOM      1  C   UNL     1       3.983   1.911  -1.527  0.00  0.00    +0.106 C 
ATOM      2  N   UNL     1       5.104   1.319  -1.001  0.00  0.00    -0.306 N 
ATOM      3  C   UNL     1       6.364   2.081  -1.004  0.00  0.00    +0.258 C 
ATOM      4  C   UNL     1       6.037   3.512  -0.659  0.00  0.00    +0.099 A 
ATOM      5  C   UNL     1       6.990   4.346  -0.066  0.00  0.00    +0.262 A 
ATOM      6  N   UNL     1       6.663   5.622   0.221  0.00  0.00    -0.274 N 
ATOM      7  C   UNL     1       5.440   6.102  -0.064  0.00  0.00    +0.335 A 
ATOM      8  O   UNL     1       5.180   7.261   0.199  0.00  0.00    -0.246 OA
ATOM      9  N   UNL     1       4.497   5.329  -0.633  0.00  0.00    -0.248 N 
ATOM     10  C   UNL     1       4.774   4.009  -0.935  0.00  0.00    +0.132 A 
ATOM     11  N   UNL     1       3.834   3.218  -1.472  0.00  0.00    -0.329 N 
ATOM     12  O   UNL     1       8.104   3.922   0.190  0.00  0.00    -0.267 OA
ATOM     13  H   UNL     1       3.024   3.619  -1.826  0.00  0.00    +0.168 HD
ATOM     14  H   UNL     1       7.319   6.202   0.639  0.00  0.00    +0.173 HD
ATOM     15  H   UNL     1       5.068   0.420  -0.637  0.00  0.00    +0.149 HD
ENDROOT
BRANCH   1  18
ATOM     16  C   UNL     1       0.638   0.707  -2.737  0.00  0.00    +0.002 A 
ATOM     17  C   UNL     1       1.607   1.488  -2.141  0.00  0.00    +0.011 A 
ATOM     18  C   UNL     1       2.942   1.079  -2.163  0.00  0.00    +0.014 A 
ATOM     19  C   UNL     1       3.287  -0.121  -2.789  0.00  0.00    +0.031 A 
ATOM     20  C   UNL     1       2.309  -0.893  -3.381  0.00  0.00    +0.042 A 
ATOM     21  C   UNL     1       0.987  -0.480  -3.355  0.00  0.00    +0.020 A 
ATOM     22 CL   UNL     1       2.735  -2.385  -4.160  0.00  0.00    -0.084 Cl
ENDBRANCH   1  18
BRANCH   9  23
ATOM     23  C   UNL     1       3.233   5.862  -0.920  0.00  0.00    +0.053 A 
ATOM     24  C   UNL     1       2.995   6.463  -2.149  0.00  0.00    +0.029 A 
ATOM     25  C   UNL     1       1.749   6.988  -2.430  0.00  0.00    +0.040 A 
ATOM     26  C   UNL     1       0.737   6.915  -1.487  0.00  0.00    +0.124 A 
ATOM     27  C   UNL     1       0.973   6.317  -0.261  0.00  0.00    +0.040 A 
ATOM     28  C   UNL     1       2.216   5.786   0.022  0.00  0.00    +0.029 A 
ATOM     29  F   UNL     1      -0.481   7.430  -1.763  0.00  0.00    -0.205 F 
ENDBRANCH   9  23
BRANCH   3  30
ATOM     30  C   UNL     1       7.006   2.015  -2.391  0.00  0.00    +0.424 C 
ATOM     31  F   UNL     1       6.132   2.563  -3.336  0.00  0.00    -0.168 F 
ATOM     32  F   UNL     1       8.202   2.741  -2.386  0.00  0.00    -0.168 F 
ATOM     33  F   UNL     1       7.272   0.682  -2.720  0.00  0.00    -0.168 F 
ENDBRANCH   3  30
BRANCH   3  34
ATOM     34  C   UNL     1       7.322   1.502   0.040  0.00  0.00    +0.424 C 
ATOM     35  F   UNL     1       7.339   0.107  -0.066  0.00  0.00    -0.168 F 
ATOM     36  F   UNL     1       8.609   2.002  -0.181  0.00  0.00    -0.168 F 
ATOM     37  F   UNL     1       6.893   1.868   1.320  0.00  0.00    -0.168 F 
ENDBRANCH   3  34
TORSDOF 4
