REMARK  Name = ZINC16687991
REMARK  14 active torsions:
REMARK  status: ('A' for Active; 'I' for Inactive)
REMARK    1  A    between atoms: C_1  and  C_2
REMARK    2  A    between atoms: C_2  and  O_3
REMARK    3  A    between atoms: O_3  and  C_4
REMARK    4  A    between atoms: C_4  and  C_5
REMARK    5  A    between atoms: C_5  and  C_6
REMARK    6  A    between atoms: C_6  and  N_53
REMARK    7  A    between atoms: C_7  and  C_8
REMARK    8  A    between atoms: C_7  and  N_53
REMARK    9  A    between atoms: C_10  and  O_24
REMARK   10  A    between atoms: C_11  and  O_15
REMARK   11  A    between atoms: O_15  and  C_16
REMARK   12  A    between atoms: C_16  and  C_17
REMARK   13  A    between atoms: O_24  and  C_25
REMARK   14  A    between atoms: C_25  and  C_26
REMARK                            x       y       z     vdW  Elec       q    Type
REMARK                         _______ _______ _______ _____ _____    ______ ____
ROOT
ATOM      1  C   UNL     1       2.380   1.417  -0.013  0.00  0.00    -0.060 A 
ATOM      2  C   UNL     1       2.405   0.035  -0.021  0.00  0.00    +0.051 A 
ATOM      3  C   UNL     1       1.218  -0.680  -0.013  0.00  0.00    +0.163 A 
ATOM      4  C   UNL     1       0.002  -0.004   0.002  0.00  0.00    +0.176 A 
ATOM      5  C   UNL     1      -0.017   1.382   0.010  0.00  0.00    +0.063 A 
ATOM      6  C   UNL     1       1.172   2.090   0.002  0.00  0.00    +0.021 A 
ATOM      7 BR   UNL     1      -1.667   2.305   0.022  0.00  0.00    -0.046 Br
ENDROOT
BRANCH   1   8
ATOM      8  C   UNL     1       3.672   2.193  -0.021  0.00  0.00    -0.047 C 
BRANCH   8   9
ATOM      9  N   UNL     1       4.073   2.449  -1.417  0.00  0.00    +0.382 N 
ATOM     10  H   UNL     1       4.201   1.554  -1.903  0.00  0.00    -0.085 HD
ATOM     11  H   UNL     1       3.338   2.991  -1.887  0.00  0.00    -0.085 HD
BRANCH   9  12
ATOM     12  C   UNL     1       5.337   3.208  -1.456  0.00  0.00    -0.080 C 
BRANCH  12  13
ATOM     13  C   UNL     1       5.727   3.459  -2.914  0.00  0.00    +0.009 C 
BRANCH  13  14
ATOM     14  C   UNL     1       7.038   4.246  -2.963  0.00  0.00    +0.158 C 
BRANCH  14  15
ATOM     15  O   UNL     1       7.403   4.480  -4.325  0.00  0.00    -0.380 OA
BRANCH  15  17
ATOM     16  C   UNL     1       8.910   5.403  -5.973  0.00  0.00    +0.034 C 
ATOM     17  C   UNL     1       8.620   5.212  -4.483  0.00  0.00    +0.156 C 
ENDBRANCH  15  17
ENDBRANCH  14  15
ENDBRANCH  13  14
ENDBRANCH  12  13
ENDBRANCH   9  12
ENDBRANCH   8   9
ENDBRANCH   1   8
BRANCH   4  18
ATOM     18  O   UNL     1      -1.165  -0.702   0.010  0.00  0.00    -0.483 OA
BRANCH  18  19
ATOM     19  C   UNL     1      -1.735  -1.028  -1.260  0.00  0.00    +0.267 C 
BRANCH  19  20
ATOM     20  C   UNL     1      -3.016  -1.795  -1.054  0.00  0.00    +0.025 A 
ATOM     21  C   UNL     1      -3.454  -2.078   0.227  0.00  0.00    +0.010 A 
ATOM     22  C   UNL     1      -4.631  -2.776   0.416  0.00  0.00    +0.001 A 
ATOM     23  C   UNL     1      -5.366  -3.203  -0.675  0.00  0.00    +0.003 A 
ATOM     24  C   UNL     1      -4.927  -2.926  -1.955  0.00  0.00    +0.039 A 
ATOM     25  C   UNL     1      -3.751  -2.222  -2.146  0.00  0.00    +0.130 A 
ATOM     26  F   UNL     1      -3.320  -1.951  -3.398  0.00  0.00    -0.205 F 
ENDBRANCH  19  20
ENDBRANCH  18  19
ENDBRANCH   4  18
BRANCH   3  27
ATOM     27  O   UNL     1       1.242  -2.040  -0.020  0.00  0.00    -0.489 OA
BRANCH  27  28
ATOM     28  C   UNL     1       2.526  -2.666  -0.036  0.00  0.00    +0.226 C 
ATOM     29  C   UNL     1       2.352  -4.186  -0.042  0.00  0.00    +0.048 C 
ENDBRANCH  27  28
ENDBRANCH   3  27
TORSDOF 12
