REMARK  Name = ZINC04188469
REMARK  12 active torsions:
REMARK  status: ('A' for Active; 'I' for Inactive)
REMARK    1  A    between atoms: C_1  and  C_2
REMARK    2  A    between atoms: C_7  and  N_8
REMARK    3  A    between atoms: N_8  and  C_9
REMARK    4  A    between atoms: C_9  and  C_10
REMARK    5  A    between atoms: N_12  and  C_13
REMARK    6  A    between atoms: C_13  and  C_14
REMARK    7  A    between atoms: C_14  and  C_15
REMARK    8  A    between atoms: C_15  and  C_16
REMARK    9  A    between atoms: C_15  and  C_17
REMARK   10  A    between atoms: C_18  and  C_20
REMARK   11  A    between atoms: C_21  and  N_28
REMARK   12  A    between atoms: C_22  and  C_25
REMARK                            x       y       z     vdW  Elec       q    Type
REMARK                         _______ _______ _______ _____ _____    ______ ____
ROOT
ATOM      1  N   UNL     1      -1.198   1.869   0.048  0.00  0.00    -0.258 N 
ATOM      2  C   UNL     1       0.019   1.298  -0.048  0.00  0.00    +0.261 C 
ATOM      3  O   UNL     1       0.123   0.085  -0.067  0.00  0.00    -0.269 OA
ENDROOT
BRANCH   1  10
ATOM      4  C   UNL     1      -1.583   3.221  -2.426  0.00  0.00    +0.045 C 
ATOM      5  C   UNL     1      -1.506   3.962  -1.115  0.00  0.00    -0.029 A 
ATOM      6  C   UNL     1      -1.624   5.338  -1.091  0.00  0.00    +0.005 A 
ATOM      7  C   UNL     1      -1.554   6.018   0.111  0.00  0.00    +0.000 A 
ATOM      8  C   UNL     1      -1.366   5.324   1.292  0.00  0.00    +0.002 A 
ATOM      9  C   UNL     1      -1.253   3.947   1.275  0.00  0.00    +0.024 A 
ATOM     10  C   UNL     1      -1.318   3.262   0.069  0.00  0.00    +0.040 A 
ENDBRANCH   1  10
BRANCH   2  11
ATOM     11  C   UNL     1       1.216   2.136  -0.136  0.00  0.00    +0.116 A 
ATOM     12  C   UNL     1       2.556   1.758  -0.240  0.00  0.00    +0.076 A 
ATOM     13  C   UNL     1       3.416   2.854  -0.304  0.00  0.00    +0.155 A 
ATOM     14  N   UNL     1       2.916   4.069  -0.254  0.00  0.00    -0.203 NA
ATOM     15  S   UNL     1       1.353   3.912  -0.132  0.00  0.00    +0.019 S 
BRANCH  13  16
ATOM     16  C   UNL     1       4.872   2.652  -0.420  0.00  0.00    +0.262 C 
ATOM     17  O   UNL     1       5.328   1.526  -0.465  0.00  0.00    -0.269 OA
ATOM     18  N   UNL     1       5.698   3.716  -0.476  0.00  0.00    -0.324 N 
ATOM     19  H   UNL     1       5.334   4.614  -0.440  0.00  0.00    +0.145 HD
ATOM     20  H   UNL     1       6.656   3.583  -0.552  0.00  0.00    +0.145 HD
ENDBRANCH  13  16
BRANCH  12  21
ATOM     21  N   UNL     1       2.984   0.438  -0.279  0.00  0.00    -0.355 N 
ATOM     22  H   UNL     1       2.337  -0.283  -0.233  0.00  0.00    +0.142 HD
ATOM     23  H   UNL     1       3.930   0.237  -0.352  0.00  0.00    +0.142 HD
ENDBRANCH  12  21
ENDBRANCH   2  11
BRANCH   1  24
ATOM     24  C   UNL     1      -2.396   1.029   0.130  0.00  0.00    +0.209 C 
BRANCH  24  25
ATOM     25  C   UNL     1      -2.626   0.621   1.562  0.00  0.00    +0.231 C 
ATOM     26  O   UNL     1      -1.918   1.064   2.440  0.00  0.00    -0.274 OA
ATOM     27  N   UNL     1      -3.620  -0.238   1.866  0.00  0.00    -0.314 N 
ATOM     28  H   UNL     1      -4.186  -0.593   1.163  0.00  0.00    +0.149 HD
BRANCH  27  29
ATOM     29  C   UNL     1      -3.843  -0.636   3.258  0.00  0.00    +0.104 C 
BRANCH  29  30
ATOM     30  C   UNL     1      -5.021  -1.609   3.328  0.00  0.00    +0.022 C 
BRANCH  30  31
ATOM     31  C   UNL     1      -5.255  -2.024   4.782  0.00  0.00    -0.016 C 
ATOM     32  C   UNL     1      -5.689  -0.804   5.597  0.00  0.00    +0.007 C 
ATOM     33  C   UNL     1      -6.350  -3.091   4.838  0.00  0.00    +0.007 C 
ENDBRANCH  30  31
ENDBRANCH  29  30
ENDBRANCH  27  29
ENDBRANCH  24  25
ENDBRANCH   1  24
TORSDOF 9
