REMARK  Name = ZINC09539638
REMARK  6 active torsions:
REMARK  status: ('A' for Active; 'I' for Inactive)
REMARK    1  A    between atoms: C_4  and  C_7
REMARK    2  A    between atoms: C_7  and  C_9
REMARK    3  A    between atoms: C_7  and  S_22
REMARK    4  A    between atoms: N_11  and  C_12
REMARK    5  A    between atoms: C_15  and  N_19
REMARK    6  A    between atoms: S_22  and  C_23
REMARK                            x       y       z     vdW  Elec       q    Type
REMARK                         _______ _______ _______ _____ _____    ______ ____
ROOT
ATOM      1  C   UNL     1       3.744  -0.964   0.176  0.00  0.00    +0.169 C 
ENDROOT
BRANCH   1   5
ATOM      2  C   UNL     1       5.468  -1.313  -3.716  0.00  0.00    +0.000 A 
ATOM      3  C   UNL     1       6.146  -0.640  -2.718  0.00  0.00    +0.000 A 
ATOM      4  C   UNL     1       5.589  -0.527  -1.458  0.00  0.00    +0.005 A 
ATOM      5  C   UNL     1       4.352  -1.087  -1.197  0.00  0.00    -0.025 A 
ATOM      6  C   UNL     1       3.676  -1.764  -2.194  0.00  0.00    +0.005 A 
ATOM      7  C   UNL     1       4.231  -1.874  -3.455  0.00  0.00    +0.000 A 
ENDBRANCH   1   5
BRANCH   1   8
ATOM      8  C   UNL     1       2.427  -0.238   0.079  0.00  0.00    +0.235 C 
ATOM      9  O   UNL     1       1.388  -0.864   0.086  0.00  0.00    -0.274 OA
ATOM     10  N   UNL     1       2.403   1.106  -0.015  0.00  0.00    -0.283 N 
ATOM     11  H   UNL     1       3.233   1.602  -0.086  0.00  0.00    +0.155 HD
BRANCH  10  12
ATOM     12  C   UNL     1       1.179   1.786  -0.010  0.00  0.00    +0.048 A 
ATOM     13  C   UNL     1       0.064   1.216  -0.608  0.00  0.00    +0.026 A 
ATOM     14  C   UNL     1      -1.141   1.892  -0.607  0.00  0.00    +0.034 A 
ATOM     15  C   UNL     1      -1.239   3.132  -0.002  0.00  0.00    +0.127 A 
ATOM     16  C   UNL     1      -0.130   3.703   0.594  0.00  0.00    +0.049 A 
ATOM     17  C   UNL     1       1.079   3.034   0.592  0.00  0.00    +0.041 A 
ATOM     18 BR   UNL     1       2.595   3.816   1.408  0.00  0.00    -0.048 Br
BRANCH  15  19
ATOM     19  N   UNL     1      -2.533   3.851   0.002  0.00  0.00    +0.056 N 
ATOM     20  O   UNL     1      -2.620   4.945   0.530  0.00  0.00    -0.126 OA
ATOM     21  O   UNL     1      -3.510   3.349  -0.523  0.00  0.00    -0.126 OA
ENDBRANCH  15  19
ENDBRANCH  10  12
ENDBRANCH   1   8
BRANCH   1  22
ATOM     22  S   UNL     1       3.474  -2.615   0.867  0.00  0.00    -0.088 S 
BRANCH  22  23
ATOM     23  C   UNL     1       5.143  -3.164   1.008  0.00  0.00    +0.109 A 
ATOM     24  C   UNL     1       5.445  -4.448   1.526  0.00  0.00    +0.032 A 
ATOM     25  C   UNL     1       4.448  -5.334   1.947  0.00  0.00    +0.012 A 
ATOM     26  C   UNL     1       4.800  -6.557   2.437  0.00  0.00    +0.001 A 
ATOM     27  C   UNL     1       6.137  -6.935   2.524  0.00  0.00    +0.002 A 
ATOM     28  C   UNL     1       7.131  -6.098   2.111  0.00  0.00    +0.028 A 
ATOM     29  C   UNL     1       6.806  -4.832   1.608  0.00  0.00    +0.075 A 
ATOM     30  N   UNL     1       7.746  -3.964   1.205  0.00  0.00    -0.235 NA
ATOM     31  C   UNL     1       7.408  -2.785   0.739  0.00  0.00    +0.223 A 
ATOM     32  N   UNL     1       6.151  -2.384   0.638  0.00  0.00    -0.229 NA
ENDBRANCH  22  23
ENDBRANCH   1  22
TORSDOF 6
