REMARK  Name = ZINC13501194
REMARK  12 active torsions:
REMARK  status: ('A' for Active; 'I' for Inactive)
REMARK    1  A    between atoms: C_1  and  C_2
REMARK    2  A    between atoms: C_2  and  C_3
REMARK    3  A    between atoms: C_3  and  C_5
REMARK    4  A    between atoms: C_3  and  N_68
REMARK    5  A    between atoms: N_9  and  C_10
REMARK    6  A    between atoms: C_10  and  C_11
REMARK    7  A    between atoms: C_10  and  C_12
REMARK    8  A    between atoms: C_10  and  C_13
REMARK    9  A    between atoms: C_13  and  C_14
REMARK   10  A    between atoms: C_15  and  C_16
REMARK   11  A    between atoms: C_15  and  N_68
REMARK   12  A    between atoms: C_31  and  N_68
REMARK                            x       y       z     vdW  Elec       q    Type
REMARK                         _______ _______ _______ _____ _____    ______ ____
ROOT
ATOM      1  N   UNL     1       3.071   0.888  -1.463  0.00  0.00    +0.391 N 
ATOM      2  H   UNL     1       3.184   0.135  -2.152  0.00  0.00    -0.080 HD
ENDROOT
BRANCH   1   3
ATOM      3  C   UNL     1       1.768   1.549  -1.685  0.00  0.00    -0.067 C 
ATOM      4  C   UNL     1       0.633   0.667  -1.126  0.00  0.00    -0.015 C 
ATOM      5  C   UNL     1      -0.515   0.829  -2.154  0.00  0.00    -0.002 C 
ATOM      6  C   UNL     1       0.239   0.875  -3.506  0.00  0.00    -0.002 C 
ATOM      7  C   UNL     1       1.518   1.683  -3.197  0.00  0.00    -0.015 C 
ENDBRANCH   1   3
BRANCH   1   8
ATOM      8  C   UNL     1       3.119   0.309  -0.105  0.00  0.00    +0.003 C 
BRANCH   8   9
ATOM      9  C   UNL     1       4.150  -0.790  -0.086  0.00  0.00    +0.139 A 
ATOM     10  N   UNL     1       5.300  -0.795  -0.716  0.00  0.00    -0.115 NA
ATOM     11  N   UNL     1       5.892  -1.909  -0.454  0.00  0.00    -0.023 NA
ATOM     12  N   UNL     1       5.153  -2.612   0.331  0.00  0.00    -0.043 NA
ATOM     13  N   UNL     1       4.071  -1.955   0.584  0.00  0.00    -0.225 N 
BRANCH  13  14
ATOM     14  C   UNL     1       2.963  -2.397   1.434  0.00  0.00    +0.061 C 
ATOM     15  C   UNL     1       1.715  -2.609   0.575  0.00  0.00    +0.036 C 
ATOM     16  C   UNL     1       2.678  -1.331   2.494  0.00  0.00    +0.036 C 
BRANCH  14  17
ATOM     17  C   UNL     1       3.340  -3.711   2.121  0.00  0.00    +0.026 C 
ATOM     18  C   UNL     1       2.182  -4.172   3.009  0.00  0.00    +0.006 C 
ENDBRANCH  14  17
ENDBRANCH  13  14
ENDBRANCH   8   9
BRANCH   8  20
ATOM     19  C   UNL     1       2.352   2.388   1.050  0.00  0.00    +0.002 C 
ATOM     20  C   UNL     1       3.496   1.380   0.921  0.00  0.00    -0.011 C 
ENDBRANCH   8  20
ENDBRANCH   1   8
BRANCH   1  21
ATOM     21  C   UNL     1       4.168   1.864  -1.635  0.00  0.00    -0.036 C 
BRANCH  21  22
ATOM     22  C   UNL     1       4.343   2.141  -3.106  0.00  0.00    +0.001 A 
ATOM     23  C   UNL     1       3.784   3.249  -3.657  0.00  0.00    +0.017 A 
ATOM     24  C   UNL     1       3.977   3.493  -5.086  0.00  0.00    +0.002 A 
ATOM     25  C   UNL     1       3.428   4.622  -5.707  0.00  0.00    +0.059 A 
ATOM     26  C   UNL     1       3.624   4.823  -7.055  0.00  0.00    +0.167 A 
ATOM     27  C   UNL     1       4.369   3.904  -7.805  0.00  0.00    +0.168 A 
ATOM     28  C   UNL     1       4.913   2.785  -7.200  0.00  0.00    +0.075 A 
ATOM     29  C   UNL     1       4.724   2.568  -5.841  0.00  0.00    +0.053 A 
ATOM     30  N   UNL     1       5.260   1.457  -5.222  0.00  0.00    -0.322 N 
ATOM     31  H   UNL     1       5.774   0.821  -5.743  0.00  0.00    +0.169 HD
ATOM     32  C   UNL     1       5.081   1.245  -3.906  0.00  0.00    +0.251 A 
ATOM     33  O   UNL     1       5.568   0.253  -3.392  0.00  0.00    -0.268 OA
ATOM     34  O   UNL     1       4.411   4.335  -9.099  0.00  0.00    -0.453 OA
ATOM     35  C   UNL     1       4.040   5.725  -9.055  0.00  0.00    +0.466 C 
ATOM     36  O   UNL     1       3.205   5.823  -7.886  0.00  0.00    -0.453 OA
ENDBRANCH  21  22
ENDBRANCH   1  21
TORSDOF 8
