REMARK  Name = ZINC30883271
REMARK  13 active torsions:
REMARK  status: ('A' for Active; 'I' for Inactive)
REMARK    1  A    between atoms: C_1  and  C_2
REMARK    2  A    between atoms: C_4  and  C_28
REMARK    3  A    between atoms: C_6  and  C_25
REMARK    4  A    between atoms: C_9  and  C_11
REMARK    5  A    between atoms: C_11  and  C_12
REMARK    6  A    between atoms: C_15  and  C_17
REMARK    7  A    between atoms: C_20  and  O_23
REMARK    8  A    between atoms: O_23  and  C_24
REMARK    9  A    between atoms: C_25  and  C_26
REMARK   10  A    between atoms: C_25  and  C_27
REMARK   11  A    between atoms: C_28  and  N_29
REMARK   12  A    between atoms: N_29  and  C_30
REMARK   13  A    between atoms: C_30  and  C_31
REMARK                            x       y       z     vdW  Elec       q    Type
REMARK                         _______ _______ _______ _____ _____    ______ ____
ROOT
ATOM      1  C   UNL     1       2.193   2.184  -2.002  0.00  0.00    +0.039 C 
ATOM      2  C   UNL     1       3.662   1.938  -1.779  0.00  0.00    -0.073 C 
ATOM      3  C   UNL     1       4.492   2.877  -2.105  0.00  0.00    -0.026 C 
ATOM      4  C   UNL     1       5.981   2.775  -1.951  0.00  0.00    -0.002 C 
ATOM      5  C   UNL     1       6.335   1.633  -0.995  0.00  0.00    -0.003 C 
ATOM      6  C   UNL     1       5.566   0.379  -1.431  0.00  0.00    +0.012 C 
ATOM      7  C   UNL     1       4.074   0.619  -1.193  0.00  0.00    +0.024 C 
ENDROOT
BRANCH   5   8
ATOM      8  C   UNL     1       7.839   1.361  -1.054  0.00  0.00    -0.014 C 
ATOM      9  C   UNL     1       8.206   0.300  -0.014  0.00  0.00    +0.007 C 
ATOM     10  C   UNL     1       8.212   0.857  -2.449  0.00  0.00    +0.007 C 
ENDBRANCH   5   8
BRANCH   7  11
ATOM     11  C   UNL     1       3.794   0.623   0.311  0.00  0.00    +0.105 C 
BRANCH  11  12
ATOM     12  C   UNL     1       2.310   0.736   0.546  0.00  0.00    +0.218 A 
ATOM     13  N   UNL     1       1.470  -0.255   0.653  0.00  0.00    -0.112 NA
ATOM     14  N   UNL     1       0.284   0.205   0.850  0.00  0.00    -0.107 NA
ATOM     15  C   UNL     1       0.328   1.517   0.875  0.00  0.00    +0.248 A 
ATOM     16  O   UNL     1       1.613   1.878   0.683  0.00  0.00    -0.420 OA
BRANCH  15  17
ATOM     17  C   UNL     1      -0.819   2.428   1.071  0.00  0.00    +0.039 A 
ATOM     18  C   UNL     1      -0.621   3.811   1.080  0.00  0.00    +0.017 A 
ATOM     19  C   UNL     1      -1.694   4.657   1.257  0.00  0.00    +0.046 A 
ATOM     20  C   UNL     1      -2.969   4.137   1.439  0.00  0.00    +0.120 A 
ATOM     21  C   UNL     1      -3.169   2.763   1.436  0.00  0.00    +0.046 A 
ATOM     22  C   UNL     1      -2.102   1.910   1.253  0.00  0.00    +0.017 A 
BRANCH  20  23
ATOM     23  O   UNL     1      -4.022   4.975   1.619  0.00  0.00    -0.495 OA
ATOM     24  C   UNL     1      -3.746   6.377   1.611  0.00  0.00    +0.277 C 
ENDBRANCH  20  23
ENDBRANCH  15  17
ENDBRANCH  11  12
ENDBRANCH   7  11
BRANCH   4  25
ATOM     25  C   UNL     1       6.522   4.091  -1.391  0.00  0.00    -0.074 C 
BRANCH  25  26
ATOM     26  N   UNL     1       6.302   5.166  -2.368  0.00  0.00    +0.382 N 
ATOM     27  H   UNL     1       6.826   4.923  -3.305  0.00  0.00    -0.085 HD
ATOM     28  H   UNL     1       5.225   5.267  -2.566  0.00  0.00    -0.085 HD
BRANCH  26  29
ATOM     29  C   UNL     1       6.811   6.449  -1.864  0.00  0.00    -0.045 C 
BRANCH  29  30
ATOM     30  C   UNL     1       6.568   7.524  -2.891  0.00  0.00    -0.046 A 
ATOM     31  C   UNL     1       5.389   8.255  -2.877  0.00  0.00    +0.005 A 
ATOM     32  C   UNL     1       5.209   9.234  -3.841  0.00  0.00    +0.020 A 
ATOM     33  C   UNL     1       6.203   9.449  -4.777  0.00  0.00    +0.111 A 
ATOM     34  N   UNL     1       7.311   8.735  -4.760  0.00  0.00    -0.263 NA
ATOM     35  C   UNL     1       7.519   7.800  -3.854  0.00  0.00    +0.112 A 
ENDBRANCH  29  30
ENDBRANCH  26  29
ENDBRANCH  25  26
ENDBRANCH   4  25
TORSDOF 9
