REMARK  Name = ZINC21123670
REMARK  10 active torsions:
REMARK  status: ('A' for Active; 'I' for Inactive)
REMARK    1  A    between atoms: C_1  and  C_2
REMARK    2  A    between atoms: C_3  and  C_34
REMARK    3  A    between atoms: C_11  and  C_13
REMARK    4  A    between atoms: C_13  and  S_14
REMARK    5  A    between atoms: S_14  and  C_15
REMARK    6  A    between atoms: C_18  and  C_26
REMARK    7  A    between atoms: N_19  and  C_20
REMARK    8  A    between atoms: C_20  and  C_21
REMARK    9  A    between atoms: C_30  and  O_32
REMARK   10  A    between atoms: O_32  and  C_33
REMARK                            x       y       z     vdW  Elec       q    Type
REMARK                         _______ _______ _______ _____ _____    ______ ____
ROOT
ATOM      1  C   UNL     1       0.269  -6.126   5.330  0.00  0.00    +0.193 A 
ATOM      2  N   UNL     1       0.361  -5.623   6.541  0.00  0.00    -0.122 NA
ATOM      3  N   UNL     1       0.194  -6.548   7.416  0.00  0.00    -0.128 NA
ATOM      4  C   UNL     1      -0.016  -7.698   6.819  0.00  0.00    +0.165 A 
ATOM      5  N   UNL     1       0.020  -7.462   5.464  0.00  0.00    -0.295 N 
ENDROOT
BRANCH   4   6
ATOM      6  C   UNL     1      -0.252  -9.001   7.478  0.00  0.00    +0.023 A 
ATOM      7  C   UNL     1      -0.092 -10.188   6.760  0.00  0.00    +0.012 A 
ATOM      8  C   UNL     1      -0.313 -11.401   7.378  0.00  0.00    +0.004 A 
ATOM      9  C   UNL     1      -0.694 -11.446   8.707  0.00  0.00    +0.045 A 
ATOM     10  C   UNL     1      -0.856 -10.271   9.428  0.00  0.00    +0.121 A 
ATOM     11  C   UNL     1      -0.630  -9.048   8.819  0.00  0.00    +0.057 A 
BRANCH  10  12
ATOM     12  O   UNL     1      -1.231 -10.322  10.733  0.00  0.00    -0.495 OA
ATOM     13  C   UNL     1      -1.441 -11.617  11.298  0.00  0.00    +0.277 C 
ENDBRANCH  10  12
ENDBRANCH   4   6
BRANCH   1  14
ATOM     14  S   UNL     1       0.428  -5.239   3.815  0.00  0.00    -0.078 S 
BRANCH  14  15
ATOM     15  C   UNL     1       0.749  -3.532   4.338  0.00  0.00    +0.151 C 
BRANCH  15  26
ATOM     16  C   UNL     1       1.590   1.083  -0.452  0.00  0.00    +0.045 C 
ATOM     17  C   UNL     1       1.314  -0.396  -0.381  0.00  0.00    -0.026 A 
ATOM     18  C   UNL     1       1.180  -1.117  -1.506  0.00  0.00    -0.008 A 
ATOM     19  S   UNL     1       0.873  -2.767  -0.905  0.00  0.00    -0.073 S 
ATOM     20  C   UNL     1       0.934  -2.441   0.838  0.00  0.00    +0.116 A 
ATOM     21  C   UNL     1       1.196  -1.061   0.903  0.00  0.00    +0.075 A 
ATOM     22  C   UNL     1       1.304  -0.513   2.223  0.00  0.00    +0.260 A 
ATOM     23  O   UNL     1       1.525   0.675   2.385  0.00  0.00    -0.267 OA
ATOM     24  N   UNL     1       1.156  -1.331   3.282  0.00  0.00    -0.310 N 
ATOM     25  H   UNL     1       1.227  -0.966   4.178  0.00  0.00    +0.170 HD
ATOM     26  C   UNL     1       0.907  -2.656   3.122  0.00  0.00    +0.121 A 
ATOM     27  N   UNL     1       0.795  -3.183   1.932  0.00  0.00    -0.226 NA
ATOM     28  C   UNL     1       1.268  -0.644  -2.934  0.00  0.00    +0.052 C 
ENDBRANCH  15  26
ENDBRANCH  14  15
ENDBRANCH   1  14
BRANCH   5  29
ATOM     29  C   UNL     1      -0.168  -8.440   4.389  0.00  0.00    +0.200 C 
BRANCH  29  30
ATOM     30  C   UNL     1       1.177  -8.912   3.900  0.00  0.00    +0.125 A 
ATOM     31  C   UNL     1       1.806 -10.035   4.289  0.00  0.00    +0.046 A 
ATOM     32  C   UNL     1       3.029 -10.085   3.583  0.00  0.00    +0.041 A 
ATOM     33  C   UNL     1       3.075  -8.989   2.804  0.00  0.00    +0.195 A 
ATOM     34  O   UNL     1       1.948  -8.285   2.996  0.00  0.00    -0.466 OA
ENDBRANCH  29  30
ENDBRANCH   5  29
TORSDOF 7
