REMARK  Name = ZINC09490937
REMARK  6 active torsions:
REMARK  status: ('A' for Active; 'I' for Inactive)
REMARK    1  A    between atoms: C_1  and  C_2
REMARK    2  A    between atoms: C_3  and  C_13
REMARK    3  A    between atoms: C_13  and  C_15
REMARK    4  A    between atoms: C_18  and  N_24
REMARK    5  A    between atoms: C_19  and  N_21
REMARK    6  A    between atoms: N_27  and  C_30
REMARK                            x       y       z     vdW  Elec       q    Type
REMARK                         _______ _______ _______ _____ _____    ______ ____
ROOT
ATOM      1  C   UNL     1       1.194   1.803  -0.028  0.00  0.00    +0.025 A 
ATOM      2  C   UNL     1       1.183   3.201   0.001  0.00  0.00    +0.014 A 
ATOM      3  C   UNL     1      -0.015   3.878  -0.011  0.00  0.00    +0.026 A 
ATOM      4  C   UNL     1      -1.215   3.173  -0.051  0.00  0.00    +0.060 A 
ATOM      5  C   UNL     1      -1.207   1.782  -0.086  0.00  0.00    +0.148 A 
ATOM      6  C   UNL     1      -0.012   1.098  -0.069  0.00  0.00    +0.046 A 
ENDROOT
BRANCH   4   7
ATOM      7  N   UNL     1      -2.424   3.861  -0.063  0.00  0.00    -0.325 N 
ATOM      8  C   UNL     1      -2.556   4.673  -1.281  0.00  0.00    +0.124 C 
ATOM      9  C   UNL     1      -3.929   5.349  -1.294  0.00  0.00    +0.125 C 
ATOM     10  N   UNL     1      -4.073   6.181  -0.091  0.00  0.00    -0.314 N 
ATOM     11  C   UNL     1      -3.941   5.369   1.127  0.00  0.00    +0.125 C 
ATOM     12  C   UNL     1      -2.568   4.693   1.139  0.00  0.00    +0.124 C 
BRANCH  10  13
ATOM     13  C   UNL     1      -5.282   6.868  -0.103  0.00  0.00    +0.099 A 
ATOM     14  C   UNL     1      -5.594   7.695  -1.178  0.00  0.00    +0.042 A 
ATOM     15  C   UNL     1      -6.800   8.373  -1.177  0.00  0.00    +0.005 A 
ATOM     16  C   UNL     1      -7.656   8.200  -0.097  0.00  0.00    +0.018 A 
ATOM     17  C   UNL     1      -7.282   7.364   0.936  0.00  0.00    +0.084 A 
ATOM     18  N   UNL     1      -6.108   6.678   0.966  0.00  0.00    -0.350 N 
ATOM     19  H   UNL     1      -5.860   6.056   1.744  0.00  0.00    +0.166 HD
ENDBRANCH  10  13
ENDBRANCH   4   7
BRANCH   5  20
ATOM     20  N   UNL     1      -2.484   1.036  -0.135  0.00  0.00    +0.058 N 
ATOM     21  O   UNL     1      -2.478  -0.182  -0.160  0.00  0.00    -0.126 OA
ATOM     22  O   UNL     1      -3.542   1.640  -0.150  0.00  0.00    -0.126 OA
ENDBRANCH   5  20
BRANCH   1  23
ATOM     23  C   UNL     1       2.478   1.073  -0.016  0.00  0.00    +0.202 C 
ATOM     24  O   UNL     1       2.535  -0.065  -0.446  0.00  0.00    -0.286 OA
BRANCH  23  27
ATOM     25  C   UNL     1       5.336  -0.075  -0.109  0.00  0.00    +0.067 C 
ATOM     26  C   UNL     1       4.961   1.254   0.495  0.00  0.00    +0.058 A 
ATOM     27  C   UNL     1       3.644   1.698   0.495  0.00  0.00    +0.084 A 
ATOM     28  S   UNL     1       3.829   3.277   1.311  0.00  0.00    -0.049 S 
ATOM     29  C   UNL     1       5.544   3.199   1.571  0.00  0.00    +0.162 A 
ATOM     30  N   UNL     1       5.864   2.029   1.037  0.00  0.00    -0.229 NA
ATOM     31  N   UNL     1       6.367   4.123   2.176  0.00  0.00    -0.310 N 
ATOM     32  C   UNL     1       6.243   5.438   1.532  0.00  0.00    +0.107 C 
ATOM     33  C   UNL     1       7.057   6.470   2.317  0.00  0.00    +0.019 C 
ATOM     34  C   UNL     1       8.524   6.034   2.354  0.00  0.00    +0.003 C 
ATOM     35  C   UNL     1       8.620   4.642   2.985  0.00  0.00    +0.019 C 
ATOM     36  C   UNL     1       7.761   3.663   2.180  0.00  0.00    +0.107 C 
ENDBRANCH  23  27
ENDBRANCH   1  23
TORSDOF 5
