REMARK  Name = ZINC66253070
REMARK  6 active torsions:
REMARK  status: ('A' for Active; 'I' for Inactive)
REMARK    1  A    between atoms: C_1  and  C_2
REMARK    2  A    between atoms: C_2  and  C_3
REMARK    3  A    between atoms: N_12  and  S_13
REMARK    4  A    between atoms: S_13  and  C_16
REMARK    5  A    between atoms: C_19  and  C_22
REMARK    6  A    between atoms: N_24  and  C_25
REMARK                            x       y       z     vdW  Elec       q    Type
REMARK                         _______ _______ _______ _____ _____    ______ ____
ROOT
ATOM      1  S   UNL     1       5.383  -3.503  -5.907  0.00  0.00    +0.101 S 
ATOM      2  O   UNL     1       5.318  -4.653  -5.074  0.00  0.00    -0.146 OA
ATOM      3  O   UNL     1       4.346  -3.162  -6.816  0.00  0.00    -0.146 OA
ENDROOT
BRANCH   1  12
ATOM      4  C   UNL     1       0.718  -0.497  -1.257  0.00  0.00    -0.006 C 
ATOM      5  C   UNL     1       0.641  -2.026  -1.327  0.00  0.00    +0.010 C 
ATOM      6  C   UNL     1       1.142  -2.509  -2.688  0.00  0.00    +0.054 C 
ATOM      7  C   UNL     1       2.524  -1.912  -2.948  0.00  0.00    +0.028 A 
ATOM      8  C   UNL     1       2.937  -0.840  -2.262  0.00  0.00    +0.013 A 
ATOM      9  S   UNL     1       4.563  -0.521  -2.896  0.00  0.00    -0.053 S 
ATOM     10  C   UNL     1       4.620  -1.862  -4.075  0.00  0.00    +0.192 A 
ATOM     11  N   UNL     1       3.389  -2.441  -3.883  0.00  0.00    -0.336 N 
ATOM     12  N   UNL     1       5.579  -2.202  -4.902  0.00  0.00    -0.103 NA
ATOM     13  C   UNL     1       2.196  -0.082  -1.206  0.00  0.00    +0.047 C 
ATOM     14  H   UNL     1       3.130  -3.217  -4.403  0.00  0.00    +0.168 HD
BRANCH   4  16
ATOM     15  C   UNL     1      -0.019   1.526   0.010  0.00  0.00    +0.004 C 
ATOM     16  C   UNL     1       0.002  -0.004   0.002  0.00  0.00    +0.000 C 
ENDBRANCH   4  16
ENDBRANCH   1  12
BRANCH   1  17
ATOM     17  C   UNL     1       6.858  -3.653  -6.859  0.00  0.00    +0.113 A 
ATOM     18  C   UNL     1       6.968  -2.989  -8.067  0.00  0.00    +0.030 A 
ATOM     19  C   UNL     1       8.120  -3.102  -8.818  0.00  0.00    +0.015 A 
ATOM     20  C   UNL     1       9.176  -3.889  -8.355  0.00  0.00    +0.037 A 
ATOM     21  C   UNL     1       9.059  -4.556  -7.135  0.00  0.00    +0.015 A 
ATOM     22  C   UNL     1       7.903  -4.430  -6.392  0.00  0.00    +0.030 A 
BRANCH  20  23
ATOM     23  C   UNL     1      10.414  -4.015  -9.154  0.00  0.00    +0.244 C 
ATOM     24  O   UNL     1      10.513  -3.433 -10.216  0.00  0.00    -0.270 OA
ATOM     25  N   UNL     1      11.431  -4.776  -8.705  0.00  0.00    -0.314 N 
ATOM     26  C   UNL     1      12.658  -4.901  -9.497  0.00  0.00    +0.128 C 
ATOM     27  H   UNL     1      11.352  -5.240  -7.857  0.00  0.00    +0.149 HD
ENDBRANCH  20  23
ENDBRANCH   1  17
TORSDOF 4
