REMARK  Name = ZINC13065132
REMARK  13 active torsions:
REMARK  status: ('A' for Active; 'I' for Inactive)
REMARK    1  A    between atoms: C_1  and  C_2
REMARK    2  A    between atoms: C_2  and  C_3
REMARK    3  A    between atoms: C_3  and  C_5
REMARK    4  A    between atoms: C_3  and  N_69
REMARK    5  A    between atoms: N_9  and  C_10
REMARK    6  A    between atoms: C_10  and  C_11
REMARK    7  A    between atoms: C_16  and  C_17
REMARK    8  A    between atoms: C_16  and  N_69
REMARK    9  A    between atoms: C_17  and  C_18
REMARK   10  A    between atoms: C_24  and  C_25
REMARK   11  A    between atoms: C_24  and  N_69
REMARK   12  A    between atoms: C_30  and  C_38
REMARK   13  A    between atoms: C_31  and  C_37
REMARK                            x       y       z     vdW  Elec       q    Type
REMARK                         _______ _______ _______ _____ _____    ______ ____
ROOT
ATOM      1  N   UNL     1      -0.630   1.025   0.941  0.00  0.00    +0.389 N 
ATOM      2  H   UNL     1      -0.255   1.806   0.390  0.00  0.00    -0.080 HD
ENDROOT
BRANCH   1   3
ATOM      3  C   UNL     1      -0.325   1.255   2.369  0.00  0.00    +0.003 C 
BRANCH   3   4
ATOM      4  C   UNL     1      -0.832   0.111   3.208  0.00  0.00    +0.139 A 
ATOM      5  N   UNL     1      -0.935  -1.144   2.842  0.00  0.00    -0.115 NA
ATOM      6  N   UNL     1      -1.409  -1.811   3.837  0.00  0.00    -0.023 NA
ATOM      7  N   UNL     1      -1.610  -1.016   4.829  0.00  0.00    -0.044 NA
ATOM      8  N   UNL     1      -1.262   0.177   4.482  0.00  0.00    -0.223 N 
BRANCH   8   9
ATOM      9  C   UNL     1      -1.326   1.379   5.317  0.00  0.00    +0.221 C 
BRANCH   9  10
ATOM     10  C   UNL     1      -2.707   1.977   5.233  0.00  0.00    +0.126 A 
ATOM     11  C   UNL     1      -3.748   1.665   6.025  0.00  0.00    +0.046 A 
ATOM     12  C   UNL     1      -4.838   2.459   5.601  0.00  0.00    +0.041 A 
ATOM     13  C   UNL     1      -4.399   3.203   4.569  0.00  0.00    +0.195 A 
ATOM     14  O   UNL     1      -3.108   2.907   4.351  0.00  0.00    -0.466 OA
ENDBRANCH   9  10
ENDBRANCH   8   9
ENDBRANCH   3   4
BRANCH   3  16
ATOM     15  C   UNL     1       1.687   2.617   1.790  0.00  0.00    +0.002 C 
ATOM     16  C   UNL     1       1.190   1.379   2.539  0.00  0.00    -0.011 C 
ENDBRANCH   3  16
ENDBRANCH   1   3
BRANCH   1  17
ATOM     17  C   UNL     1      -2.093   0.956   0.742  0.00  0.00    -0.073 C 
BRANCH  17  18
ATOM     18  C   UNL     1      -2.712   2.296   1.145  0.00  0.00    +0.016 C 
BRANCH  18  19
ATOM     19  C   UNL     1      -4.179   2.295   0.802  0.00  0.00    -0.049 A 
ATOM     20  C   UNL     1      -4.599   2.743  -0.437  0.00  0.00    +0.003 A 
ATOM     21  C   UNL     1      -5.945   2.738  -0.754  0.00  0.00    +0.000 A 
ATOM     22  C   UNL     1      -6.871   2.294   0.171  0.00  0.00    +0.000 A 
ATOM     23  C   UNL     1      -6.451   1.851   1.412  0.00  0.00    +0.000 A 
ATOM     24  C   UNL     1      -5.105   1.851   1.727  0.00  0.00    +0.003 A 
ENDBRANCH  18  19
ENDBRANCH  17  18
ENDBRANCH   1  17
BRANCH   1  25
ATOM     25  C   UNL     1       0.002  -0.232   0.486  0.00  0.00    -0.037 C 
BRANCH  25  26
ATOM     26  C   UNL     1       0.063  -0.223  -1.020  0.00  0.00    +0.001 A 
ATOM     27  C   UNL     1       1.180   0.221  -1.648  0.00  0.00    +0.017 A 
ATOM     28  C   UNL     1       1.209   0.212  -3.112  0.00  0.00    -0.001 A 
ATOM     29  C   UNL     1       2.335   0.652  -3.816  0.00  0.00    +0.010 A 
ATOM     30  C   UNL     1       2.329   0.636  -5.181  0.00  0.00    +0.004 A 
ATOM     31  C   UNL     1       1.216   0.186  -5.878  0.00  0.00    -0.046 A 
ATOM     32  C   UNL     1       0.096  -0.253  -5.205  0.00  0.00    -0.024 A 
ATOM     33  C   UNL     1       0.079  -0.245  -3.814  0.00  0.00    +0.052 A 
ATOM     34  N   UNL     1      -1.028  -0.679  -3.116  0.00  0.00    -0.322 N 
ATOM     35  H   UNL     1      -1.806  -0.994  -3.601  0.00  0.00    +0.169 HD
ATOM     36  C   UNL     1      -1.044  -0.672  -1.771  0.00  0.00    +0.251 A 
ATOM     37  O   UNL     1      -2.040  -1.063  -1.187  0.00  0.00    -0.268 OA
ATOM     38  C   UNL     1      -1.106  -0.740  -5.974  0.00  0.00    +0.046 C 
ATOM     39  C   UNL     1       1.232   0.177  -7.385  0.00  0.00    +0.044 C 
ENDBRANCH  25  26
ENDBRANCH   1  25
TORSDOF 10
