REMARK  Name = ZINC08984669
REMARK  7 active torsions:
REMARK  status: ('A' for Active; 'I' for Inactive)
REMARK    1  A    between atoms: C_1  and  C_2
REMARK    2  A    between atoms: C_14  and  C_30
REMARK    3  A    between atoms: C_19  and  C_21
REMARK    4  A    between atoms: C_24  and  O_27
REMARK    5  A    between atoms: O_27  and  C_28
REMARK    6  A    between atoms: C_33  and  O_36
REMARK    7  A    between atoms: O_36  and  C_37
REMARK                            x       y       z     vdW  Elec       q    Type
REMARK                         _______ _______ _______ _____ _____    ______ ____
ROOT
ATOM      1  C   UNL     1       2.651   3.869  -1.958  0.00  0.00    +0.110 C 
ATOM      2  C   UNL     1       1.846   4.419  -0.809  0.00  0.00    +0.218 C 
ATOM      3  O   UNL     1       1.671   5.615  -0.709  0.00  0.00    -0.276 OA
ATOM      4  N   UNL     1       1.321   3.582   0.108  0.00  0.00    -0.258 N 
ATOM      5  C   UNL     1       1.532   2.220  -0.022  0.00  0.00    +0.058 A 
ATOM      6  C   UNL     1       2.791   1.661  -0.021  0.00  0.00    +0.025 A 
ATOM      7  C   UNL     1       2.945   0.287  -0.088  0.00  0.00    +0.002 A 
ATOM      8  C   UNL     1       1.828  -0.528  -0.156  0.00  0.00    +0.002 A 
ATOM      9  C   UNL     1       0.563   0.013  -0.172  0.00  0.00    +0.025 A 
ATOM     10  C   UNL     1       0.379   1.401  -0.118  0.00  0.00    +0.053 A 
ATOM     11  N   UNL     1      -0.851   1.921  -0.193  0.00  0.00    -0.316 N 
ATOM     12  C   UNL     1      -1.490   2.890   0.356  0.00  0.00    +0.017 C 
ATOM     13  C   UNL     1      -3.006   2.821   0.225  0.00  0.00    +0.059 C 
ATOM     14  C   UNL     1      -3.659   3.481   1.438  0.00  0.00    +0.032 C 
ATOM     15  C   UNL     1      -3.190   4.939   1.496  0.00  0.00    +0.088 C 
ATOM     16  C   UNL     1      -1.691   4.960   1.574  0.00  0.00    +0.163 C 
ATOM     17  C   UNL     1      -0.921   3.989   1.039  0.00  0.00    +0.037 C 
ATOM     18  C   UNL     1       0.555   4.126   1.200  0.00  0.00    +0.146 C 
ATOM     19  O   UNL     1      -1.089   5.990   2.205  0.00  0.00    -0.292 OA
ATOM     20  H   UNL     1      -1.351   1.284  -0.936  0.00  0.00    +0.152 HD
ENDROOT
BRANCH  18  21
ATOM     21  C   UNL     1       0.966   3.426   2.469  0.00  0.00    -0.022 A 
ATOM     22  C   UNL     1       0.001   2.955   3.341  0.00  0.00    +0.009 A 
ATOM     23  C   UNL     1       0.375   2.308   4.503  0.00  0.00    +0.046 A 
ATOM     24  C   UNL     1       1.719   2.139   4.800  0.00  0.00    +0.120 A 
ATOM     25  C   UNL     1       2.685   2.617   3.926  0.00  0.00    +0.046 A 
ATOM     26  C   UNL     1       2.306   3.259   2.763  0.00  0.00    +0.009 A 
BRANCH  24  27
ATOM     27  O   UNL     1       2.090   1.507   5.944  0.00  0.00    -0.495 OA
ATOM     28  C   UNL     1       1.042   1.042   6.796  0.00  0.00    +0.277 C 
ENDBRANCH  24  27
ENDBRANCH  18  21
BRANCH  14  29
ATOM     29  C   UNL     1      -5.158   3.434   1.297  0.00  0.00    -0.043 A 
ATOM     30  C   UNL     1      -5.770   4.051   0.221  0.00  0.00    +0.007 A 
ATOM     31  C   UNL     1      -7.144   4.004   0.087  0.00  0.00    +0.046 A 
ATOM     32  C   UNL     1      -7.911   3.348   1.039  0.00  0.00    +0.120 A 
ATOM     33  C   UNL     1      -7.295   2.735   2.120  0.00  0.00    +0.046 A 
ATOM     34  C   UNL     1      -5.920   2.779   2.247  0.00  0.00    +0.007 A 
BRANCH  32  35
ATOM     35  O   UNL     1      -9.264   3.305   0.912  0.00  0.00    -0.495 OA
ATOM     36  C   UNL     1      -9.829   3.958  -0.226  0.00  0.00    +0.277 C 
ENDBRANCH  32  35
ENDBRANCH  14  29
TORSDOF 4
