REMARK  Name = ZINC42957036
REMARK  9 active torsions:
REMARK  status: ('A' for Active; 'I' for Inactive)
REMARK    1  A    between atoms: C_1  and  C_2
REMARK    2  A    between atoms: C_2  and  C_4
REMARK    3  A    between atoms: C_2  and  N_23
REMARK    4  A    between atoms: C_4  and  C_6
REMARK    5  A    between atoms: C_4  and  O_13
REMARK    6  A    between atoms: O_13  and  C_14
REMARK    7  A    between atoms: C_19  and  C_20
REMARK    8  A    between atoms: C_20  and  C_21
REMARK    9  A    between atoms: C_20  and  C_22
REMARK                            x       y       z     vdW  Elec       q    Type
REMARK                         _______ _______ _______ _____ _____    ______ ____
ROOT
ATOM      1  C   UNL     1       0.760  -0.527   1.259  0.00  0.00    +0.189 C 
ENDROOT
BRANCH   1   2
ATOM      2  C   UNL     1       2.238  -0.231   1.280  0.00  0.00    -0.009 A 
ATOM      3  C   UNL     1       2.694   0.969   1.793  0.00  0.00    +0.008 A 
ATOM      4  C   UNL     1       4.049   1.241   1.813  0.00  0.00    +0.015 A 
ATOM      5  C   UNL     1       4.948   0.313   1.320  0.00  0.00    +0.018 A 
ATOM      6  C   UNL     1       4.491  -0.887   0.807  0.00  0.00    +0.015 A 
ATOM      7  C   UNL     1       3.136  -1.161   0.792  0.00  0.00    +0.008 A 
ATOM      8 BR   UNL     1       6.802   0.685   1.346  0.00  0.00    -0.050 Br
ENDBRANCH   1   2
BRANCH   1  10
ATOM      9  C   UNL     1       0.243   1.599   0.054  0.00  0.00    -0.010 C 
ATOM     10  C   UNL     1       0.137   0.074  -0.002  0.00  0.00    -0.032 C 
BRANCH  10  11
ATOM     11  N   UNL     1      -1.276  -0.316  -0.084  0.00  0.00    +0.382 N 
ATOM     12  H   UNL     1      -1.767   0.025   0.729  0.00  0.00    -0.089 HD
ATOM     13  H   UNL     1      -1.687   0.080  -0.916  0.00  0.00    -0.089 HD
ATOM     14  H   UNL     1      -1.346  -1.322  -0.121  0.00  0.00    -0.089 HD
ENDBRANCH  10  11
ENDBRANCH   1  10
BRANCH   1  15
ATOM     15  O   UNL     1       0.143   0.044   2.414  0.00  0.00    -0.486 OA
BRANCH  15  16
ATOM     16  C   UNL     1      -0.936  -0.607   2.923  0.00  0.00    +0.125 A 
ATOM     17  C   UNL     1      -1.345  -1.811   2.370  0.00  0.00    +0.046 A 
ATOM     18  C   UNL     1      -2.442  -2.471   2.889  0.00  0.00    +0.004 A 
ATOM     19  C   UNL     1      -3.132  -1.932   3.960  0.00  0.00    +0.001 A 
ATOM     20  C   UNL     1      -2.726  -0.732   4.513  0.00  0.00    +0.007 A 
ATOM     21  C   UNL     1      -1.626  -0.071   4.000  0.00  0.00    -0.003 A 
BRANCH  21  22
ATOM     22  C   UNL     1      -1.180   1.235   4.608  0.00  0.00    +0.016 C 
ATOM     23  C   UNL     1      -2.313   2.258   4.505  0.00  0.00    +0.012 C 
ATOM     24  C   UNL     1      -0.821   1.017   6.079  0.00  0.00    +0.012 C 
ENDBRANCH  21  22
ENDBRANCH  15  16
ENDBRANCH   1  15
TORSDOF 6
