REMARK  Name = ZINC38679008
REMARK  16 active torsions:
REMARK  status: ('A' for Active; 'I' for Inactive)
REMARK    1  A    between atoms: C_1  and  C_2
REMARK    2  A    between atoms: C_2  and  O_3
REMARK    3  A    between atoms: O_3  and  C_4
REMARK    4  A    between atoms: C_7  and  C_13
REMARK    5  A    between atoms: C_9  and  O_10
REMARK    6  A    between atoms: O_10  and  C_11
REMARK    7  A    between atoms: C_11  and  C_12
REMARK    8  A    between atoms: C_18  and  O_27
REMARK    9  A    between atoms: C_22  and  N_26
REMARK   10  A    between atoms: C_23  and  C_24
REMARK   11  A    between atoms: O_27  and  C_28
REMARK   12  A    between atoms: C_28  and  C_30
REMARK   13  A    between atoms: C_33  and  C_36
REMARK   14  A    between atoms: C_36  and  C_37
REMARK   15  A    between atoms: C_36  and  C_38
REMARK   16  A    between atoms: C_36  and  C_39
REMARK                            x       y       z     vdW  Elec       q    Type
REMARK                         _______ _______ _______ _____ _____    ______ ____
ROOT
ATOM      1  C   UNL     1       1.160  -6.050  -1.882  0.00  0.00    +0.098 C 
ATOM      2  C   UNL     1       1.911  -6.630  -0.712  0.00  0.00    +0.008 A 
ATOM      3  C   UNL     1       3.293  -6.577  -0.698  0.00  0.00    +0.012 A 
ATOM      4  C   UNL     1       3.999  -7.104   0.367  0.00  0.00    +0.047 A 
ATOM      5  C   UNL     1       3.320  -7.688   1.427  0.00  0.00    +0.135 A 
ATOM      6  C   UNL     1       1.936  -7.742   1.416  0.00  0.00    +0.093 A 
ATOM      7  C   UNL     1       1.228  -7.212   0.344  0.00  0.00    +0.138 A 
ATOM      8  O   UNL     1      -0.126  -7.273   0.348  0.00  0.00    -0.441 OA
ATOM      9  C   UNL     1      -0.806  -7.134  -0.802  0.00  0.00    +0.199 C 
ATOM     10  C   UNL     1      -0.253  -6.562  -1.893  0.00  0.00    +0.098 C 
ENDROOT
BRANCH   1  14
ATOM     11  C   UNL     1       1.116  -1.786  -1.561  0.00  0.00    +0.162 A 
ATOM     12  C   UNL     1       0.549  -2.564  -0.564  0.00  0.00    +0.050 A 
ATOM     13  C   UNL     1       0.565  -3.942  -0.671  0.00  0.00    +0.008 A 
ATOM     14  C   UNL     1       1.146  -4.547  -1.770  0.00  0.00    -0.031 A 
ATOM     15  C   UNL     1       1.714  -3.776  -2.768  0.00  0.00    +0.054 A 
ATOM     16  C   UNL     1       1.696  -2.394  -2.670  0.00  0.00    +0.162 A 
BRANCH  11  17
ATOM     17  O   UNL     1       1.102  -0.430  -1.457  0.00  0.00    -0.489 OA
BRANCH  17  19
ATOM     18  C   UNL     1       0.569   1.652  -0.352  0.00  0.00    +0.048 C 
ATOM     19  C   UNL     1       0.490   0.125  -0.291  0.00  0.00    +0.226 C 
ENDBRANCH  17  19
ENDBRANCH  11  17
BRANCH  16  20
ATOM     20  O   UNL     1       2.249  -1.634  -3.653  0.00  0.00    -0.489 OA
BRANCH  20  21
ATOM     21  C   UNL     1       2.826  -2.327  -4.761  0.00  0.00    +0.226 C 
ATOM     22  C   UNL     1       3.393  -1.313  -5.757  0.00  0.00    +0.048 C 
ENDBRANCH  20  21
ENDBRANCH  16  20
ENDBRANCH   1  14
BRANCH   9  23
ATOM     23  N   UNL     1      -2.101  -7.585  -0.869  0.00  0.00    -0.328 N 
ATOM     24  H   UNL     1      -2.512  -7.997  -0.093  0.00  0.00    +0.145 HD
ATOM     25  H   UNL     1      -2.605  -7.491  -1.692  0.00  0.00    +0.145 HD
ENDBRANCH   9  23
BRANCH  10  26
ATOM     26  C   UNL     1      -1.032  -6.443  -3.089  0.00  0.00    +0.101 C 
ATOM     27  N   UNL     1      -1.651  -6.348  -4.037  0.00  0.00    -0.191 NA
ENDBRANCH  10  26
BRANCH   5  28
ATOM     28  O   UNL     1       4.013  -8.207   2.475  0.00  0.00    -0.422 OA
BRANCH  28  29
ATOM     29  C   UNL     1       4.654  -7.351   3.295  0.00  0.00    +0.344 C 
ATOM     30  O   UNL     1       4.519  -6.153   3.149  0.00  0.00    -0.245 OA
BRANCH  29  31
ATOM     31  C   UNL     1       5.523  -7.871   4.371  0.00  0.00    +0.059 A 
ATOM     32  C   UNL     1       5.686  -9.248   4.537  0.00  0.00    +0.015 A 
ATOM     33  C   UNL     1       6.499  -9.726   5.544  0.00  0.00    +0.005 A 
ATOM     34  C   UNL     1       7.153  -8.845   6.387  0.00  0.00    -0.042 A 
ATOM     35  C   UNL     1       6.996  -7.479   6.228  0.00  0.00    +0.005 A 
ATOM     36  C   UNL     1       6.190  -6.987   5.222  0.00  0.00    +0.015 A 
BRANCH  34  37
ATOM     37  C   UNL     1       8.039  -9.374   7.485  0.00  0.00    -0.013 C 
ATOM     38  C   UNL     1       9.167 -10.208   6.872  0.00  0.00    +0.015 C 
ATOM     39  C   UNL     1       8.638  -8.204   8.267  0.00  0.00    +0.015 C 
ATOM     40  C   UNL     1       7.213 -10.250   8.429  0.00  0.00    +0.015 C 
ENDBRANCH  34  37
ENDBRANCH  29  31
ENDBRANCH  28  29
ENDBRANCH   5  28
TORSDOF 11
