REMARK  Name = ZINC39672240
REMARK  8 active torsions:
REMARK  status: ('A' for Active; 'I' for Inactive)
REMARK    1  A    between atoms: C_1  and  C_2
REMARK    2  A    between atoms: C_2  and  C_3
REMARK    3  A    between atoms: C_3  and  C_5
REMARK    4  A    between atoms: C_3  and  C_11
REMARK    5  A    between atoms: C_15  and  C_24
REMARK    6  A    between atoms: N_26  and  C_27
REMARK    7  A    between atoms: C_27  and  C_28
REMARK    8  A    between atoms: N_37  and  C_38
REMARK                            x       y       z     vdW  Elec       q    Type
REMARK                         _______ _______ _______ _____ _____    ______ ____
ROOT
ATOM      1  C   UNL     1      -1.267  -1.756   0.167  0.00  0.00    +0.223 C 
ATOM      2  O   UNL     1      -1.759  -2.354  -0.767  0.00  0.00    -0.275 OA
ATOM      3  N   UNL     1      -0.757  -2.439   1.210  0.00  0.00    -0.300 N 
ATOM      4  C   UNL     1      -0.127  -1.890   2.434  0.00  0.00    +0.121 C 
ATOM      5  C   UNL     1      -0.634  -2.799   3.576  0.00  0.00    +0.100 C 
ATOM      6  C   UNL     1      -1.007  -4.123   2.888  0.00  0.00    -0.004 C 
ATOM      7  C   UNL     1      -0.706  -3.909   1.397  0.00  0.00    +0.115 C 
ATOM      8  C   UNL     1      -2.490  -4.420   3.082  0.00  0.00    -0.010 C 
ATOM      9  C   UNL     1      -2.825  -5.769   2.438  0.00  0.00    -0.082 C 
ATOM     10  N   UNL     1      -2.009  -6.823   3.053  0.00  0.00    +0.379 N 
ATOM     11  C   UNL     1      -0.587  -6.578   2.782  0.00  0.00    -0.082 C 
ATOM     12  C   UNL     1      -0.158  -5.264   3.440  0.00  0.00    -0.010 C 
ATOM     13  H   UNL     1      -2.164  -6.827   4.050  0.00  0.00    -0.086 HD
ATOM     14  H   UNL     1      -2.274  -7.718   2.671  0.00  0.00    -0.086 HD
ENDROOT
BRANCH   5  15
ATOM     15  C   UNL     1      -1.844  -2.189   4.235  0.00  0.00    +0.218 C 
ATOM     16  O   UNL     1      -2.596  -1.488   3.591  0.00  0.00    -0.275 OA
ATOM     17  N   UNL     1      -2.090  -2.421   5.539  0.00  0.00    -0.311 N 
ATOM     18  H   UNL     1      -1.489  -2.982   6.054  0.00  0.00    +0.149 HD
BRANCH  17  19
ATOM     19  C   UNL     1      -3.267  -1.828   6.180  0.00  0.00    +0.139 C 
BRANCH  19  20
ATOM     20  C   UNL     1      -3.312  -2.240   7.628  0.00  0.00    -0.030 A 
ATOM     21  C   UNL     1      -3.974  -3.397   7.997  0.00  0.00    +0.007 A 
ATOM     22  C   UNL     1      -4.016  -3.773   9.324  0.00  0.00    +0.024 A 
ATOM     23  C   UNL     1      -3.392  -2.991  10.289  0.00  0.00    +0.033 A 
ATOM     24  C   UNL     1      -2.725  -1.833   9.919  0.00  0.00    -0.026 A 
ATOM     25  C   UNL     1      -2.686  -1.464   8.585  0.00  0.00    +0.010 A 
ATOM     26  C   UNL     1      -2.029  -0.967  10.936  0.00  0.00    +0.038 C 
ATOM     27  C   UNL     1      -2.584  -1.233  12.335  0.00  0.00    +0.024 C 
ATOM     28  C   UNL     1      -2.555  -2.744  12.601  0.00  0.00    +0.105 C 
ATOM     29  N   UNL     1      -3.451  -3.387  11.630  0.00  0.00    -0.333 N 
ATOM     30  C   UNL     1      -4.390  -4.427  12.058  0.00  0.00    +0.129 C 
ENDBRANCH  19  20
ENDBRANCH  17  19
ENDBRANCH   5  15
BRANCH   1  31
ATOM     31  C   UNL     1      -1.226  -0.250   0.159  0.00  0.00    +0.105 C 
BRANCH  31  32
ATOM     32  C   UNL     1      -1.855   0.264  -1.110  0.00  0.00    -0.036 A 
ATOM     33  C   UNL     1      -1.329  -0.095  -2.337  0.00  0.00    +0.004 A 
ATOM     34  C   UNL     1      -1.906   0.376  -3.501  0.00  0.00    +0.000 A 
ATOM     35  C   UNL     1      -3.010   1.206  -3.439  0.00  0.00    +0.000 A 
ATOM     36  C   UNL     1      -3.537   1.564  -2.212  0.00  0.00    +0.000 A 
ATOM     37  C   UNL     1      -2.962   1.089  -1.048  0.00  0.00    +0.004 A 
ENDBRANCH  31  32
BRANCH  31  39
ATOM     38  C   UNL     1       0.264   1.746   0.353  0.00  0.00    +0.005 C 
ATOM     39  C   UNL     1       0.228   0.221   0.234  0.00  0.00    +0.014 C 
ENDBRANCH  31  39
ENDBRANCH   1  31
TORSDOF 6
