REMARK  Name = ZINC28155450
REMARK  9 active torsions:
REMARK  status: ('A' for Active; 'I' for Inactive)
REMARK    1  A    between atoms: C_1  and  C_2
REMARK    2  A    between atoms: C_5  and  C_8
REMARK    3  A    between atoms: C_11  and  C_33
REMARK    4  A    between atoms: C_18  and  C_21
REMARK    5  A    between atoms: C_21  and  C_22
REMARK    6  A    between atoms: N_24  and  C_25
REMARK    7  A    between atoms: C_27  and  C_32
REMARK    8  A    between atoms: C_30  and  C_31
REMARK    9  A    between atoms: C_36  and  C_39
REMARK                            x       y       z     vdW  Elec       q    Type
REMARK                         _______ _______ _______ _____ _____    ______ ____
ROOT
ATOM      1  C   UNL     1       2.331   4.039  -3.521  0.00  0.00    +0.136 C 
ATOM      2  C   UNL     1       3.691   4.729  -3.748  0.00  0.00    +0.087 C 
ATOM      3  C   UNL     1       4.496   4.358  -2.523  0.00  0.00    +0.069 C 
ATOM      4  N   UNL     1       3.781   3.623  -1.744  0.00  0.00    -0.182 NA
ATOM      5  N   UNL     1       2.496   3.371  -2.220  0.00  0.00    -0.195 N 
ATOM      6  C   UNL     1       1.547   2.622  -1.586  0.00  0.00    +0.170 C 
ATOM      7  N   UNL     1       0.313   2.350  -1.990  0.00  0.00    -0.157 NA
ATOM      8  C   UNL     1      -0.537   1.621  -1.319  0.00  0.00    +0.252 C 
ATOM      9  O   UNL     1      -1.661   1.395  -1.725  0.00  0.00    -0.272 OA
ATOM     10  C   UNL     1      -0.024   1.074   0.006  0.00  0.00    +0.150 C 
ATOM     11  S   UNL     1       1.674   1.777  -0.015  0.00  0.00    -0.078 S 
ENDROOT
BRANCH   1  16
ATOM     12  C   UNL     1      -1.910   7.957  -3.272  0.00  0.00    +0.044 C 
ATOM     13  C   UNL     1      -0.804   6.934  -3.336  0.00  0.00    -0.050 A 
ATOM     14  C   UNL     1      -0.644   6.161  -4.471  0.00  0.00    +0.004 A 
ATOM     15  C   UNL     1       0.371   5.224  -4.530  0.00  0.00    +0.006 A 
ATOM     16  C   UNL     1       1.225   5.061  -3.456  0.00  0.00    -0.025 A 
ATOM     17  C   UNL     1       1.061   5.830  -2.319  0.00  0.00    +0.006 A 
ATOM     18  C   UNL     1       0.049   6.771  -2.261  0.00  0.00    +0.004 A 
ENDBRANCH   1  16
BRANCH   3  19
ATOM     19  C   UNL     1       5.886   4.775  -2.261  0.00  0.00    -0.002 A 
ATOM     20  C   UNL     1       6.566   5.572  -3.185  0.00  0.00    +0.010 A 
ATOM     21  C   UNL     1       7.864   5.963  -2.930  0.00  0.00    +0.004 A 
ATOM     22  C   UNL     1       8.497   5.558  -1.768  0.00  0.00    -0.050 A 
ATOM     23  C   UNL     1       7.832   4.764  -0.851  0.00  0.00    +0.004 A 
ATOM     24  C   UNL     1       6.531   4.370  -1.090  0.00  0.00    +0.010 A 
ATOM     25  C   UNL     1       9.918   5.983  -1.501  0.00  0.00    +0.044 C 
ENDBRANCH   3  19
BRANCH  10  26
ATOM     26  C   UNL     1      -0.836   1.611   1.186  0.00  0.00    +0.120 C 
BRANCH  26  27
ATOM     27  C   UNL     1      -0.303   1.029   2.470  0.00  0.00    +0.219 C 
ATOM     28  O   UNL     1       0.635   0.260   2.444  0.00  0.00    -0.275 OA
ATOM     29  N   UNL     1      -0.868   1.363   3.647  0.00  0.00    -0.285 N 
ATOM     30  H   UNL     1      -1.657   2.128   3.681  0.00  0.00    +0.155 HD
BRANCH  29  31
ATOM     31  C   UNL     1      -0.450   0.736   4.826  0.00  0.00    +0.037 A 
ATOM     32  C   UNL     1       0.124  -0.528   4.777  0.00  0.00    +0.027 A 
ATOM     33  C   UNL     1       0.535  -1.144   5.943  0.00  0.00    -0.049 A 
ATOM     34  C   UNL     1       0.376  -0.503   7.158  0.00  0.00    +0.004 A 
ATOM     35  C   UNL     1      -0.194   0.755   7.211  0.00  0.00    +0.005 A 
ATOM     36  C   UNL     1      -0.603   1.379   6.048  0.00  0.00    -0.029 A 
ATOM     37  C   UNL     1      -1.219   2.753   6.105  0.00  0.00    +0.045 C 
ATOM     38  C   UNL     1       1.158  -2.515   5.890  0.00  0.00    +0.044 C 
ENDBRANCH  29  31
ENDBRANCH  26  27
ENDBRANCH  10  26
TORSDOF 5
