REMARK  Name = ZINC34829803
REMARK  7 active torsions:
REMARK  status: ('A' for Active; 'I' for Inactive)
REMARK    1  A    between atoms: C_1  and  C_2
REMARK    2  A    between atoms: C_7  and  C_8
REMARK    3  A    between atoms: N_17  and  C_18
REMARK    4  A    between atoms: C_18  and  C_19
REMARK    5  A    between atoms: C_25  and  C_28
REMARK    6  A    between atoms: C_29  and  C_31
REMARK    7  A    between atoms: C_35  and  N_37
REMARK                            x       y       z     vdW  Elec       q    Type
REMARK                         _______ _______ _______ _____ _____    ______ ____
ROOT
ATOM      1  C   UNL     1       3.438  -0.963   4.581  0.00  0.00    +0.199 C 
ATOM      2  O   UNL     1       2.861  -1.137   5.633  0.00  0.00    -0.278 OA
ATOM      3  N   UNL     1       4.592  -1.613   4.330  0.00  0.00    -0.300 N 
ATOM      4  C   UNL     1       5.306  -1.407   3.062  0.00  0.00    +0.126 C 
ATOM      5  C   UNL     1       5.519  -2.770   2.392  0.00  0.00    +0.127 C 
ATOM      6  N   UNL     1       6.086  -3.696   3.382  0.00  0.00    -0.292 N 
ATOM      7  C   UNL     1       5.372  -3.902   4.650  0.00  0.00    +0.091 C 
ATOM      8  C   UNL     1       5.162  -2.535   5.322  0.00  0.00    +0.130 C 
ATOM      9  C   UNL     1       4.018  -4.560   4.376  0.00  0.00    +0.029 C 
ATOM     10  C   UNL     1       7.240  -4.346   3.131  0.00  0.00    +0.247 C 
ATOM     11  O   UNL     1       7.782  -4.226   2.050  0.00  0.00    -0.270 OA
ENDROOT
BRANCH  10  12
ATOM     12  C   UNL     1       7.846  -5.204   4.171  0.00  0.00    +0.039 A 
ATOM     13  C   UNL     1       7.084  -6.193   4.796  0.00  0.00    +0.013 A 
ATOM     14  C   UNL     1       7.656  -6.991   5.765  0.00  0.00    +0.003 A 
ATOM     15  C   UNL     1       8.982  -6.812   6.119  0.00  0.00    +0.033 A 
ATOM     16  C   UNL     1       9.742  -5.833   5.505  0.00  0.00    +0.127 A 
ATOM     17  C   UNL     1       9.184  -5.033   4.529  0.00  0.00    +0.045 A 
BRANCH  16  18
ATOM     18  N   UNL     1      11.159  -5.649   5.890  0.00  0.00    +0.056 N 
ATOM     19  O   UNL     1      11.651  -6.353   6.741  0.00  0.00    -0.126 OA
ATOM     20  O   UNL     1      11.825  -4.794   5.354  0.00  0.00    -0.126 OA
ENDBRANCH  16  18
ENDBRANCH  10  12
BRANCH   1  21
ATOM     21  C   UNL     1       2.866  -0.020   3.554  0.00  0.00    +0.020 C 
BRANCH  21  30
ATOM     22  C   UNL     1       1.000   1.379   3.014  0.00  0.00    -0.005 C 
ATOM     23  C   UNL     1      -0.242   2.057   3.583  0.00  0.00    -0.047 A 
ATOM     24  C   UNL     1      -1.269   2.583   2.803  0.00  0.00    +0.010 A 
ATOM     25  C   UNL     1      -2.338   3.165   3.394  0.00  0.00    +0.045 A 
ATOM     26  S   UNL     1      -1.938   2.996   5.128  0.00  0.00    -0.101 S 
ATOM     27  C   UNL     1      -0.386   2.169   4.933  0.00  0.00    -0.010 A 
ATOM     28  C   UNL     1       0.577   1.690   5.970  0.00  0.00    +0.024 C 
ATOM     29  C   UNL     1       1.901   1.363   5.258  0.00  0.00    -0.072 C 
ATOM     30  N   UNL     1       1.614   0.557   4.063  0.00  0.00    +0.393 N 
ATOM     31  H   UNL     1       0.983  -0.190   4.311  0.00  0.00    -0.080 HD
BRANCH  22  38
ATOM     32  C   UNL     1       0.768   2.518   0.369  0.00  0.00    +0.044 C 
ATOM     33  C   UNL     1       0.501   1.051   0.584  0.00  0.00    -0.049 A 
ATOM     34  C   UNL     1       0.150   0.248  -0.486  0.00  0.00    +0.003 A 
ATOM     35  C   UNL     1      -0.095  -1.097  -0.289  0.00  0.00    +0.000 A 
ATOM     36  C   UNL     1       0.011  -1.641   0.978  0.00  0.00    +0.000 A 
ATOM     37  C   UNL     1       0.362  -0.839   2.047  0.00  0.00    +0.002 A 
ATOM     38  C   UNL     1       0.612   0.506   1.849  0.00  0.00    -0.054 A 
ENDBRANCH  22  38
ENDBRANCH  21  30
ENDBRANCH   1  21
TORSDOF 5
