REMARK  Name = ZINC01202705
REMARK  8 active torsions:
REMARK  status: ('A' for Active; 'I' for Inactive)
REMARK    1  A    between atoms: C_1  and  C_2
REMARK    2  A    between atoms: C_5  and  N_8
REMARK    3  A    between atoms: C_9  and  C_11
REMARK    4  A    between atoms: C_12  and  C_28
REMARK    5  A    between atoms: C_17  and  C_19
REMARK    6  A    between atoms: C_22  and  C_25
REMARK    7  A    between atoms: C_25  and  C_26
REMARK    8  A    between atoms: C_25  and  C_27
REMARK                            x       y       z     vdW  Elec       q    Type
REMARK                         _______ _______ _______ _____ _____    ______ ____
ROOT
ATOM      1  C   UNL     1      -0.886  -2.391  -0.519  0.00  0.00    +0.056 C 
ATOM      2  C   UNL     1      -1.889  -3.293  -0.538  0.00  0.00    +0.017 C 
ATOM      3  N   UNL     1      -1.667  -4.602  -0.216  0.00  0.00    -0.300 N 
ATOM      4  C   UNL     1      -0.472  -5.084   0.147  0.00  0.00    +0.135 C 
ATOM      5  S   UNL     1      -0.332  -6.746   0.533  0.00  0.00    -0.019 S 
ATOM      6  N   UNL     1       0.625  -4.304   0.218  0.00  0.00    -0.315 N 
ATOM      7  C   UNL     1       0.492  -2.876  -0.116  0.00  0.00    +0.139 C 
ATOM      8  C   UNL     1      -3.277  -2.852  -0.927  0.00  0.00    +0.061 C 
ATOM      9  H   UNL     1      -2.417  -5.215  -0.248  0.00  0.00    +0.154 HD
ATOM     10  H   UNL     1       1.481  -4.674   0.484  0.00  0.00    +0.149 HD
ENDROOT
BRANCH   7  11
ATOM     11  C   UNL     1       1.440  -2.574  -1.248  0.00  0.00    -0.023 A 
ATOM     12  C   UNL     1       1.364  -3.296  -2.424  0.00  0.00    +0.006 A 
ATOM     13  C   UNL     1       2.231  -3.016  -3.464  0.00  0.00    +0.004 A 
ATOM     14  C   UNL     1       3.180  -2.021  -3.324  0.00  0.00    -0.045 A 
ATOM     15  C   UNL     1       3.260  -1.303  -2.145  0.00  0.00    +0.004 A 
ATOM     16  C   UNL     1       2.389  -1.579  -1.107  0.00  0.00    +0.006 A 
BRANCH  14  17
ATOM     17  C   UNL     1       4.129  -1.720  -4.455  0.00  0.00    +0.013 C 
ATOM     18  C   UNL     1       4.949  -2.971  -4.779  0.00  0.00    +0.012 C 
ATOM     19  C   UNL     1       3.332  -1.298  -5.691  0.00  0.00    +0.012 C 
ENDBRANCH  14  17
ENDBRANCH   7  11
BRANCH   1  21
ATOM     20  N   UNL     1      -1.107  -0.654  -2.151  0.00  0.00    -0.282 N 
ATOM     21  C   UNL     1      -1.114  -1.035  -0.859  0.00  0.00    +0.248 C 
ATOM     22  O   UNL     1      -1.317  -0.214   0.017  0.00  0.00    -0.270 OA
ATOM     23  H   UNL     1      -1.047  -1.321  -2.853  0.00  0.00    +0.155 HD
BRANCH  20  28
ATOM     24  C   UNL     1      -1.427   4.850  -3.488  0.00  0.00    +0.044 C 
ATOM     25  C   UNL     1      -1.342   3.388  -3.133  0.00  0.00    -0.050 A 
ATOM     26  C   UNL     1      -0.542   2.542  -3.880  0.00  0.00    +0.005 A 
ATOM     27  C   UNL     1      -0.462   1.201  -3.557  0.00  0.00    +0.023 A 
ATOM     28  C   UNL     1      -1.185   0.703  -2.481  0.00  0.00    +0.034 A 
ATOM     29  C   UNL     1      -1.991   1.554  -1.736  0.00  0.00    +0.023 A 
ATOM     30  C   UNL     1      -2.063   2.895  -2.061  0.00  0.00    +0.005 A 
ENDBRANCH  20  28
ENDBRANCH   1  21
TORSDOF 4
