REMARK  Name = ZINC37603878
REMARK  8 active torsions:
REMARK  status: ('A' for Active; 'I' for Inactive)
REMARK    1  A    between atoms: C_1  and  C_2
REMARK    2  A    between atoms: C_6  and  C_8
REMARK    3  A    between atoms: C_12  and  O_26
REMARK    4  A    between atoms: C_19  and  C_21
REMARK    5  A    between atoms: O_26  and  C_27
REMARK    6  A    between atoms: C_27  and  C_29
REMARK    7  A    between atoms: C_27  and  C_30
REMARK    8  A    between atoms: N_32  and  C_33
REMARK                            x       y       z     vdW  Elec       q    Type
REMARK                         _______ _______ _______ _____ _____    ______ ____
ROOT
ATOM      1  C   UNL     1      -0.075  -3.011   2.304  0.00  0.00    +0.137 C 
ATOM      2  C   UNL     1      -1.419  -3.643   2.569  0.00  0.00    -0.016 A 
ATOM      3  C   UNL     1      -2.434  -2.827   3.045  0.00  0.00    +0.051 A 
ATOM      4  C   UNL     1      -3.692  -3.346   3.298  0.00  0.00    +0.122 A 
ATOM      5  C   UNL     1      -3.936  -4.693   3.070  0.00  0.00    +0.046 A 
ATOM      6  C   UNL     1      -2.924  -5.502   2.601  0.00  0.00    +0.007 A 
ATOM      7  C   UNL     1      -1.659  -4.982   2.353  0.00  0.00    -0.040 A 
ATOM      8  C   UNL     1      -0.597  -5.934   1.867  0.00  0.00    +0.054 C 
ATOM      9  C   UNL     1       0.547  -5.176   1.196  0.00  0.00    +0.114 C 
ATOM     10  N   UNL     1       0.926  -4.059   2.075  0.00  0.00    -0.284 N 
ATOM     11  C   UNL     1       2.146  -4.000   2.646  0.00  0.00    +0.283 C 
ATOM     12  O   UNL     1       2.978  -4.850   2.391  0.00  0.00    -0.267 OA
ENDROOT
BRANCH   1  18
ATOM     13  C   UNL     1       0.535   1.454   0.130  0.00  0.00    +0.044 C 
ATOM     14  C   UNL     1       0.125   0.007   0.045  0.00  0.00    -0.050 A 
ATOM     15  C   UNL     1      -0.337  -0.513  -1.150  0.00  0.00    +0.003 A 
ATOM     16  C   UNL     1      -0.713  -1.840  -1.228  0.00  0.00    +0.001 A 
ATOM     17  C   UNL     1      -0.629  -2.649  -0.110  0.00  0.00    +0.006 A 
ATOM     18  C   UNL     1      -0.167  -2.130   1.085  0.00  0.00    -0.022 A 
ATOM     19  C   UNL     1       0.214  -0.803   1.162  0.00  0.00    +0.009 A 
ENDBRANCH   1  18
BRANCH  11  20
ATOM     20  C   UNL     1       2.469  -2.911   3.574  0.00  0.00    +0.189 A 
ATOM     21  C   UNL     1       3.611  -2.801   4.314  0.00  0.00    +0.054 A 
ATOM     22  C   UNL     1       3.498  -1.613   5.055  0.00  0.00    +0.042 A 
ATOM     23  C   UNL     1       2.308  -1.058   4.737  0.00  0.00    +0.196 A 
ATOM     24  O   UNL     1       1.693  -1.841   3.841  0.00  0.00    -0.458 OA
ENDBRANCH  11  20
BRANCH   4  25
ATOM     25  O   UNL     1      -4.683  -2.542   3.766  0.00  0.00    -0.480 OA
BRANCH  25  26
ATOM     26  C   UNL     1      -5.919  -3.170   4.113  0.00  0.00    +0.256 C 
ATOM     27  C   UNL     1      -6.788  -3.311   2.862  0.00  0.00    +0.062 C 
BRANCH  26  28
ATOM     28  C   UNL     1      -6.640  -2.328   5.134  0.00  0.00    +0.258 C 
ATOM     29  O   UNL     1      -6.190  -1.250   5.458  0.00  0.00    -0.271 OA
ATOM     30  N   UNL     1      -7.786  -2.774   5.687  0.00  0.00    -0.282 N 
ATOM     31  H   UNL     1      -8.107  -3.666   5.484  0.00  0.00    +0.155 HD
BRANCH  30  32
ATOM     32  C   UNL     1      -8.512  -1.949   6.553  0.00  0.00    +0.035 A 
ATOM     33  C   UNL     1      -9.193  -2.500   7.631  0.00  0.00    +0.023 A 
ATOM     34  C   UNL     1      -9.908  -1.684   8.485  0.00  0.00    +0.003 A 
ATOM     35  C   UNL     1      -9.948  -0.319   8.268  0.00  0.00    +0.020 A 
ATOM     36  C   UNL     1      -9.270   0.234   7.196  0.00  0.00    +0.043 A 
ATOM     37  C   UNL     1      -8.548  -0.578   6.341  0.00  0.00    +0.043 A 
ATOM     38 CL   UNL     1      -9.323   1.948   6.927  0.00  0.00    -0.083 Cl
ENDBRANCH  30  32
ENDBRANCH  26  28
ENDBRANCH  25  26
ENDBRANCH   4  25
TORSDOF 6
