REMARK  Name = ZINC09255295
REMARK  5 active torsions:
REMARK  status: ('A' for Active; 'I' for Inactive)
REMARK    1  A    between atoms: C_1  and  C_2
REMARK    2  A    between atoms: C_15  and  C_17
REMARK    3  A    between atoms: C_17  and  S_18
REMARK    4  A    between atoms: S_18  and  C_19
REMARK    5  A    between atoms: C_27  and  C_29
REMARK                            x       y       z     vdW  Elec       q    Type
REMARK                         _______ _______ _______ _____ _____    ______ ____
ROOT
ATOM      1  C   UNL     1       1.922   6.196   0.016  0.00  0.00    +0.172 C 
ENDROOT
BRANCH   1  15
ATOM      2  C   UNL     1       3.945  10.116  -1.393  0.00  0.00    +0.029 C 
ATOM      3  C   UNL     1       3.800   9.535   0.015  0.00  0.00    +0.087 C 
ATOM      4  C   UNL     1       3.459  10.659   0.996  0.00  0.00    +0.118 C 
ATOM      5  C   UNL     1       2.930  10.082   2.282  0.00  0.00    +0.219 C 
ATOM      6  O   UNL     1       3.637  10.060   3.267  0.00  0.00    -0.275 OA
ATOM      7  N   UNL     1       1.674   9.587   2.347  0.00  0.00    -0.284 N 
ATOM      8  C   UNL     1       0.874   9.523   1.200  0.00  0.00    +0.055 A 
ATOM      9  C   UNL     1      -0.428   9.995   1.212  0.00  0.00    +0.025 A 
ATOM     10  C   UNL     1      -1.208   9.890   0.057  0.00  0.00    +0.002 A 
ATOM     11  C   UNL     1      -0.686   9.315  -1.088  0.00  0.00    +0.002 A 
ATOM     12  C   UNL     1       0.617   8.854  -1.105  0.00  0.00    +0.025 A 
ATOM     13  C   UNL     1       1.403   8.965   0.030  0.00  0.00    +0.058 A 
ATOM     14  N   UNL     1       2.736   8.531   0.020  0.00  0.00    -0.266 N 
ATOM     15  C   UNL     1       3.030   7.216   0.011  0.00  0.00    +0.230 C 
ATOM     16  O   UNL     1       4.188   6.854  -0.003  0.00  0.00    -0.274 OA
ATOM     17  H   UNL     1       1.324   9.274   3.196  0.00  0.00    +0.155 HD
ENDBRANCH   1  15
BRANCH   1  18
ATOM     18  S   UNL     1       2.634   4.532   0.000  0.00  0.00    -0.096 S 
BRANCH  18  19
ATOM     19  C   UNL     1       1.159   3.567   0.010  0.00  0.00    +0.109 A 
ATOM     20  C   UNL     1       1.210   2.106   0.002  0.00  0.00    +0.032 A 
ATOM     21  C   UNL     1       2.418   1.404  -0.014  0.00  0.00    +0.012 A 
ATOM     22  C   UNL     1       2.400   0.039  -0.021  0.00  0.00    +0.001 A 
ATOM     23  C   UNL     1       1.197  -0.660  -0.013  0.00  0.00    +0.002 A 
ATOM     24  C   UNL     1       0.002  -0.004   0.002  0.00  0.00    +0.028 A 
ATOM     25  C   UNL     1      -0.017   1.398   0.010  0.00  0.00    +0.076 A 
ATOM     26  N   UNL     1      -1.161   2.094   0.030  0.00  0.00    -0.227 NA
ATOM     27  C   UNL     1      -1.154   3.415   0.031  0.00  0.00    +0.168 A 
ATOM     28  N   UNL     1      -0.036   4.142   0.024  0.00  0.00    -0.220 NA
BRANCH  27  29
ATOM     29  C   UNL     1      -2.448   4.122   0.048  0.00  0.00    +0.056 A 
ATOM     30  C   UNL     1      -2.696   5.470   0.064  0.00  0.00    +0.019 A 
ATOM     31  C   UNL     1      -4.002   5.902   0.073  0.00  0.00    +0.008 A 
ATOM     32  C   UNL     1      -5.004   4.983   0.078  0.00  0.00    +0.046 A 
ATOM     33  S   UNL     1      -4.100   3.444   0.061  0.00  0.00    -0.094 S 
ENDBRANCH  27  29
ENDBRANCH  18  19
ENDBRANCH   1  18
TORSDOF 4
