REMARK  Name = ZINC63655409
REMARK  13 active torsions:
REMARK  status: ('A' for Active; 'I' for Inactive)
REMARK    1  A    between atoms: C_1  and  C_2
REMARK    2  A    between atoms: C_4  and  C_14
REMARK    3  A    between atoms: C_7  and  O_12
REMARK    4  A    between atoms: O_12  and  C_13
REMARK    5  A    between atoms: C_14  and  C_15
REMARK    6  A    between atoms: C_15  and  N_16
REMARK    7  A    between atoms: N_16  and  C_17
REMARK    8  A    between atoms: N_16  and  C_23
REMARK    9  A    between atoms: C_17  and  C_18
REMARK   10  A    between atoms: C_23  and  N_25
REMARK   11  A    between atoms: N_25  and  C_26
REMARK   12  A    between atoms: C_26  and  C_27
REMARK   13  A    between atoms: C_27  and  C_28
REMARK                            x       y       z     vdW  Elec       q    Type
REMARK                         _______ _______ _______ _____ _____    ______ ____
ROOT
ATOM      1  N   UNL     1       0.997  -0.729  -4.977  0.00  0.00    -0.308 N 
ENDROOT
BRANCH   1   2
ATOM      2  C   UNL     1       0.174  -1.589  -5.611  0.00  0.00    +0.133 C 
ATOM      3  S   UNL     1      -0.443  -2.953  -4.781  0.00  0.00    -0.019 S 
BRANCH   2   4
ATOM      4  N   UNL     1      -0.163  -1.374  -6.898  0.00  0.00    -0.326 N 
ATOM      5  H   UNL     1       0.187  -0.601  -7.369  0.00  0.00    +0.148 HD
BRANCH   4   6
ATOM      6  C   UNL     1      -1.057  -2.308  -7.587  0.00  0.00    +0.108 C 
BRANCH   6   7
ATOM      7  C   UNL     1      -1.276  -1.837  -9.026  0.00  0.00    +0.054 C 
BRANCH   7   8
ATOM      8  C   UNL     1      -2.196  -2.798  -9.734  0.00  0.00    -0.046 A 
ATOM      9  C   UNL     1      -1.673  -3.885 -10.409  0.00  0.00    +0.004 A 
ATOM     10  C   UNL     1      -2.517  -4.766 -11.059  0.00  0.00    +0.000 A 
ATOM     11  C   UNL     1      -3.884  -4.561 -11.033  0.00  0.00    +0.000 A 
ATOM     12  C   UNL     1      -4.407  -3.474 -10.357  0.00  0.00    +0.000 A 
ATOM     13  C   UNL     1      -3.563  -2.595  -9.704  0.00  0.00    +0.004 A 
ENDBRANCH   7   8
ENDBRANCH   6   7
ENDBRANCH   4   6
ENDBRANCH   2   4
ENDBRANCH   1   2
BRANCH   1  14
ATOM     14  C   UNL     1       1.363  -0.963  -3.578  0.00  0.00    +0.111 C 
BRANCH  14  15
ATOM     15  C   UNL     1       0.352  -0.269  -2.664  0.00  0.00    +0.052 C 
BRANCH  15  18
ATOM     16  C   UNL     1      -0.019   1.526   0.010  0.00  0.00    +0.035 C 
ATOM     17  C   UNL     1       0.002  -0.004   0.002  0.00  0.00    +0.103 C 
ATOM     18  C   UNL     1       0.729  -0.509  -1.224  0.00  0.00    -0.037 C 
ATOM     19  C   UNL     1       1.785  -1.220  -0.768  0.00  0.00    +0.003 A 
ATOM     20  C   UNL     1       2.858  -1.954  -1.447  0.00  0.00    +0.055 A 
ATOM     21  C   UNL     1       3.803  -2.586  -0.711  0.00  0.00    +0.121 A 
ATOM     22  C   UNL     1       3.796  -2.567   0.695  0.00  0.00    +0.047 A 
ATOM     23  C   UNL     1       2.851  -1.919   1.409  0.00  0.00    +0.029 A 
ATOM     24  C   UNL     1       1.779  -1.200   0.713  0.00  0.00    +0.043 A 
ATOM     25  N   UNL     1       0.758  -0.506   1.155  0.00  0.00    -0.378 N 
ATOM     26  H   UNL     1       0.540  -0.349   2.087  0.00  0.00    +0.160 HD
BRANCH  21  27
ATOM     27  O   UNL     1       4.792  -3.263  -1.353  0.00  0.00    -0.495 OA
ATOM     28  C   UNL     1       5.767  -3.915  -0.537  0.00  0.00    +0.277 C 
ENDBRANCH  21  27
ENDBRANCH  15  18
ENDBRANCH  14  15
ENDBRANCH   1  14
BRANCH   1  29
ATOM     29  C   UNL     1       1.525   0.438  -5.688  0.00  0.00    +0.149 C 
BRANCH  29  30
ATOM     30  C   UNL     1       2.828   0.075  -6.353  0.00  0.00    +0.007 A 
ATOM     31  C   UNL     1       3.043  -0.417  -7.598  0.00  0.00    +0.013 A 
ATOM     32  C   UNL     1       4.339  -0.679  -8.000  0.00  0.00    +0.008 A 
ATOM     33  C   UNL     1       5.357  -0.437  -7.138  0.00  0.00    +0.045 A 
ATOM     34  S   UNL     1       4.489   0.187  -5.708  0.00  0.00    -0.100 S 
ENDBRANCH  29  30
ENDBRANCH   1  29
TORSDOF 11
