REMARK  Name = ZINC36205209
REMARK  14 active torsions:
REMARK  status: ('A' for Active; 'I' for Inactive)
REMARK    1  A    between atoms: C_1  and  C_2
REMARK    2  A    between atoms: C_2  and  C_3
REMARK    3  A    between atoms: C_3  and  C_5
REMARK    4  A    between atoms: C_3  and  O_31
REMARK    5  A    between atoms: C_5  and  N_6
REMARK    6  A    between atoms: N_6  and  C_7
REMARK    7  A    between atoms: N_6  and  C_27
REMARK    8  A    between atoms: C_7  and  C_8
REMARK    9  A    between atoms: C_14  and  C_19
REMARK   10  A    between atoms: C_22  and  C_26
REMARK   11  A    between atoms: C_23  and  C_25
REMARK   12  A    between atoms: C_27  and  C_28
REMARK   13  A    between atoms: C_28  and  C_29
REMARK   14  A    between atoms: C_28  and  C_30
REMARK                            x       y       z     vdW  Elec       q    Type
REMARK                         _______ _______ _______ _____ _____    ______ ____
ROOT
ATOM      1  C   UNL     1      -4.081  -4.383   0.018  0.00  0.00    +0.094 A 
ATOM      2  N   UNL     1      -4.356  -5.711   0.077  0.00  0.00    -0.312 N 
ATOM      3  H   UNL     1      -3.644  -6.352  -0.077  0.00  0.00    +0.170 HD
ATOM      4  C   UNL     1      -5.598  -6.156   0.345  0.00  0.00    +0.260 A 
ATOM      5  O   UNL     1      -5.829  -7.352   0.395  0.00  0.00    -0.267 OA
ATOM      6  C   UNL     1      -6.642  -5.204   0.572  0.00  0.00    +0.080 A 
ATOM      7  C   UNL     1      -8.050  -5.434   0.876  0.00  0.00    +0.004 A 
ATOM      8  C   UNL     1      -8.861  -4.363   1.053  0.00  0.00    +0.056 A 
ATOM      9  S   UNL     1      -7.769  -2.974   0.817  0.00  0.00    -0.076 S 
ATOM     10  C   UNL     1      -6.263  -3.854   0.490  0.00  0.00    +0.116 A 
ATOM     11  N   UNL     1      -5.011  -3.491   0.226  0.00  0.00    -0.229 NA
ENDROOT
BRANCH   7  12
ATOM     12  C   UNL     1      -8.583  -6.812   0.991  0.00  0.00    -0.016 A 
ATOM     13  C   UNL     1      -8.321  -7.749  -0.009  0.00  0.00    +0.009 A 
ATOM     14  C   UNL     1      -8.819  -9.030   0.103  0.00  0.00    +0.004 A 
ATOM     15  C   UNL     1      -9.578  -9.387   1.204  0.00  0.00    -0.048 A 
ATOM     16  C   UNL     1      -9.841  -8.462   2.199  0.00  0.00    -0.047 A 
ATOM     17  C   UNL     1      -9.343  -7.178   2.100  0.00  0.00    +0.012 A 
ATOM     18  C   UNL     1     -10.668  -8.858   3.395  0.00  0.00    +0.044 C 
ATOM     19  C   UNL     1     -10.120 -10.788   1.321  0.00  0.00    +0.044 C 
ENDBRANCH   7  12
BRANCH   1  20
ATOM     20  C   UNL     1      -2.675  -3.931  -0.285  0.00  0.00    -0.003 C 
BRANCH  20  21
ATOM     21  N   UNL     1      -2.592  -2.470  -0.155  0.00  0.00    +0.386 N 
ATOM     22  H   UNL     1      -3.309  -2.041  -0.721  0.00  0.00    -0.081 HD
BRANCH  21  23
ATOM     23  C   UNL     1      -2.786  -2.091   1.251  0.00  0.00    -0.047 C 
BRANCH  23  24
ATOM     24  C   UNL     1      -2.824  -0.567   1.368  0.00  0.00    +0.098 C 
BRANCH  24  26
ATOM     25  C   UNL     1      -2.812   1.353   2.967  0.00  0.00    +0.006 C 
ATOM     26  C   UNL     1      -2.900  -0.170   2.843  0.00  0.00    +0.026 C 
ENDBRANCH  24  26
BRANCH  24  27
ATOM     27  O   UNL     1      -3.971  -0.064   0.679  0.00  0.00    -0.394 OA
ATOM     28  H   UNL     1      -4.812  -0.398   1.021  0.00  0.00    +0.210 HD
ENDBRANCH  24  27
ENDBRANCH  23  24
ENDBRANCH  21  23
BRANCH  21  29
ATOM     29  C   UNL     1      -1.272  -2.013  -0.608  0.00  0.00    -0.075 C 
BRANCH  29  30
ATOM     30  C   UNL     1      -1.120  -2.295  -2.104  0.00  0.00    -0.034 C 
ATOM     31  C   UNL     1      -2.171  -1.500  -2.882  0.00  0.00    +0.005 C 
ATOM     32  C   UNL     1       0.278  -1.875  -2.563  0.00  0.00    +0.005 C 
ENDBRANCH  29  30
ENDBRANCH  21  29
ENDBRANCH  20  21
ENDBRANCH   1  20
TORSDOF 9
