REMARK  Name = ZINC21343696
REMARK  12 active torsions:
REMARK  status: ('A' for Active; 'I' for Inactive)
REMARK    1  A    between atoms: C_1  and  C_2
REMARK    2  A    between atoms: C_5  and  C_9
REMARK    3  A    between atoms: C_6  and  C_8
REMARK    4  A    between atoms: C_9  and  N_10
REMARK    5  A    between atoms: C_17  and  C_20
REMARK    6  A    between atoms: C_17  and  O_33
REMARK    7  A    between atoms: C_20  and  C_21
REMARK    8  A    between atoms: C_21  and  C_23
REMARK    9  A    between atoms: C_26  and  O_31
REMARK   10  A    between atoms: C_27  and  O_29
REMARK   11  A    between atoms: O_29  and  C_30
REMARK   12  A    between atoms: O_31  and  C_32
REMARK                            x       y       z     vdW  Elec       q    Type
REMARK                         _______ _______ _______ _____ _____    ______ ____
ROOT
ATOM      1  N   UNL     1       1.374   0.162  -3.020  0.00  0.00    -0.264 N 
ATOM      2  C   UNL     1       2.081   1.309  -2.655  0.00  0.00    +0.043 A 
ATOM      3  C   UNL     1       1.711   2.391  -1.859  0.00  0.00    +0.025 A 
ATOM      4  C   UNL     1       2.600   3.421  -1.633  0.00  0.00    +0.017 A 
ATOM      5  C   UNL     1       3.866   3.386  -2.190  0.00  0.00    +0.018 A 
ATOM      6  C   UNL     1       4.242   2.312  -2.978  0.00  0.00    +0.024 A 
ATOM      7  C   UNL     1       3.356   1.283  -3.204  0.00  0.00    +0.016 A 
ATOM      8  C   UNL     1       3.452  -0.001  -3.997  0.00  0.00    +0.175 C 
ATOM      9  C   UNL     1       2.099  -0.653  -3.805  0.00  0.00    +0.257 C 
ATOM     10  O   UNL     1       1.738  -1.712  -4.272  0.00  0.00    -0.272 OA
ATOM     11 BR   UNL     1       5.080   4.802  -1.876  0.00  0.00    -0.050 Br
ENDROOT
BRANCH   8  12
ATOM     12  O   UNL     1       4.489  -0.836  -3.478  0.00  0.00    -0.374 OA
ATOM     13  H   UNL     1       4.692  -1.813  -3.942  0.00  0.00    +0.211 HD
ENDBRANCH   8  12
BRANCH   1  14
ATOM     14  C   UNL     1      -0.001  -0.118  -2.602  0.00  0.00    +0.149 C 
BRANCH  14  19
ATOM     15  C   UNL     1       0.052  -2.870   2.479  0.00  0.00    +0.044 C 
ATOM     16  C   UNL     1       0.038  -2.150   1.156  0.00  0.00    -0.050 A 
ATOM     17  C   UNL     1       1.227  -1.882   0.502  0.00  0.00    +0.004 A 
ATOM     18  C   UNL     1       1.214  -1.222  -0.712  0.00  0.00    +0.006 A 
ATOM     19  C   UNL     1       0.013  -0.833  -1.275  0.00  0.00    -0.027 A 
ATOM     20  C   UNL     1      -1.175  -1.095  -0.619  0.00  0.00    -0.046 A 
ATOM     21  C   UNL     1      -1.162  -1.756   0.596  0.00  0.00    +0.007 A 
ATOM     22  C   UNL     1      -2.484  -0.667  -1.230  0.00  0.00    +0.044 C 
ENDBRANCH  14  19
ENDBRANCH   1  14
BRANCH   8  23
ATOM     23  C   UNL     1       3.697   0.300  -5.476  0.00  0.00    +0.129 C 
BRANCH  23  24
ATOM     24  C   UNL     1       3.572  -0.972  -6.275  0.00  0.00    +0.167 C 
ATOM     25  O   UNL     1       3.312  -2.017  -5.715  0.00  0.00    -0.292 OA
BRANCH  24  26
ATOM     26  C   UNL     1       3.764  -0.948  -7.731  0.00  0.00    +0.021 A 
ATOM     27  C   UNL     1       4.059   0.258  -8.379  0.00  0.00    +0.015 A 
ATOM     28  C   UNL     1       4.244   0.277  -9.743  0.00  0.00    +0.050 A 
ATOM     29  C   UNL     1       4.129  -0.895 -10.481  0.00  0.00    +0.162 A 
ATOM     30  C   UNL     1       3.830  -2.099  -9.842  0.00  0.00    +0.162 A 
ATOM     31  C   UNL     1       3.648  -2.128  -8.474  0.00  0.00    +0.060 A 
BRANCH  30  32
ATOM     32  O   UNL     1       3.718  -3.243 -10.568  0.00  0.00    -0.491 OA
ATOM     33  C   UNL     1       3.410  -4.440  -9.849  0.00  0.00    +0.277 C 
ENDBRANCH  30  32
BRANCH  29  34
ATOM     34  O   UNL     1       4.307  -0.868 -11.826  0.00  0.00    -0.491 OA
ATOM     35  C   UNL     1       4.611   0.397 -12.415  0.00  0.00    +0.277 C 
ENDBRANCH  29  34
ENDBRANCH  24  26
ENDBRANCH  23  24
ENDBRANCH   8  23
TORSDOF 8
