REMARK  Name = ZINC00705890
REMARK  14 active torsions:
REMARK  status: ('A' for Active; 'I' for Inactive)
REMARK    1  A    between atoms: C_1  and  C_2
REMARK    2  A    between atoms: C_2  and  O_3
REMARK    3  A    between atoms: O_3  and  C_4
REMARK    4  A    between atoms: C_4  and  C_6
REMARK    5  A    between atoms: C_7  and  C_23
REMARK    6  A    between atoms: C_9  and  N_22
REMARK    7  A    between atoms: C_10  and  C_20
REMARK    8  A    between atoms: C_11  and  C_13
REMARK    9  A    between atoms: C_23  and  S_24
REMARK   10  A    between atoms: S_24  and  C_25
REMARK   11  A    between atoms: C_26  and  C_34
REMARK   12  A    between atoms: C_27  and  C_33
REMARK   13  A    between atoms: C_28  and  C_32
REMARK   14  A    between atoms: C_29  and  C_31
REMARK                            x       y       z     vdW  Elec       q    Type
REMARK                         _______ _______ _______ _____ _____    ______ ____
ROOT
ATOM      1  C   UNL     1      -2.797  -2.411   0.127  0.00  0.00    +0.088 C 
ATOM      2  C   UNL     1      -2.945  -3.725  -0.086  0.00  0.00    +0.128 C 
ATOM      3  O   UNL     1      -4.155  -4.295  -0.193  0.00  0.00    -0.444 OA
ATOM      4  C   UNL     1      -5.242  -3.653   0.274  0.00  0.00    +0.198 C 
ATOM      5  C   UNL     1      -5.229  -2.319   0.510  0.00  0.00    +0.098 C 
ATOM      6  C   UNL     1      -3.990  -1.505   0.263  0.00  0.00    +0.106 C 
ENDROOT
BRANCH   6   7
ATOM      7  C   UNL     1      -4.163  -0.712  -1.007  0.00  0.00    -0.020 A 
ATOM      8  C   UNL     1      -4.379  -1.366  -2.206  0.00  0.00    +0.005 A 
ATOM      9  C   UNL     1      -4.539  -0.639  -3.371  0.00  0.00    +0.000 A 
ATOM     10  C   UNL     1      -4.482   0.742  -3.337  0.00  0.00    +0.001 A 
ATOM     11  C   UNL     1      -4.266   1.396  -2.139  0.00  0.00    +0.015 A 
ATOM     12  C   UNL     1      -4.112   0.669  -0.973  0.00  0.00    +0.022 A 
ATOM     13 BR   UNL     1      -3.823   1.564   0.668  0.00  0.00    -0.050 Br
ENDBRANCH   6   7
BRANCH   4  14
ATOM     14  N   UNL     1      -6.390  -4.366   0.515  0.00  0.00    -0.328 N 
ATOM     15  H   UNL     1      -6.412  -5.322   0.350  0.00  0.00    +0.145 HD
ATOM     16  H   UNL     1      -7.180  -3.914   0.852  0.00  0.00    +0.145 HD
ENDBRANCH   4  14
BRANCH   1  17
ATOM     17  C   UNL     1      -1.494  -1.866   0.232  0.00  0.00    +0.339 C 
ATOM     18  O   UNL     1      -1.021  -1.627   1.327  0.00  0.00    -0.245 OA
BRANCH  17  19
ATOM     19  O   UNL     1      -0.777  -1.611  -0.883  0.00  0.00    -0.462 OA
BRANCH  19  21
ATOM     20  C   UNL     1       1.184  -0.843  -2.068  0.00  0.00    +0.048 C 
ATOM     21  C   UNL     1       0.529  -1.062  -0.703  0.00  0.00    +0.229 C 
ENDBRANCH  19  21
ENDBRANCH  17  19
ENDBRANCH   1  17
BRANCH   5  22
ATOM     22  C   UNL     1      -6.409  -1.677   1.006  0.00  0.00    +0.101 C 
ATOM     23  N   UNL     1      -7.345  -1.167   1.400  0.00  0.00    -0.191 NA
ENDBRANCH   5  22
BRANCH   2  24
ATOM     24  C   UNL     1      -1.716  -4.589  -0.209  0.00  0.00    +0.150 C 
BRANCH  24  25
ATOM     25  S   UNL     1      -1.492  -5.543   1.317  0.00  0.00    -0.097 S 
BRANCH  25  26
ATOM     26  C   UNL     1      -0.035  -6.489   1.018  0.00  0.00    +0.115 A 
ATOM     27  C   UNL     1       0.444  -7.367   2.007  0.00  0.00    +0.087 A 
ATOM     28  C   UNL     1       1.602  -8.107   1.747  0.00  0.00    -0.026 A 
ATOM     29  C   UNL     1       2.227  -7.942   0.522  0.00  0.00    -0.025 A 
ATOM     30  C   UNL     1       1.695  -7.059  -0.400  0.00  0.00    +0.043 A 
ATOM     31  N   UNL     1       0.599  -6.373  -0.138  0.00  0.00    -0.244 NA
ATOM     32  C   UNL     1       2.378  -6.881  -1.732  0.00  0.00    +0.066 C 
ATOM     33  C   UNL     1       3.477  -8.718   0.197  0.00  0.00    +0.046 C 
ATOM     34  C   UNL     1       2.156  -9.061   2.773  0.00  0.00    +0.045 C 
BRANCH  27  35
ATOM     35  C   UNL     1      -0.241  -7.500   3.258  0.00  0.00    +0.102 C 
ATOM     36  N   UNL     1      -0.784  -7.605   4.250  0.00  0.00    -0.191 NA
ENDBRANCH  27  35
ENDBRANCH  25  26
ENDBRANCH  24  25
ENDBRANCH   2  24
TORSDOF 10
