REMARK  Name = ZINC20893802
REMARK  6 active torsions:
REMARK  status: ('A' for Active; 'I' for Inactive)
REMARK    1  A    between atoms: C_1  and  C_2
REMARK    2  A    between atoms: C_5  and  C_20
REMARK    3  A    between atoms: C_7  and  S_8
REMARK    4  A    between atoms: S_8  and  N_11
REMARK    5  A    between atoms: N_11  and  C_12
REMARK    6  A    between atoms: C_17  and  C_18
REMARK                            x       y       z     vdW  Elec       q    Type
REMARK                         _______ _______ _______ _____ _____    ______ ____
ROOT
ATOM      1  C   UNL     1      -0.365   3.807   1.190  0.00  0.00    +0.046 C 
ATOM      2  C   UNL     1       0.824   3.389   2.016  0.00  0.00    -0.024 A 
ATOM      3  C   UNL     1       0.808   3.569   3.388  0.00  0.00    +0.006 A 
ATOM      4  C   UNL     1       1.895   3.187   4.149  0.00  0.00    +0.010 A 
ATOM      5  C   UNL     1       3.009   2.621   3.533  0.00  0.00    +0.004 A 
ATOM      6  C   UNL     1       3.017   2.437   2.151  0.00  0.00    +0.039 A 
ATOM      7  C   UNL     1       1.927   2.827   1.399  0.00  0.00    +0.112 A 
ENDROOT
BRANCH   5   8
ATOM      8  C   UNL     1       4.180   2.208   4.346  0.00  0.00    +0.095 A 
ATOM      9  C   UNL     1       3.981   1.542   5.582  0.00  0.00    -0.011 A 
ATOM     10  C   UNL     1       5.072   1.175   6.294  0.00  0.00    +0.024 A 
ATOM     11  C   UNL     1       6.348   1.488   5.764  0.00  0.00    +0.268 A 
ATOM     12  O   UNL     1       7.359   1.182   6.376  0.00  0.00    -0.266 OA
ATOM     13  N   UNL     1       6.438   2.126   4.583  0.00  0.00    -0.242 N 
ATOM     14  H   UNL     1       7.425   2.376   4.167  0.00  0.00    +0.192 HD
ATOM     15  N   UNL     1       5.393   2.457   3.915  0.00  0.00    -0.171 NA
ATOM     16  C   UNL     1       4.989   0.455   7.610  0.00  0.00    +0.041 C 
ATOM     17  C   UNL     1       3.589   0.595   8.209  0.00  0.00    +0.005 C 
ATOM     18  C   UNL     1       2.563   0.208   7.137  0.00  0.00    +0.005 C 
ATOM     19  C   UNL     1       2.575   1.280   6.047  0.00  0.00    +0.038 C 
ENDBRANCH   5   8
BRANCH   7  20
ATOM     20  S   UNL     1       1.939   2.602  -0.348  0.00  0.00    +0.073 S 
ATOM     21  O   UNL     1       0.717   1.957  -0.682  0.00  0.00    -0.150 OA
ATOM     22  O   UNL     1       3.206   2.051  -0.678  0.00  0.00    -0.150 OA
BRANCH  20  23
ATOM     23  N   UNL     1       1.883   4.107  -1.036  0.00  0.00    -0.216 N 
ATOM     24  H   UNL     1       1.047   4.379  -1.697  0.00  0.00    +0.174 HD
BRANCH  23  25
ATOM     25  C   UNL     1       2.899   5.031  -0.777  0.00  0.00    +0.051 A 
ATOM     26  C   UNL     1       4.210   4.599  -0.624  0.00  0.00    +0.026 A 
ATOM     27  C   UNL     1       5.212   5.515  -0.368  0.00  0.00    +0.022 A 
ATOM     28  C   UNL     1       4.910   6.862  -0.265  0.00  0.00    +0.041 A 
ATOM     29  C   UNL     1       3.605   7.295  -0.417  0.00  0.00    +0.025 A 
ATOM     30  C   UNL     1       2.600   6.384  -0.679  0.00  0.00    -0.027 A 
ATOM     31  C   UNL     1       1.180   6.857  -0.852  0.00  0.00    +0.046 C 
ATOM     32 CL   UNL     1       6.172   8.010   0.057  0.00  0.00    -0.084 Cl
ENDBRANCH  23  25
ENDBRANCH  20  23
ENDBRANCH   7  20
TORSDOF 4
