REMARK  Name = ZINC33266066
REMARK  11 active torsions:
REMARK  status: ('A' for Active; 'I' for Inactive)
REMARK    1  A    between atoms: C_1  and  C_2
REMARK    2  A    between atoms: C_5  and  C_8
REMARK    3  A    between atoms: C_8  and  N_9
REMARK    4  A    between atoms: C_10  and  C_12
REMARK    5  A    between atoms: C_12  and  C_34
REMARK    6  A    between atoms: C_17  and  C_30
REMARK    7  A    between atoms: N_21  and  C_22
REMARK    8  A    between atoms: C_24  and  C_29
REMARK    9  A    between atoms: C_26  and  C_28
REMARK   10  A    between atoms: C_30  and  O_32
REMARK   11  A    between atoms: O_32  and  C_33
REMARK                            x       y       z     vdW  Elec       q    Type
REMARK                         _______ _______ _______ _____ _____    ______ ____
ROOT
ATOM      1  C   UNL     1      -1.186   1.731   4.001  0.00  0.00    +0.133 C 
ATOM      2  C   UNL     1      -2.458   0.911   4.220  0.00  0.00    +0.159 C 
ATOM      3  N   UNL     1      -3.284   0.971   3.013  0.00  0.00    -0.323 N 
ATOM      4  C   UNL     1      -4.160   0.100   2.507  0.00  0.00    +0.200 A 
ATOM      5  N   UNL     1      -4.689   0.596   1.416  0.00  0.00    -0.228 NA
ATOM      6  C   UNL     1      -4.163   1.814   1.171  0.00  0.00    +0.178 A 
ATOM      7  C   UNL     1      -3.259   2.065   2.171  0.00  0.00    +0.139 A 
ATOM      8  C   UNL     1      -2.371   3.208   2.434  0.00  0.00    +0.271 C 
ATOM      9  O   UNL     1      -2.455   4.246   1.805  0.00  0.00    -0.268 OA
ATOM     10  N   UNL     1      -1.452   3.040   3.417  0.00  0.00    -0.250 N 
ATOM     11  C   UNL     1      -0.488   1.924   5.349  0.00  0.00    +0.044 C 
ENDROOT
BRANCH  10  12
ATOM     12  C   UNL     1      -0.742   4.150   3.881  0.00  0.00    +0.038 A 
ATOM     13  C   UNL     1      -1.292   4.970   4.859  0.00  0.00    +0.027 A 
ATOM     14  C   UNL     1      -0.585   6.063   5.320  0.00  0.00    -0.048 A 
ATOM     15  C   UNL     1       0.665   6.348   4.801  0.00  0.00    +0.006 A 
ATOM     16  C   UNL     1       1.213   5.538   3.825  0.00  0.00    -0.048 A 
ATOM     17  C   UNL     1       0.514   4.440   3.363  0.00  0.00    +0.027 A 
ATOM     18  C   UNL     1       2.576   5.853   3.263  0.00  0.00    +0.044 C 
ATOM     19  C   UNL     1      -1.179   6.948   6.385  0.00  0.00    +0.044 C 
ENDBRANCH  10  12
BRANCH   1  21
ATOM     20  N   UNL     1      -0.371   1.114   1.749  0.00  0.00    -0.309 N 
ATOM     21  C   UNL     1      -0.266   0.966   3.084  0.00  0.00    +0.239 C 
ATOM     22  O   UNL     1       0.568   0.218   3.548  0.00  0.00    -0.273 OA
ATOM     23  H   UNL     1      -1.128   1.793   1.328  0.00  0.00    +0.149 HD
BRANCH  20  24
ATOM     24  C   UNL     1       0.523   0.371   0.857  0.00  0.00    +0.139 C 
BRANCH  24  29
ATOM     25  C   UNL     1      -0.711   1.679  -4.635  0.00  0.00    +0.044 C 
ATOM     26  C   UNL     1      -0.389   1.338  -3.203  0.00  0.00    -0.050 A 
ATOM     27  C   UNL     1       0.546   2.083  -2.508  0.00  0.00    +0.003 A 
ATOM     28  C   UNL     1       0.841   1.770  -1.194  0.00  0.00    +0.005 A 
ATOM     29  C   UNL     1       0.201   0.712  -0.575  0.00  0.00    -0.030 A 
ATOM     30  C   UNL     1      -0.730  -0.036  -1.272  0.00  0.00    +0.005 A 
ATOM     31  C   UNL     1      -1.028   0.280  -2.584  0.00  0.00    +0.003 A 
ENDBRANCH  24  29
ENDBRANCH  20  24
ENDBRANCH   1  21
BRANCH   6  32
ATOM     32  C   UNL     1      -4.497   2.706   0.041  0.00  0.00    +0.360 C 
ATOM     33  O   UNL     1      -3.947   3.784  -0.065  0.00  0.00    -0.243 OA
BRANCH  32  34
ATOM     34  O   UNL     1      -5.411   2.324  -0.872  0.00  0.00    -0.463 OA
ATOM     35  C   UNL     1      -5.689   3.251  -1.954  0.00  0.00    +0.280 C 
ENDBRANCH  32  34
ENDBRANCH   6  32
TORSDOF 6
