REMARK  Name = ZINC34906294
REMARK  14 active torsions:
REMARK  status: ('A' for Active; 'I' for Inactive)
REMARK    1  A    between atoms: C_1  and  C_2
REMARK    2  A    between atoms: C_2  and  O_3
REMARK    3  A    between atoms: O_3  and  C_4
REMARK    4  A    between atoms: C_4  and  C_6
REMARK    5  A    between atoms: C_6  and  N_7
REMARK    6  A    between atoms: N_10  and  C_11
REMARK    7  A    between atoms: C_17  and  N_19
REMARK    8  A    between atoms: C_20  and  C_22
REMARK    9  A    between atoms: C_25  and  C_27
REMARK   10  A    between atoms: C_27  and  O_28
REMARK   11  A    between atoms: O_28  and  C_29
REMARK   12  A    between atoms: C_32  and  C_35
REMARK   13  A    between atoms: C_35  and  C_36
REMARK   14  A    between atoms: C_35  and  C_37
REMARK                            x       y       z     vdW  Elec       q    Type
REMARK                         _______ _______ _______ _____ _____    ______ ____
ROOT
ATOM      1  N   UNL     1       0.620  -7.956   4.729  0.00  0.00    -0.305 N 
ATOM      2  C   UNL     1      -0.246  -8.916   4.348  0.00  0.00    +0.263 C 
ATOM      3  O   UNL     1       0.159  -9.902   3.762  0.00  0.00    -0.269 OA
ATOM      4  H   UNL     1       0.297  -7.169   5.197  0.00  0.00    +0.149 HD
ENDROOT
BRANCH   1  10
ATOM      5  C   UNL     1       2.699  -6.716   4.381  0.00  0.00    +0.095 C 
ATOM      6  C   UNL     1       4.191  -6.867   4.077  0.00  0.00    +0.024 C 
ATOM      7  C   UNL     1       4.854  -7.697   5.178  0.00  0.00    +0.002 C 
ATOM      8  C   UNL     1       4.204  -9.081   5.235  0.00  0.00    +0.002 C 
ATOM      9  C   UNL     1       2.712  -8.930   5.539  0.00  0.00    +0.024 C 
ATOM     10  C   UNL     1       2.048  -8.100   4.438  0.00  0.00    +0.093 C 
BRANCH   5  14
ATOM     11  N   UNL     1       1.497  -3.844   2.426  0.00  0.00    -0.289 N 
ATOM     12  C   UNL     1       2.081  -4.575   3.395  0.00  0.00    +0.300 C 
ATOM     13  O   UNL     1       2.624  -4.021   4.332  0.00  0.00    -0.253 OA
ATOM     14  N   UNL     1       2.064  -5.921   3.327  0.00  0.00    -0.295 N 
ATOM     15  H   UNL     1       1.064  -4.286   1.679  0.00  0.00    +0.151 HD
ATOM     16  H   UNL     1       1.631  -6.363   2.580  0.00  0.00    +0.151 HD
BRANCH  11  17
ATOM     17  C   UNL     1       1.516  -2.381   2.500  0.00  0.00    +0.226 C 
BRANCH  17  18
ATOM     18  C   UNL     1       0.801  -1.808   1.304  0.00  0.00    +0.324 C 
ATOM     19  O   UNL     1       0.324  -2.546   0.475  0.00  0.00    -0.249 OA
BRANCH  18  20
ATOM     20  O   UNL     1       0.693  -0.477   1.160  0.00  0.00    -0.464 OA
BRANCH  20  22
ATOM     21  C   UNL     1      -0.019   1.526   0.010  0.00  0.00    +0.048 C 
ATOM     22  C   UNL     1       0.002  -0.004   0.002  0.00  0.00    +0.229 C 
ENDBRANCH  20  22
ENDBRANCH  18  20
ENDBRANCH  17  18
ENDBRANCH  11  17
ENDBRANCH   5  14
ENDBRANCH   1  10
BRANCH   2  23
ATOM     23  C   UNL     1      -1.682  -8.771   4.640  0.00  0.00    +0.133 A 
ATOM     24  C   UNL     1      -2.595  -9.723   4.276  0.00  0.00    +0.080 A 
ATOM     25  S   UNL     1      -4.040  -9.073   4.836  0.00  0.00    -0.076 S 
ATOM     26  C   UNL     1      -3.455  -7.646   5.500  0.00  0.00    +0.116 A 
ATOM     27  N   UNL     1      -2.169  -7.704   5.282  0.00  0.00    -0.236 NA
BRANCH  26  28
ATOM     28  C   UNL     1      -4.232  -6.556   6.191  0.00  0.00    +0.291 C 
BRANCH  28  29
ATOM     29  O   UNL     1      -4.656  -5.589   5.228  0.00  0.00    -0.485 OA
BRANCH  29  30
ATOM     30  C   UNL     1      -5.374  -4.532   5.690  0.00  0.00    +0.121 A 
ATOM     31  C   UNL     1      -5.660  -4.424   7.043  0.00  0.00    +0.046 A 
ATOM     32  C   UNL     1      -6.390  -3.348   7.511  0.00  0.00    +0.007 A 
ATOM     33  C   UNL     1      -6.836  -2.380   6.631  0.00  0.00    -0.045 A 
ATOM     34  C   UNL     1      -6.553  -2.485   5.282  0.00  0.00    +0.007 A 
ATOM     35  C   UNL     1      -5.818  -3.555   4.810  0.00  0.00    +0.046 A 
BRANCH  33  36
ATOM     36  C   UNL     1      -7.633  -1.207   7.143  0.00  0.00    +0.013 C 
ATOM     37  C   UNL     1      -6.894   0.092   6.818  0.00  0.00    +0.012 C 
ATOM     38  C   UNL     1      -9.008  -1.194   6.473  0.00  0.00    +0.012 C 
ENDBRANCH  33  36
ENDBRANCH  29  30
ENDBRANCH  28  29
ENDBRANCH  26  28
ENDBRANCH   2  23
TORSDOF 11
