REMARK  Name = ZINC48310391
REMARK  6 active torsions:
REMARK  status: ('A' for Active; 'I' for Inactive)
REMARK    1  A    between atoms: C_3  and  C_6
REMARK    2  A    between atoms: C_6  and  C_8
REMARK    3  A    between atoms: C_6  and  N_22
REMARK    4  A    between atoms: C_8  and  N_9
REMARK    5  A    between atoms: N_9  and  S_10
REMARK    6  A    between atoms: S_10  and  C_13
REMARK                            x       y       z     vdW  Elec       q    Type
REMARK                         _______ _______ _______ _____ _____    ______ ____
ROOT
ATOM      1  N   UNL     1       3.673   1.693   2.215  0.00  0.00    -0.191 NA
ATOM      2  H   UNL     1       3.417   2.485   1.718  0.00  0.00    +0.148 HD
ENDROOT
BRANCH   1   3
ATOM      3  S   UNL     1       3.733   1.737   3.870  0.00  0.00    +0.061 S 
ATOM      4  O   UNL     1       3.389   3.062   4.253  0.00  0.00    -0.153 OA
ATOM      5  O   UNL     1       3.019   0.600   4.333  0.00  0.00    -0.153 OA
BRANCH   3   6
ATOM      6  C   UNL     1       5.416   1.500   4.336  0.00  0.00    +0.142 A 
ATOM      7  C   UNL     1       5.899   0.222   4.552  0.00  0.00    +0.070 A 
ATOM      8  C   UNL     1       7.221   0.035   4.918  0.00  0.00    +0.037 A 
ATOM      9  C   UNL     1       8.058   1.126   5.068  0.00  0.00    +0.021 A 
ATOM     10  C   UNL     1       7.574   2.404   4.852  0.00  0.00    +0.037 A 
ATOM     11  C   UNL     1       6.254   2.590   4.481  0.00  0.00    +0.070 A 
ATOM     12 CL   UNL     1       5.649   4.193   4.203  0.00  0.00    -0.081 Cl
ATOM     13 BR   UNL     1       9.863   0.871   5.568  0.00  0.00    -0.050 Br
ATOM     14 CL   UNL     1       4.849  -1.148   4.365  0.00  0.00    -0.081 Cl
ENDBRANCH   3   6
ENDBRANCH   1   3
BRANCH   1  15
ATOM     15  C   UNL     1       4.005   0.456   1.503  0.00  0.00    +0.098 C 
BRANCH  15  16
ATOM     16  C   UNL     1       3.497   0.545   0.063  0.00  0.00    +0.015 C 
BRANCH  16  17
ATOM     17  N   UNL     1       3.902  -0.659  -0.674  0.00  0.00    +0.387 N 
ATOM     18  C   UNL     1       3.546  -0.525  -2.110  0.00  0.00    -0.078 C 
ATOM     19  C   UNL     1       4.495  -1.533  -2.807  0.00  0.00    -0.020 C 
ATOM     20  C   UNL     1       5.803  -1.394  -1.995  0.00  0.00    -0.020 C 
ATOM     21  C   UNL     1       5.373  -0.809  -0.636  0.00  0.00    -0.078 C 
ATOM     22  H   UNL     1       3.459  -1.475  -0.280  0.00  0.00    -0.081 HD
ENDBRANCH  16  17
BRANCH  16  25
ATOM     23  C   UNL     1      -0.082   1.422  -0.017  0.00  0.00    +0.041 A 
ATOM     24  C   UNL     1       1.284   1.783  -0.082  0.00  0.00    +0.043 A 
ATOM     25  C   UNL     1       1.994   0.650   0.066  0.00  0.00    +0.093 A 
ATOM     26  O   UNL     1       1.135  -0.372   0.216  0.00  0.00    -0.469 OA
ATOM     27  C   UNL     1      -0.124   0.090   0.167  0.00  0.00    +0.195 A 
ENDBRANCH  16  25
ENDBRANCH  15  16
ENDBRANCH   1  15
TORSDOF 6
