REMARK  Name = ZINC13639007
REMARK  5 active torsions:
REMARK  status: ('A' for Active; 'I' for Inactive)
REMARK    1  A    between atoms: N_9  and  N_10
REMARK    2  A    between atoms: N_10  and  C_11
REMARK    3  A    between atoms: C_11  and  N_13
REMARK    4  A    between atoms: N_13  and  C_14
REMARK    5  A    between atoms: C_14  and  C_15
REMARK                            x       y       z     vdW  Elec       q    Type
REMARK                         _______ _______ _______ _____ _____    ______ ____
ROOT
ATOM      1  C   UNL     1      -0.017   1.381   0.010  0.00  0.00    +0.017 A 
ATOM      2  C   UNL     1       1.162   2.100   0.002  0.00  0.00    +0.025 A 
ATOM      3  C   UNL     1       2.384   1.437  -0.013  0.00  0.00    +0.043 A 
ATOM      4  C   UNL     1       2.399   0.036  -0.021  0.00  0.00    +0.029 A 
ATOM      5  C   UNL     1       1.207  -0.680  -0.014  0.00  0.00    +0.027 A 
ATOM      6  C   UNL     1       0.002  -0.004   0.002  0.00  0.00    +0.019 A 
ATOM      7 BR   UNL     1      -1.623  -0.971   0.012  0.00  0.00    -0.050 Br
ATOM      8  C   UNL     1       3.824  -0.366  -0.037  0.00  0.00    +0.153 C 
ATOM      9  N   UNL     1       4.310  -1.585  -0.049  0.00  0.00    -0.175 NA
ATOM     10  C   UNL     1       4.579   0.902  -0.037  0.00  0.00    +0.269 C 
ATOM     11  O   UNL     1       5.791   1.014  -0.049  0.00  0.00    -0.268 OA
ATOM     12  N   UNL     1       3.692   1.911  -0.024  0.00  0.00    -0.280 N 
ATOM     13  H   UNL     1       3.933   2.850  -0.021  0.00  0.00    +0.155 HD
ENDROOT
BRANCH   9  14
ATOM     14  N   UNL     1       5.696  -1.786  -0.063  0.00  0.00    -0.218 N 
ATOM     15  H   UNL     1       6.297  -1.025  -0.064  0.00  0.00    +0.176 HD
BRANCH  14  16
ATOM     16  C   UNL     1       6.195  -3.038  -0.075  0.00  0.00    +0.150 C 
ATOM     17  S   UNL     1       7.889  -3.285  -0.093  0.00  0.00    -0.017 S 
BRANCH  16  18
ATOM     18  N   UNL     1       5.360  -4.097  -0.074  0.00  0.00    -0.323 N 
ATOM     19  H   UNL     1       4.400  -3.957  -0.064  0.00  0.00    +0.148 HD
BRANCH  18  20
ATOM     20  C   UNL     1       5.903  -5.457  -0.087  0.00  0.00    +0.134 C 
BRANCH  20  21
ATOM     21  C   UNL     1       4.751  -6.465  -0.082  0.00  0.00    +0.135 C 
ATOM     22  C   UNL     1       5.312  -7.900   0.026  0.00  0.00    +0.035 C 
ATOM     23  C   UNL     1       4.380  -8.691  -0.932  0.00  0.00    +0.031 C 
ATOM     24  C   UNL     1       4.103  -7.623  -2.021  0.00  0.00    +0.160 C 
ATOM     25  O   UNL     1       4.021  -6.375  -1.311  0.00  0.00    -0.375 OA
ENDBRANCH  20  21
ENDBRANCH  18  20
ENDBRANCH  16  18
ENDBRANCH  14  16
ENDBRANCH   9  14
TORSDOF 5
