REMARK  Name = ZINC15602858
REMARK  3 active torsions:
REMARK  status: ('A' for Active; 'I' for Inactive)
REMARK    1  A    between atoms: C_4  and  C_7
REMARK    2  A    between atoms: N_14  and  N_17
REMARK    3  A    between atoms: C_18  and  C_20
REMARK                            x       y       z     vdW  Elec       q    Type
REMARK                         _______ _______ _______ _____ _____    ______ ____
ROOT
ATOM      1  C   UNL     1      -1.999  14.437  -2.108  0.00  0.00    +0.004 A 
ATOM      2  C   UNL     1      -2.041  15.767  -1.853  0.00  0.00    +0.056 A 
ATOM      3  S   UNL     1      -1.573  15.873  -0.136  0.00  0.00    -0.076 S 
ATOM      4  C   UNL     1      -1.334  14.146   0.196  0.00  0.00    +0.116 A 
ATOM      5  C   UNL     1      -1.623  13.528  -1.032  0.00  0.00    +0.081 A 
ATOM      6  C   UNL     1      -1.506  12.102  -1.050  0.00  0.00    +0.280 A 
ATOM      7  O   UNL     1      -1.737  11.475  -2.070  0.00  0.00    -0.265 OA
ATOM      8  N   UNL     1      -1.139  11.463   0.076  0.00  0.00    -0.212 N 
ATOM      9  C   UNL     1      -0.884  12.144   1.223  0.00  0.00    +0.223 A 
ATOM     10  N   UNL     1      -0.976  13.446   1.269  0.00  0.00    -0.228 NA
ENDROOT
BRANCH   1  14
ATOM     11  C   UNL     1      -2.947  12.943  -5.973  0.00  0.00    +0.000 A 
ATOM     12  C   UNL     1      -3.805  13.829  -5.348  0.00  0.00    +0.001 A 
ATOM     13  C   UNL     1      -3.503  14.318  -4.093  0.00  0.00    +0.008 A 
ATOM     14  C   UNL     1      -2.329  13.916  -3.456  0.00  0.00    -0.017 A 
ATOM     15  C   UNL     1      -1.466  13.026  -4.093  0.00  0.00    +0.008 A 
ATOM     16  C   UNL     1      -1.782  12.540  -5.345  0.00  0.00    +0.001 A 
ENDBRANCH   1  14
BRANCH   8  17
ATOM     17  N   UNL     1      -1.023  10.067   0.067  0.00  0.00    -0.214 N 
ATOM     18  C   UNL     1       0.196   9.492   0.053  0.00  0.00    +0.269 C 
ATOM     19  O   UNL     1       1.196  10.186   0.048  0.00  0.00    -0.268 OA
ATOM     20  H   UNL     1      -1.820   9.514   0.071  0.00  0.00    +0.176 HD
BRANCH  18  21
ATOM     21  C   UNL     1       0.317   8.032   0.043  0.00  0.00    +0.077 A 
ATOM     22  C   UNL     1       1.460   7.259   0.028  0.00  0.00    +0.036 A 
ATOM     23  C   UNL     1       1.341   5.877   0.022  0.00  0.00    +0.028 A 
ATOM     24  C   UNL     1       0.056   5.340   0.031  0.00  0.00    +0.035 A 
ATOM     25  S   UNL     1      -0.974   6.803   0.048  0.00  0.00    -0.082 S 
ATOM     26  C   UNL     1      -0.076   3.882   0.024  0.00  0.00    +0.004 A 
ATOM     27  C   UNL     1      -1.267   3.118   0.031  0.00  0.00    +0.010 A 
ATOM     28  C   UNL     1      -1.221   1.758   0.017  0.00  0.00    +0.001 A 
ATOM     29  C   UNL     1      -0.013   1.076   0.008  0.00  0.00    +0.001 A 
ATOM     30  C   UNL     1       1.171   1.788   0.001  0.00  0.00    +0.016 A 
ATOM     31  C   UNL     1       1.135   3.167   0.008  0.00  0.00    +0.021 A 
ATOM     32  S   UNL     1       2.385   4.424   0.004  0.00  0.00    -0.088 S 
ENDBRANCH  18  21
ENDBRANCH   8  17
TORSDOF 3
