REMARK  Name = ZINC41077214
REMARK  9 active torsions:
REMARK  status: ('A' for Active; 'I' for Inactive)
REMARK    1  A    between atoms: C_1  and  C_2
REMARK    2  A    between atoms: C_5  and  O_24
REMARK    3  A    between atoms: C_6  and  N_8
REMARK    4  A    between atoms: C_9  and  C_11
REMARK    5  A    between atoms: C_11  and  C_12
REMARK    6  A    between atoms: C_11  and  C_18
REMARK    7  A    between atoms: O_24  and  C_25
REMARK    8  A    between atoms: C_25  and  C_26
REMARK    9  A    between atoms: C_34  and  C_36
REMARK                            x       y       z     vdW  Elec       q    Type
REMARK                         _______ _______ _______ _____ _____    ______ ____
ROOT
ATOM      1  C   UNL     1      -0.258   1.453   0.024  0.00  0.00    +0.044 C 
ATOM      2  C   UNL     1      -0.223  -0.054   0.020  0.00  0.00    -0.048 A 
ATOM      3  C   UNL     1      -0.271  -0.742  -1.179  0.00  0.00    +0.007 A 
ATOM      4  C   UNL     1      -0.240  -2.124  -1.188  0.00  0.00    +0.048 A 
ATOM      5  C   UNL     1      -0.159  -2.824   0.005  0.00  0.00    +0.142 A 
ATOM      6  C   UNL     1      -0.110  -2.131   1.212  0.00  0.00    +0.076 A 
ATOM      7  C   UNL     1      -0.136  -0.744   1.214  0.00  0.00    +0.030 A 
ENDROOT
BRANCH   6   8
ATOM      8  N   UNL     1      -0.028  -2.834   2.422  0.00  0.00    -0.282 N 
ATOM      9  C   UNL     1       0.676  -2.323   3.452  0.00  0.00    +0.229 C 
ATOM     10  O   UNL     1       1.183  -1.226   3.354  0.00  0.00    -0.274 OA
ATOM     11  H   UNL     1      -0.478  -3.688   2.518  0.00  0.00    +0.155 HD
BRANCH   9  12
ATOM     12  C   UNL     1       0.834  -3.116   4.723  0.00  0.00    +0.135 C 
BRANCH  12  13
ATOM     13  C   UNL     1       1.526  -4.420   4.420  0.00  0.00    -0.031 A 
ATOM     14  C   UNL     1       2.537  -4.463   3.478  0.00  0.00    +0.005 A 
ATOM     15  C   UNL     1       3.172  -5.659   3.200  0.00  0.00    +0.000 A 
ATOM     16  C   UNL     1       2.796  -6.812   3.864  0.00  0.00    +0.000 A 
ATOM     17  C   UNL     1       1.786  -6.768   4.807  0.00  0.00    +0.000 A 
ATOM     18  C   UNL     1       1.154  -5.572   5.088  0.00  0.00    +0.005 A 
ENDBRANCH  12  13
BRANCH  12  19
ATOM     19  C   UNL     1       1.657  -2.327   5.708  0.00  0.00    -0.031 A 
ATOM     20  C   UNL     1       2.980  -2.037   5.428  0.00  0.00    +0.005 A 
ATOM     21  C   UNL     1       3.735  -1.314   6.332  0.00  0.00    +0.000 A 
ATOM     22  C   UNL     1       3.168  -0.879   7.515  0.00  0.00    +0.000 A 
ATOM     23  C   UNL     1       1.846  -1.169   7.795  0.00  0.00    +0.000 A 
ATOM     24  C   UNL     1       1.089  -1.889   6.890  0.00  0.00    +0.005 A 
ENDBRANCH  12  19
ENDBRANCH   9  12
ENDBRANCH   6   8
BRANCH   5  25
ATOM     25  O   UNL     1      -0.129  -4.183  -0.003  0.00  0.00    -0.484 OA
BRANCH  25  26
ATOM     26  C   UNL     1      -0.184  -4.826  -1.279  0.00  0.00    +0.284 C 
BRANCH  26  27
ATOM     27  C   UNL     1      -0.140  -6.320  -1.090  0.00  0.00    +0.086 A 
ATOM     28  C   UNL     1      -1.225  -7.092  -1.451  0.00  0.00    +0.100 A 
ATOM     29  C   UNL     1      -1.157  -8.481  -1.265  0.00  0.00    +0.287 A 
ATOM     30  O   UNL     1      -2.099  -9.196  -1.573  0.00  0.00    -0.265 OA
ATOM     31  N   UNL     1      -0.036  -9.012  -0.741  0.00  0.00    -0.119 N 
ATOM     32  C   UNL     1       1.008  -8.207  -0.401  0.00  0.00    +0.177 A 
ATOM     33  N   UNL     1       0.943  -6.892  -0.583  0.00  0.00    -0.228 NA
ATOM     34  C   UNL     1       2.022  -9.044   0.114  0.00  0.00    +0.093 A 
ATOM     35  C   UNL     1       1.582 -10.315   0.077  0.00  0.00    +0.134 A 
ATOM     36  O   UNL     1       0.343 -10.340  -0.432  0.00  0.00    -0.373 OA
ATOM     37  C   UNL     1       2.361 -11.521   0.536  0.00  0.00    +0.089 C 
ENDBRANCH  26  27
ENDBRANCH  25  26
ENDBRANCH   5  25
TORSDOF 7
