REMARK  Name = ZINC35486381
REMARK  15 active torsions:
REMARK  status: ('A' for Active; 'I' for Inactive)
REMARK    1  A    between atoms: C_1  and  C_2
REMARK    2  A    between atoms: C_2  and  C_3
REMARK    3  A    between atoms: C_3  and  C_4
REMARK    4  A    between atoms: C_4  and  O_5
REMARK    5  A    between atoms: O_5  and  C_6
REMARK    6  A    between atoms: C_9  and  C_14
REMARK    7  A    between atoms: C_11  and  O_12
REMARK    8  A    between atoms: O_12  and  C_13
REMARK    9  A    between atoms: N_29  and  C_30
REMARK   10  A    between atoms: C_30  and  C_31
REMARK   11  A    between atoms: C_31  and  N_32
REMARK   12  A    between atoms: N_32  and  C_33
REMARK   13  A    between atoms: N_32  and  C_35
REMARK   14  A    between atoms: C_33  and  C_34
REMARK   15  A    between atoms: C_35  and  C_36
REMARK                            x       y       z     vdW  Elec       q    Type
REMARK                         _______ _______ _______ _____ _____    ______ ____
ROOT
ATOM      1  C   UNL     1      -3.267  -8.301  -0.056  0.00  0.00    +0.145 C 
ATOM      2  C   UNL     1      -2.890  -8.836  -1.398  0.00  0.00    +0.072 A 
ATOM      3  C   UNL     1      -3.526  -8.688  -2.711  0.00  0.00    +0.199 A 
ATOM      4  O   UNL     1      -4.437  -7.908  -2.927  0.00  0.00    -0.287 OA
ATOM      5  C   UNL     1      -2.953  -9.577  -3.753  0.00  0.00    +0.067 A 
ATOM      6  C   UNL     1      -3.575  -9.700  -4.995  0.00  0.00    +0.053 A 
ATOM      7  C   UNL     1      -3.032 -10.535  -5.949  0.00  0.00    +0.124 A 
ATOM      8  C   UNL     1      -1.872 -11.248  -5.670  0.00  0.00    +0.042 A 
ATOM      9  C   UNL     1      -1.250 -11.133  -4.448  0.00  0.00    +0.050 A 
ATOM     10  C   UNL     1      -1.779 -10.292  -3.468  0.00  0.00    +0.140 A 
ATOM     11  O   UNL     1      -1.141 -10.190  -2.279  0.00  0.00    -0.450 OA
ATOM     12  C   UNL     1      -1.750  -9.573  -1.247  0.00  0.00    +0.199 A 
ATOM     13  C   UNL     1      -1.365  -9.543   0.175  0.00  0.00    +0.283 C 
ATOM     14  O   UNL     1      -0.395 -10.104   0.645  0.00  0.00    -0.267 OA
ATOM     15  N   UNL     1      -2.246  -8.801   0.879  0.00  0.00    -0.285 N 
ATOM     16  F   UNL     1      -3.628 -10.660  -7.155  0.00  0.00    -0.205 F 
ENDROOT
BRANCH   1  20
ATOM     17  C   UNL     1      -3.240  -4.025  -0.113  0.00  0.00    +0.162 A 
ATOM     18  C   UNL     1      -2.048  -4.727  -0.035  0.00  0.00    +0.050 A 
ATOM     19  C   UNL     1      -2.060  -6.109  -0.017  0.00  0.00    +0.009 A 
ATOM     20  C   UNL     1      -3.260  -6.794  -0.076  0.00  0.00    -0.019 A 
ATOM     21  C   UNL     1      -4.452  -6.099  -0.154  0.00  0.00    +0.055 A 
ATOM     22  C   UNL     1      -4.448  -4.714  -0.167  0.00  0.00    +0.162 A 
BRANCH  22  23
ATOM     23  O   UNL     1      -5.620  -4.029  -0.237  0.00  0.00    -0.491 OA
ATOM     24  C   UNL     1      -6.821  -4.802  -0.290  0.00  0.00    +0.277 C 
ENDBRANCH  22  23
BRANCH  17  25
ATOM     25  O   UNL     1      -3.230  -2.665  -0.131  0.00  0.00    -0.488 OA
BRANCH  25  26
ATOM     26  C   UNL     1      -1.953  -2.025  -0.072  0.00  0.00    +0.229 C 
BRANCH  26  27
ATOM     27  C   UNL     1      -2.142  -0.507  -0.103  0.00  0.00    +0.041 C 
BRANCH  27  29
ATOM     28  C   UNL     1      -0.964   1.696  -0.071  0.00  0.00    +0.004 C 
ATOM     29  C   UNL     1      -0.775   0.178  -0.041  0.00  0.00    -0.000 C 
ENDBRANCH  27  29
ENDBRANCH  26  27
ENDBRANCH  25  26
ENDBRANCH  17  25
ENDBRANCH   1  20
BRANCH  15  30
ATOM     30  C   UNL     1      -2.196  -8.540   2.320  0.00  0.00    +0.090 C 
BRANCH  30  31
ATOM     31  C   UNL     1      -2.977  -9.625   3.063  0.00  0.00    -0.060 C 
BRANCH  31  32
ATOM     32  N   UNL     1      -2.819  -9.438   4.511  0.00  0.00    +0.380 N 
ATOM     33  H   UNL     1      -1.837  -9.405   4.741  0.00  0.00    -0.082 HD
BRANCH  32  34
ATOM     34  C   UNL     1      -3.457  -8.178   4.915  0.00  0.00    -0.082 C 
ATOM     35  C   UNL     1      -3.186  -7.920   6.398  0.00  0.00    -0.017 C 
ENDBRANCH  32  34
BRANCH  32  36
ATOM     36  C   UNL     1      -3.452 -10.557   5.222  0.00  0.00    -0.082 C 
ATOM     37  C   UNL     1      -2.696 -11.850   4.912  0.00  0.00    -0.017 C 
ENDBRANCH  32  36
ENDBRANCH  31  32
ENDBRANCH  30  31
ENDBRANCH  15  30
TORSDOF 11
