REMARK  Name = ZINC39913323
REMARK  10 active torsions:
REMARK  status: ('A' for Active; 'I' for Inactive)
REMARK    1  A    between atoms: C_1  and  C_2
REMARK    2  A    between atoms: C_2  and  C_3
REMARK    3  A    between atoms: C_3  and  C_4
REMARK    4  A    between atoms: C_4  and  C_5
REMARK    5  A    between atoms: C_5  and  N_6
REMARK    6  A    between atoms: C_7  and  C_24
REMARK    7  A    between atoms: C_15  and  C_22
REMARK    8  A    between atoms: C_26  and  O_32
REMARK    9  A    between atoms: C_27  and  O_31
REMARK   10  A    between atoms: O_32  and  C_33
REMARK                            x       y       z     vdW  Elec       q    Type
REMARK                         _______ _______ _______ _____ _____    ______ ____
ROOT
ATOM      1  N   UNL     1       1.523  -4.012   2.465  0.00  0.00    -0.284 N 
ATOM      2  C   UNL     1       0.506  -4.894   3.060  0.00  0.00    +0.145 C 
ATOM      3  C   UNL     1       0.970  -6.289   2.795  0.00  0.00    +0.072 A 
ATOM      4  C   UNL     1       0.386  -7.586   3.151  0.00  0.00    +0.199 A 
ATOM      5  O   UNL     1      -0.735  -7.709   3.611  0.00  0.00    -0.287 OA
ATOM      6  C   UNL     1       1.291  -8.736   2.896  0.00  0.00    +0.066 A 
ATOM      7  C   UNL     1       0.963 -10.008   3.363  0.00  0.00    +0.035 A 
ATOM      8  C   UNL     1       1.818 -11.062   3.122  0.00  0.00    +0.045 A 
ATOM      9  C   UNL     1       2.998 -10.855   2.418  0.00  0.00    -0.029 A 
ATOM     10  C   UNL     1       3.329  -9.603   1.952  0.00  0.00    +0.051 A 
ATOM     11  C   UNL     1       2.480  -8.521   2.180  0.00  0.00    +0.140 A 
ATOM     12  O   UNL     1       2.826  -7.304   1.702  0.00  0.00    -0.450 OA
ATOM     13  C   UNL     1       2.146  -6.212   2.103  0.00  0.00    +0.199 A 
ATOM     14  C   UNL     1       2.473  -4.789   1.905  0.00  0.00    +0.283 C 
ATOM     15  O   UNL     1       3.457  -4.375   1.325  0.00  0.00    -0.267 OA
ATOM     16  C   UNL     1       3.926 -12.014   2.164  0.00  0.00    +0.045 C 
ATOM     17 CL   UNL     1       1.419 -12.651   3.698  0.00  0.00    -0.083 Cl
ENDROOT
BRANCH   2  18
ATOM     18  C   UNL     1      -0.833  -4.658   2.409  0.00  0.00    -0.018 A 
ATOM     19  C   UNL     1      -1.981  -4.643   3.179  0.00  0.00    +0.055 A 
ATOM     20  C   UNL     1      -3.213  -4.426   2.583  0.00  0.00    +0.163 A 
ATOM     21  C   UNL     1      -3.291  -4.223   1.209  0.00  0.00    +0.173 A 
ATOM     22  C   UNL     1      -2.136  -4.238   0.442  0.00  0.00    +0.063 A 
ATOM     23  C   UNL     1      -0.909  -4.451   1.045  0.00  0.00    +0.025 A 
ATOM     24 BR   UNL     1      -2.237  -3.962  -1.426  0.00  0.00    -0.046 Br
BRANCH  21  25
ATOM     25  O   UNL     1      -4.498  -4.009   0.619  0.00  0.00    -0.503 OA
ATOM     26  H   UNL     1      -4.754  -3.078   0.572  0.00  0.00    +0.292 HD
ENDBRANCH  21  25
BRANCH  20  27
ATOM     27  O   UNL     1      -4.343  -4.412   3.339  0.00  0.00    -0.491 OA
ATOM     28  C   UNL     1      -4.187  -4.629   4.743  0.00  0.00    +0.277 C 
ENDBRANCH  20  27
ENDBRANCH   2  18
BRANCH   1  29
ATOM     29  C   UNL     1       1.503  -2.548   2.473  0.00  0.00    +0.109 C 
BRANCH  29  30
ATOM     30  C   UNL     1       0.763  -2.041   1.233  0.00  0.00    +0.019 C 
BRANCH  30  31
ATOM     31  C   UNL     1       0.742  -0.511   1.242  0.00  0.00    +0.001 C 
BRANCH  31  33
ATOM     32  C   UNL     1      -0.019   1.526   0.010  0.00  0.00    +0.004 C 
ATOM     33  C   UNL     1       0.002  -0.004   0.002  0.00  0.00    -0.003 C 
ENDBRANCH  31  33
ENDBRANCH  30  31
ENDBRANCH  29  30
ENDBRANCH   1  29
TORSDOF 7
