REMARK  Name = ZINC30578301
REMARK  11 active torsions:
REMARK  status: ('A' for Active; 'I' for Inactive)
REMARK    1  A    between atoms: C_1  and  C_2
REMARK    2  A    between atoms: C_5  and  N_33
REMARK    3  A    between atoms: C_7  and  S_8
REMARK    4  A    between atoms: S_8  and  N_11
REMARK    5  A    between atoms: N_14  and  C_17
REMARK    6  A    between atoms: C_17  and  C_18
REMARK    7  A    between atoms: N_20  and  C_21
REMARK    8  A    between atoms: C_21  and  C_23
REMARK    9  A    between atoms: C_21  and  C_30
REMARK   10  A    between atoms: C_30  and  C_31
REMARK   11  A    between atoms: C_30  and  C_32
REMARK                            x       y       z     vdW  Elec       q    Type
REMARK                         _______ _______ _______ _____ _____    ______ ____
ROOT
ATOM      1  N   UNL     1       0.570   6.638   7.218  0.00  0.00    -0.180 NA
ATOM      2  C   UNL     1      -0.816   6.653   6.725  0.00  0.00    +0.091 C 
ATOM      3  C   UNL     1      -1.292   5.204   6.569  0.00  0.00    -0.061 C 
ATOM      4  N   UNL     1      -0.340   4.468   5.726  0.00  0.00    +0.387 N 
ATOM      5  C   UNL     1       0.985   4.396   6.356  0.00  0.00    -0.061 C 
ATOM      6  C   UNL     1       1.554   5.811   6.503  0.00  0.00    +0.091 C 
ATOM      7  H   UNL     1      -0.232   5.021   4.782  0.00  0.00    -0.081 HD
ENDROOT
BRANCH   1   8
ATOM      8  S   UNL     1       1.011   7.530   8.541  0.00  0.00    +0.061 S 
ATOM      9  O   UNL     1       2.372   7.894   8.352  0.00  0.00    -0.153 OA
ATOM     10  O   UNL     1      -0.014   8.494   8.742  0.00  0.00    -0.153 OA
BRANCH   8  17
ATOM     11  C   UNL     1      -1.516   6.302   9.661  0.00  0.00    +0.046 C 
ATOM     12  C   UNL     1      -0.239   5.939  10.373  0.00  0.00    -0.024 A 
ATOM     13  C   UNL     1      -0.273   5.093  11.466  0.00  0.00    +0.007 A 
ATOM     14  C   UNL     1       0.899   4.759  12.119  0.00  0.00    +0.033 A 
ATOM     15  C   UNL     1       2.105   5.271  11.679  0.00  0.00    +0.128 A 
ATOM     16  C   UNL     1       2.140   6.114  10.584  0.00  0.00    +0.061 A 
ATOM     17  C   UNL     1       0.967   6.452   9.934  0.00  0.00    +0.111 A 
BRANCH  15  18
ATOM     18  N   UNL     1       3.360   4.914  12.378  0.00  0.00    +0.056 N 
ATOM     19  O   UNL     1       3.330   4.168  13.340  0.00  0.00    -0.126 OA
ATOM     20  O   UNL     1       4.423   5.365  11.990  0.00  0.00    -0.126 OA
ENDBRANCH  15  18
ENDBRANCH   8  17
ENDBRANCH   1   8
BRANCH   4  21
ATOM     21  C   UNL     1      -0.847   3.125   5.411  0.00  0.00    +0.019 C 
BRANCH  21  22
ATOM     22  C   UNL     1       0.026   2.494   4.356  0.00  0.00    +0.197 C 
ATOM     23  O   UNL     1       0.976   3.103   3.912  0.00  0.00    -0.278 OA
ATOM     24  N   UNL     1      -0.250   1.254   3.908  0.00  0.00    -0.310 N 
ATOM     25  H   UNL     1      -1.111   0.702   4.311  0.00  0.00    +0.149 HD
BRANCH  24  26
ATOM     26  C   UNL     1       0.598   0.640   2.883  0.00  0.00    +0.106 C 
BRANCH  26  27
ATOM     27  C   UNL     1       0.505  -0.860   2.985  0.00  0.00    -0.027 A 
ATOM     28  C   UNL     1      -0.713  -1.460   3.249  0.00  0.00    +0.008 A 
ATOM     29  C   UNL     1      -0.801  -2.836   3.337  0.00  0.00    +0.038 A 
ATOM     30  C   UNL     1       0.333  -3.614   3.174  0.00  0.00    +0.123 A 
ATOM     31  C   UNL     1       1.553  -3.012   2.915  0.00  0.00    +0.038 A 
ATOM     32  C   UNL     1       1.637  -1.636   2.821  0.00  0.00    +0.008 A 
ATOM     33  F   UNL     1       0.249  -4.959   3.267  0.00  0.00    -0.205 F 
ENDBRANCH  26  27
BRANCH  26  34
ATOM     34  C   UNL     1       0.128   1.087   1.497  0.00  0.00    +0.008 C 
ATOM     35  C   UNL     1       1.014   0.447   0.426  0.00  0.00    +0.009 C 
ATOM     36  C   UNL     1       0.223   2.611   1.393  0.00  0.00    +0.009 C 
ENDBRANCH  26  34
ENDBRANCH  24  26
ENDBRANCH  21  22
ENDBRANCH   4  21
TORSDOF 8
