REMARK  Name = ZINC28306178
REMARK  5 active torsions:
REMARK  status: ('A' for Active; 'I' for Inactive)
REMARK    1  A    between atoms: C_4  and  N_7
REMARK    2  A    between atoms: N_9  and  C_28
REMARK    3  A    between atoms: C_12  and  C_15
REMARK    4  A    between atoms: C_15  and  C_16
REMARK    5  A    between atoms: N_18  and  C_19
REMARK                            x       y       z     vdW  Elec       q    Type
REMARK                         _______ _______ _______ _____ _____    ______ ____
ROOT
ATOM      1  N   UNL     1       0.506  -4.950  -3.292  0.00  0.00    -0.226 NA
ATOM      2  C   UNL     1       0.679  -4.199  -2.229  0.00  0.00    +0.164 C 
ATOM      3  N   UNL     1       1.757  -4.175  -1.370  0.00  0.00    -0.247 N 
ATOM      4  C   UNL     1       1.812  -3.365  -0.327  0.00  0.00    +0.235 C 
ATOM      5  O   UNL     1       2.763  -3.348   0.426  0.00  0.00    -0.274 OA
ATOM      6  C   UNL     1       0.608  -2.458  -0.129  0.00  0.00    +0.149 C 
ATOM      7  S   UNL     1      -0.428  -2.969  -1.556  0.00  0.00    -0.077 S 
ENDROOT
BRANCH   1  11
ATOM      8  C   UNL     1      -2.960  -4.606  -5.527  0.00  0.00    +0.000 A 
ATOM      9  C   UNL     1      -1.733  -4.670  -6.164  0.00  0.00    +0.002 A 
ATOM     10  C   UNL     1      -0.574  -4.785  -5.425  0.00  0.00    +0.028 A 
ATOM     11  C   UNL     1      -0.641  -4.836  -4.032  0.00  0.00    +0.067 A 
ATOM     12  C   UNL     1      -1.882  -4.777  -3.396  0.00  0.00    +0.028 A 
ATOM     13  C   UNL     1      -3.033  -4.656  -4.146  0.00  0.00    +0.002 A 
ENDBRANCH   1  11
BRANCH   3  14
ATOM     14  C   UNL     1       2.883  -5.077  -1.624  0.00  0.00    +0.084 C 
ATOM     15  C   UNL     1       2.973  -5.723  -3.008  0.00  0.00    +0.025 C 
ATOM     16  C   UNL     1       2.571  -6.565  -1.796  0.00  0.00    +0.025 C 
ENDBRANCH   3  14
BRANCH   6  17
ATOM     17  C   UNL     1       1.003  -0.984  -0.229  0.00  0.00    +0.120 C 
BRANCH  17  18
ATOM     18  C   UNL     1      -0.227  -0.124  -0.091  0.00  0.00    +0.219 C 
ATOM     19  O   UNL     1      -1.312  -0.640   0.072  0.00  0.00    -0.275 OA
ATOM     20  N   UNL     1      -0.120   1.219  -0.148  0.00  0.00    -0.284 N 
ATOM     21  H   UNL     1       0.872   1.690  -0.212  0.00  0.00    +0.155 HD
BRANCH  20  22
ATOM     22  C   UNL     1      -1.273   2.014  -0.128  0.00  0.00    +0.053 A 
ATOM     23  C   UNL     1      -2.378   1.618   0.614  0.00  0.00    +0.046 A 
ATOM     24  C   UNL     1      -3.512   2.407   0.637  0.00  0.00    +0.061 A 
ATOM     25  C   UNL     1      -3.551   3.587  -0.088  0.00  0.00    +0.061 A 
ATOM     26  C   UNL     1      -2.454   3.981  -0.832  0.00  0.00    +0.043 A 
ATOM     27  C   UNL     1      -1.315   3.197  -0.854  0.00  0.00    +0.064 A 
ATOM     28 CL   UNL     1       0.062   3.693  -1.788  0.00  0.00    -0.082 Cl
ATOM     29 CL   UNL     1      -4.980   4.572  -0.063  0.00  0.00    -0.082 Cl
ATOM     30 CL   UNL     1      -4.891   1.916   1.570  0.00  0.00    -0.082 Cl
ENDBRANCH  20  22
ENDBRANCH  17  18
ENDBRANCH   6  17
TORSDOF 5
