REMARK  Name = ZINC40487505
REMARK  8 active torsions:
REMARK  status: ('A' for Active; 'I' for Inactive)
REMARK    1  A    between atoms: C_1  and  C_2
REMARK    2  A    between atoms: C_2  and  C_3
REMARK    3  A    between atoms: C_2  and  N_4
REMARK    4  A    between atoms: N_4  and  S_5
REMARK    5  A    between atoms: S_5  and  C_8
REMARK    6  A    between atoms: C_11  and  C_14
REMARK    7  A    between atoms: C_17  and  C_34
REMARK    8  A    between atoms: C_25  and  C_26
REMARK                            x       y       z     vdW  Elec       q    Type
REMARK                         _______ _______ _______ _____ _____    ______ ____
ROOT
ATOM      1  C   UNL     1       1.526  -5.587   2.384  0.00  0.00    +0.266 C 
ATOM      2  O   UNL     1       1.416  -4.655   1.610  0.00  0.00    -0.268 OA
ATOM      3  N   UNL     1       1.781  -6.825   1.915  0.00  0.00    -0.181 N 
ATOM      4  C   UNL     1       1.794  -8.075   2.709  0.00  0.00    +0.140 C 
ATOM      5  C   UNL     1       2.664  -8.991   1.831  0.00  0.00    +0.066 C 
ATOM      6  C   UNL     1       2.091 -10.407   1.750  0.00  0.00    +0.012 C 
ATOM      7  C   UNL     1       2.905 -11.193   0.724  0.00  0.00    +0.005 C 
ATOM      8  C   UNL     1       2.804 -10.632  -0.680  0.00  0.00    +0.037 C 
ATOM      9  C   UNL     1       2.658  -9.141  -0.737  0.00  0.00    -0.024 C 
ATOM     10  C   UNL     1       2.693  -8.514  -1.931  0.00  0.00    +0.013 C 
ATOM     11  C   UNL     1       2.494  -8.374   0.448  0.00  0.00    +0.068 C 
ATOM     12  N   UNL     1       2.076  -7.162   0.589  0.00  0.00    -0.181 NA
ENDROOT
BRANCH   1  16
ATOM     13  C   UNL     1       1.104  -4.943   6.560  0.00  0.00    +0.105 A 
ATOM     14  C   UNL     1       1.337  -3.870   5.718  0.00  0.00    +0.029 A 
ATOM     15  C   UNL     1       1.475  -4.072   4.360  0.00  0.00    +0.015 A 
ATOM     16  C   UNL     1       1.379  -5.363   3.837  0.00  0.00    +0.039 A 
ATOM     17  C   UNL     1       1.145  -6.441   4.692  0.00  0.00    +0.015 A 
ATOM     18  C   UNL     1       1.014  -6.225   6.049  0.00  0.00    +0.029 A 
BRANCH  13  19
ATOM     19  S   UNL     1       0.928  -4.675   8.293  0.00  0.00    +0.059 S 
ATOM     20  O   UNL     1       0.180  -5.772   8.799  0.00  0.00    -0.153 OA
ATOM     21  O   UNL     1       0.509  -3.327   8.455  0.00  0.00    -0.153 OA
BRANCH  19  22
ATOM     22  N   UNL     1       2.439  -4.785   8.961  0.00  0.00    -0.187 NA
ATOM     23  H   UNL     1       2.644  -5.501   9.583  0.00  0.00    +0.148 HD
BRANCH  22  25
ATOM     24  C   UNL     1       3.483  -2.687   9.661  0.00  0.00    +0.025 C 
ATOM     25  C   UNL     1       3.467  -3.801   8.613  0.00  0.00    +0.070 C 
ATOM     26  C   UNL     1       4.835  -4.484   8.574  0.00  0.00    +0.025 C 
ENDBRANCH  22  25
ENDBRANCH  19  22
ENDBRANCH  13  19
ENDBRANCH   1  16
BRANCH  10  27
ATOM     27  C   UNL     1       2.745  -7.044  -1.988  0.00  0.00    -0.025 A 
ATOM     28  C   UNL     1       3.518  -6.331  -1.067  0.00  0.00    +0.008 A 
ATOM     29  C   UNL     1       3.562  -4.954  -1.127  0.00  0.00    +0.001 A 
ATOM     30  C   UNL     1       2.842  -4.278  -2.097  0.00  0.00    +0.000 A 
ATOM     31  C   UNL     1       2.074  -4.976  -3.012  0.00  0.00    +0.001 A 
ATOM     32  C   UNL     1       2.025  -6.353  -2.968  0.00  0.00    +0.008 A 
ENDBRANCH  10  27
BRANCH   4  33
ATOM     33  C   UNL     1       0.402  -8.633   2.860  0.00  0.00    -0.024 A 
ATOM     34  C   UNL     1      -0.484  -8.577   1.800  0.00  0.00    +0.005 A 
ATOM     35  C   UNL     1      -1.760  -9.088   1.938  0.00  0.00    +0.000 A 
ATOM     36  C   UNL     1      -2.151  -9.657   3.135  0.00  0.00    +0.000 A 
ATOM     37  C   UNL     1      -1.266  -9.714   4.195  0.00  0.00    +0.000 A 
ATOM     38  C   UNL     1       0.012  -9.206   4.056  0.00  0.00    +0.005 A 
ENDBRANCH   4  33
TORSDOF 6
