REMARK  Name = ZINC63139571
REMARK  8 active torsions:
REMARK  status: ('A' for Active; 'I' for Inactive)
REMARK    1  A    between atoms: C_1  and  C_2
REMARK    2  A    between atoms: C_2  and  C_3
REMARK    3  A    between atoms: C_2  and  C_4
REMARK    4  A    between atoms: C_7  and  C_10
REMARK    5  A    between atoms: N_29  and  C_32
REMARK    6  A    between atoms: C_32  and  C_33
REMARK    7  A    between atoms: C_38  and  O_39
REMARK    8  A    between atoms: O_39  and  C_40
REMARK                            x       y       z     vdW  Elec       q    Type
REMARK                         _______ _______ _______ _____ _____    ______ ____
ROOT
ATOM      1  C   UNL     1      -5.419  -2.005   0.043  0.00  0.00    +0.133 C 
ATOM      2  C   UNL     1      -5.419  -3.495   0.393  0.00  0.00    +0.131 C 
ATOM      3  C   UNL     1      -4.814  -4.226  -0.799  0.00  0.00    -0.034 C 
ATOM      4  C   UNL     1      -3.794  -4.934  -0.327  0.00  0.00    -0.001 A 
ATOM      5  C   UNL     1      -2.880  -5.887  -0.977  0.00  0.00    +0.010 A 
ATOM      6  C   UNL     1      -1.921  -6.433  -0.183  0.00  0.00    +0.001 A 
ATOM      7  C   UNL     1      -1.781  -6.130   1.175  0.00  0.00    +0.002 A 
ATOM      8  C   UNL     1      -2.581  -5.269   1.855  0.00  0.00    +0.026 A 
ATOM      9  C   UNL     1      -3.630  -4.635   1.128  0.00  0.00    +0.043 A 
ATOM     10  N   UNL     1      -4.556  -3.788   1.539  0.00  0.00    -0.375 N 
ATOM     11  C   UNL     1      -5.318  -4.029  -2.208  0.00  0.00    +0.065 C 
ATOM     12  C   UNL     1      -5.383  -2.509  -2.443  0.00  0.00    +0.167 C 
ATOM     13  N   UNL     1      -6.019  -1.857  -1.302  0.00  0.00    -0.279 N 
ATOM     14  C   UNL     1      -7.134  -1.126  -1.414  0.00  0.00    +0.234 C 
ATOM     15  O   UNL     1      -7.595  -0.642  -0.401  0.00  0.00    -0.274 OA
ATOM     16  C   UNL     1      -7.851  -0.862  -2.696  0.00  0.00    +0.204 C 
ATOM     17  N   UNL     1      -7.194  -1.488  -3.832  0.00  0.00    -0.287 N 
ATOM     18  C   UNL     1      -6.088  -2.230  -3.729  0.00  0.00    +0.237 C 
ATOM     19  O   UNL     1      -5.626  -2.705  -4.745  0.00  0.00    -0.274 OA
ATOM     20  H   UNL     1      -4.651  -3.418   2.430  0.00  0.00    +0.160 HD
ENDROOT
BRANCH   1  24
ATOM     21  C   UNL     1      -1.412  -0.525   0.013  0.00  0.00    -0.045 A 
ATOM     22  C   UNL     1      -2.348   0.032   0.865  0.00  0.00    +0.004 A 
ATOM     23  C   UNL     1      -3.645  -0.447   0.874  0.00  0.00    +0.006 A 
ATOM     24  C   UNL     1      -4.006  -1.482   0.032  0.00  0.00    -0.025 A 
ATOM     25  C   UNL     1      -3.070  -2.038  -0.820  0.00  0.00    +0.006 A 
ATOM     26  C   UNL     1      -1.774  -1.557  -0.833  0.00  0.00    +0.004 A 
BRANCH  21  28
ATOM     27  C   UNL     1      -0.005   1.481  -0.367  0.00  0.00    +0.012 C 
ATOM     28  C   UNL     1       0.002  -0.004   0.003  0.00  0.00    +0.013 C 
ATOM     29  C   UNL     1       0.621  -0.180   1.391  0.00  0.00    +0.012 C 
ENDBRANCH  21  28
ENDBRANCH   1  24
BRANCH  17  30
ATOM     30  C   UNL     1      -7.778  -1.296  -5.161  0.00  0.00    +0.147 C 
BRANCH  30  31
ATOM     31  C   UNL     1      -7.183  -0.067  -5.799  0.00  0.00    +0.011 A 
ATOM     32  C   UNL     1      -7.881   1.126  -5.784  0.00  0.00    +0.009 A 
ATOM     33  C   UNL     1      -7.336   2.254  -6.369  0.00  0.00    +0.001 A 
ATOM     34  C   UNL     1      -6.092   2.192  -6.970  0.00  0.00    +0.004 A 
ATOM     35  C   UNL     1      -5.390   1.002  -6.987  0.00  0.00    +0.046 A 
ATOM     36  C   UNL     1      -5.933  -0.130  -6.396  0.00  0.00    +0.125 A 
BRANCH  36  37
ATOM     37  O   UNL     1      -5.242  -1.300  -6.406  0.00  0.00    -0.495 OA
ATOM     38  C   UNL     1      -3.960  -1.292  -7.038  0.00  0.00    +0.277 C 
ENDBRANCH  36  37
ENDBRANCH  30  31
ENDBRANCH  17  30
TORSDOF 5
