REMARK  Name = ZINC25142947
REMARK  14 active torsions:
REMARK  status: ('A' for Active; 'I' for Inactive)
REMARK    1  A    between atoms: C_1  and  C_2
REMARK    2  A    between atoms: C_2  and  N_3
REMARK    3  A    between atoms: N_3  and  C_4
REMARK    4  A    between atoms: C_4  and  C_5
REMARK    5  A    between atoms: C_6  and  O_8
REMARK    6  A    between atoms: O_8  and  C_9
REMARK    7  A    between atoms: C_14  and  N_15
REMARK    8  A    between atoms: C_16  and  C_18
REMARK    9  A    between atoms: C_21  and  C_28
REMARK   10  A    between atoms: C_22  and  C_23
REMARK   11  A    between atoms: C_22  and  C_24
REMARK   12  A    between atoms: N_31  and  C_32
REMARK   13  A    between atoms: C_32  and  C_33
REMARK   14  A    between atoms: C_36  and  C_39
REMARK                            x       y       z     vdW  Elec       q    Type
REMARK                         _______ _______ _______ _____ _____    ______ ____
ROOT
ATOM      1  C   UNL     1       1.041   0.215   6.170  0.00  0.00    +0.155 A 
ATOM      2  C   UNL     1       1.268  -0.109   7.503  0.00  0.00    +0.050 A 
ATOM      3  C   UNL     1       1.225  -1.420   7.925  0.00  0.00    +0.030 A 
ATOM      4  C   UNL     1       0.944  -2.437   7.018  0.00  0.00    +0.051 A 
ATOM      5  C   UNL     1       0.706  -2.117   5.670  0.00  0.00    +0.025 A 
ATOM      6  C   UNL     1       0.754  -0.781   5.249  0.00  0.00    +0.086 A 
ATOM      7  C   UNL     1       0.446  -3.388   4.990  0.00  0.00    +0.029 A 
ATOM      8  C   UNL     1       0.536  -4.355   5.917  0.00  0.00    +0.087 A 
ATOM      9  N   UNL     1       0.833  -3.806   7.136  0.00  0.00    -0.342 N 
ENDROOT
BRANCH   6  10
ATOM     10  N   UNL     1       0.518  -0.456   3.908  0.00  0.00    -0.279 N 
ATOM     11  C   UNL     1      -0.430   0.448   3.591  0.00  0.00    +0.262 C 
ATOM     12  O   UNL     1      -1.001   1.062   4.468  0.00  0.00    -0.271 OA
ATOM     13  H   UNL     1       1.107  -0.938   3.114  0.00  0.00    +0.155 HD
BRANCH  11  14
ATOM     14  C   UNL     1      -0.780   0.697   2.146  0.00  0.00    +0.195 C 
ATOM     15  C   UNL     1       0.087   1.762   1.405  0.00  0.00    +0.059 C 
ATOM     16  C   UNL     1      -0.752   2.120   0.154  0.00  0.00    +0.023 C 
ATOM     17  C   UNL     1      -2.016   1.212   0.287  0.00  0.00    +0.074 C 
ATOM     18  C   UNL     1      -2.223   1.240   1.845  0.00  0.00    +0.029 C 
ATOM     19  C   UNL     1      -2.439   2.656   2.382  0.00  0.00    +0.016 C 
ATOM     20  C   UNL     1      -3.318   0.276   2.307  0.00  0.00    +0.016 C 
ATOM     21  C   UNL     1      -1.458  -0.212   0.142  0.00  0.00    +0.315 C 
ATOM     22  O   UNL     1      -1.625  -0.953  -0.797  0.00  0.00    -0.250 OA
ATOM     23  O   UNL     1      -0.747  -0.483   1.258  0.00  0.00    -0.448 OA
ATOM     24  C   UNL     1      -3.212   1.573  -0.596  0.00  0.00    +0.023 C 
ENDBRANCH  11  14
ENDBRANCH   6  10
BRANCH   1  25
ATOM     25  O   UNL     1       1.095   1.514   5.769  0.00  0.00    -0.409 OA
BRANCH  25  27
ATOM     26  N   UNL     1       2.424   3.261   4.979  0.00  0.00    -0.268 N 
ATOM     27  C   UNL     1       2.274   1.960   5.295  0.00  0.00    +0.408 C 
ATOM     28  O   UNL     1       3.202   1.188   5.152  0.00  0.00    -0.226 OA
BRANCH  26  30
ATOM     29  C   UNL     1       1.599   4.880   6.617  0.00  0.00    +0.024 C 
ATOM     30  C   UNL     1       1.347   4.213   5.262  0.00  0.00    +0.108 C 
ENDBRANCH  26  30
BRANCH  26  31
ATOM     31  C   UNL     1       3.665   3.724   4.352  0.00  0.00    +0.108 C 
ATOM     32  C   UNL     1       3.511   3.688   2.830  0.00  0.00    +0.024 C 
ENDBRANCH  26  31
ENDBRANCH  25  27
ENDBRANCH   1  25
BRANCH   9  33
ATOM     33  C   UNL     1       1.007  -4.561   8.379  0.00  0.00    +0.157 C 
BRANCH  33  34
ATOM     34  C   UNL     1      -0.292  -4.577   9.143  0.00  0.00    -0.028 A 
ATOM     35  C   UNL     1      -0.566  -3.582  10.062  0.00  0.00    +0.005 A 
ATOM     36  C   UNL     1      -1.760  -3.595  10.760  0.00  0.00    +0.004 A 
ATOM     37  C   UNL     1      -2.675  -4.608  10.544  0.00  0.00    -0.050 A 
ATOM     38  C   UNL     1      -2.399  -5.606   9.628  0.00  0.00    +0.004 A 
ATOM     39  C   UNL     1      -1.208  -5.590   8.927  0.00  0.00    +0.005 A 
ATOM     40  C   UNL     1      -3.975  -4.625  11.307  0.00  0.00    +0.044 C 
ENDBRANCH  33  34
ENDBRANCH   9  33
TORSDOF 8
