REMARK  Name = ZINC39453713
REMARK  2 active torsions:
REMARK  status: ('A' for Active; 'I' for Inactive)
REMARK    1  A    between atoms: C_4  and  C_7
REMARK    2  A    between atoms: C_7  and  C_8
REMARK                            x       y       z     vdW  Elec       q    Type
REMARK                         _______ _______ _______ _____ _____    ______ ____
ROOT
ATOM      1  C   UNL     1       4.164  -0.959   1.377  0.00  0.00    -0.034 A 
ATOM      2  C   UNL     1       5.022  -0.096   1.988  0.00  0.00    +0.004 A 
ATOM      3  C   UNL     1       5.457  -0.304   3.294  0.00  0.00    +0.002 A 
ATOM      4  C   UNL     1       5.049  -1.377   4.024  0.00  0.00    +0.028 A 
ATOM      5  C   UNL     1       4.162  -2.309   3.452  0.00  0.00    +0.072 A 
ATOM      6  C   UNL     1       3.701  -2.084   2.080  0.00  0.00    +0.005 A 
ATOM      7  C   UNL     1       2.812  -3.004   1.503  0.00  0.00    +0.025 A 
ATOM      8  C   UNL     1       2.413  -4.086   2.273  0.00  0.00    +0.068 A 
ATOM      9  C   UNL     1       2.897  -4.241   3.599  0.00  0.00    +0.100 A 
ATOM     10  N   UNL     1       3.740  -3.375   4.131  0.00  0.00    -0.245 NA
ATOM     11  C   UNL     1       2.443  -5.413   4.367  0.00  0.00    +0.084 A 
ATOM     12  C   UNL     1       1.568  -6.314   3.795  0.00  0.00    +0.122 A 
ATOM     13  N   UNL     1       1.108  -6.138   2.494  0.00  0.00    -0.237 N 
ATOM     14  C   UNL     1       1.483  -5.093   1.736  0.00  0.00    +0.271 A 
ATOM     15  O   UNL     1       1.053  -4.980   0.603  0.00  0.00    -0.266 OA
ATOM     16 BR   UNL     1      -0.060  -7.385   1.784  0.00  0.00    +0.058 Br
ATOM     17  C   UNL     1       1.126  -7.433   4.538  0.00  0.00    +0.186 C 
ATOM     18  O   UNL     1       0.395  -8.251   4.016  0.00  0.00    -0.290 OA
ATOM     19  C   UNL     1       1.553  -7.621   5.970  0.00  0.00    +0.138 C 
ATOM     20  C   UNL     1       2.934  -6.990   6.176  0.00  0.00    +0.259 C 
ATOM     21  N   UNL     1       2.893  -5.613   5.658  0.00  0.00    -0.311 N 
ATOM     22  F   UNL     1       3.898  -7.727   5.480  0.00  0.00    -0.224 F 
ATOM     23  H   UNL     1       3.175  -4.866   6.208  0.00  0.00    +0.149 HD
ENDROOT
BRANCH   1  24
ATOM     24  C   UNL     1       3.711  -0.707  -0.038  0.00  0.00    +0.071 C 
BRANCH  24  28
ATOM     25  C   UNL     1      -0.017   1.378   0.010  0.00  0.00    +0.000 A 
ATOM     26  C   UNL     1       1.171   2.086   0.002  0.00  0.00    +0.000 A 
ATOM     27  C   UNL     1       2.377   1.411  -0.013  0.00  0.00    +0.004 A 
ATOM     28  C   UNL     1       2.396   0.029  -0.020  0.00  0.00    -0.043 A 
ATOM     29  C   UNL     1       1.208  -0.679  -0.012  0.00  0.00    +0.004 A 
ATOM     30  C   UNL     1       0.002  -0.004   0.002  0.00  0.00    +0.000 A 
ENDBRANCH  24  28
ENDBRANCH   1  24
TORSDOF 2
