REMARK  Name = ZINC39303599
REMARK  8 active torsions:
REMARK  status: ('A' for Active; 'I' for Inactive)
REMARK    1  A    between atoms: C_1  and  C_2
REMARK    2  A    between atoms: C_5  and  C_8
REMARK    3  A    between atoms: C_16  and  C_18
REMARK    4  A    between atoms: C_18  and  C_20
REMARK    5  A    between atoms: C_18  and  N_25
REMARK    6  A    between atoms: N_25  and  C_26
REMARK    7  A    between atoms: C_26  and  C_27
REMARK    8  A    between atoms: C_26  and  C_33
REMARK                            x       y       z     vdW  Elec       q    Type
REMARK                         _______ _______ _______ _____ _____    ______ ____
ROOT
ATOM      1  C   UNL     1      -0.477  -8.446   4.655  0.00  0.00    +0.055 C 
ENDROOT
BRANCH   1  10
ATOM      2  C   UNL     1       1.488  -4.174   0.698  0.00  0.00    +0.247 C 
ATOM      3  O   UNL     1       1.759  -4.759  -0.333  0.00  0.00    -0.270 OA
ATOM      4  N   UNL     1       1.206  -4.873   1.815  0.00  0.00    -0.295 N 
ATOM      5  C   UNL     1       0.755  -4.187   3.033  0.00  0.00    +0.127 C 
ATOM      6  C   UNL     1      -0.581  -4.798   3.474  0.00  0.00    +0.126 C 
ATOM      7  N   UNL     1      -0.444  -6.261   3.496  0.00  0.00    -0.300 N 
ATOM      8  C   UNL     1       0.007  -6.948   2.277  0.00  0.00    +0.126 C 
ATOM      9  C   UNL     1       1.338  -6.337   1.835  0.00  0.00    +0.127 C 
ATOM     10  C   UNL     1      -0.726  -6.960   4.613  0.00  0.00    +0.206 C 
ATOM     11  O   UNL     1      -1.182  -6.394   5.584  0.00  0.00    -0.277 OA
BRANCH   2  16
ATOM     12  C   UNL     1       1.412   1.579   0.809  0.00  0.00    +0.044 C 
ATOM     13  C   UNL     1       1.432   0.072   0.780  0.00  0.00    -0.050 A 
ATOM     14  C   UNL     1       1.055  -0.599  -0.369  0.00  0.00    +0.004 A 
ATOM     15  C   UNL     1       1.072  -1.978  -0.403  0.00  0.00    +0.013 A 
ATOM     16  C   UNL     1       1.469  -2.696   0.727  0.00  0.00    +0.037 A 
ATOM     17  C   UNL     1       1.848  -2.012   1.883  0.00  0.00    +0.013 A 
ATOM     18  C   UNL     1       1.832  -0.633   1.901  0.00  0.00    +0.004 A 
ENDBRANCH   2  16
ENDBRANCH   1  10
BRANCH   1  19
ATOM     19  C   UNL     1      -1.666  -9.171   4.081  0.00  0.00    -0.015 A 
ATOM     20  C   UNL     1      -1.790  -9.793   2.883  0.00  0.00    +0.010 A 
ATOM     21  C   UNL     1      -2.989 -10.402   2.564  0.00  0.00    +0.008 A 
ATOM     22  C   UNL     1      -4.007 -10.358   3.459  0.00  0.00    +0.045 A 
ATOM     23  S   UNL     1      -3.275  -9.442   4.805  0.00  0.00    -0.103 S 
ENDBRANCH   1  19
BRANCH   1  24
ATOM     24  N   UNL     1      -0.270  -8.868   6.047  0.00  0.00    +0.397 N 
ATOM     25  H   UNL     1       0.474  -8.323   6.457  0.00  0.00    -0.083 HD
ATOM     26  H   UNL     1      -1.120  -8.725   6.571  0.00  0.00    -0.083 HD
BRANCH  24  27
ATOM     27  C   UNL     1       0.091 -10.291   6.078  0.00  0.00    -0.009 C 
BRANCH  27  28
ATOM     28  C   UNL     1       1.423 -10.487   5.400  0.00  0.00    -0.057 A 
ATOM     29  C   UNL     1       2.441  -9.573   5.600  0.00  0.00    +0.002 A 
ATOM     30  C   UNL     1       3.663  -9.752   4.979  0.00  0.00    +0.000 A 
ATOM     31  C   UNL     1       3.866 -10.845   4.157  0.00  0.00    +0.000 A 
ATOM     32  C   UNL     1       2.849 -11.759   3.958  0.00  0.00    +0.000 A 
ATOM     33  C   UNL     1       1.629 -11.582   4.583  0.00  0.00    +0.002 A 
ENDBRANCH  27  28
BRANCH  27  34
ATOM     34  C   UNL     1       0.183 -10.755   7.509  0.00  0.00    -0.057 A 
ATOM     35  C   UNL     1       0.746  -9.933   8.467  0.00  0.00    +0.002 A 
ATOM     36  C   UNL     1       0.830 -10.359   9.780  0.00  0.00    +0.000 A 
ATOM     37  C   UNL     1       0.351 -11.606  10.134  0.00  0.00    +0.000 A 
ATOM     38  C   UNL     1      -0.213 -12.428   9.176  0.00  0.00    +0.000 A 
ATOM     39  C   UNL     1      -0.301 -12.000   7.864  0.00  0.00    +0.002 A 
ENDBRANCH  27  34
ENDBRANCH  24  27
ENDBRANCH   1  24
TORSDOF 7
