REMARK  Name = ZINC23709471
REMARK  8 active torsions:
REMARK  status: ('A' for Active; 'I' for Inactive)
REMARK    1  A    between atoms: C_1  and  C_2
REMARK    2  A    between atoms: N_7  and  S_9
REMARK    3  A    between atoms: S_9  and  C_12
REMARK    4  A    between atoms: C_15  and  N_21
REMARK    5  A    between atoms: C_16  and  N_18
REMARK    6  A    between atoms: N_24  and  C_27
REMARK    7  A    between atoms: C_27  and  C_28
REMARK    8  A    between atoms: C_29  and  C_30
REMARK                            x       y       z     vdW  Elec       q    Type
REMARK                         _______ _______ _______ _____ _____    ______ ____
ROOT
ATOM      1  C   UNL     1       4.333  -1.446   4.428  0.00  0.00    +0.108 A 
ATOM      2  C   UNL     1       3.725  -2.321   3.546  0.00  0.00    +0.030 A 
ATOM      3  C   UNL     1       2.991  -1.833   2.483  0.00  0.00    +0.027 A 
ATOM      4  C   UNL     1       2.874  -0.462   2.292  0.00  0.00    +0.060 A 
ATOM      5  C   UNL     1       3.486   0.414   3.179  0.00  0.00    +0.149 A 
ATOM      6  C   UNL     1       4.214  -0.080   4.244  0.00  0.00    +0.063 A 
ENDROOT
BRANCH   4   7
ATOM      7  N   UNL     1       2.138   0.034   1.214  0.00  0.00    -0.332 N 
ATOM      8  C   UNL     1       2.756  -0.342  -0.065  0.00  0.00    +0.086 C 
ATOM      9  C   UNL     1       1.966   0.286  -1.215  0.00  0.00    -0.059 C 
ATOM     10  N   UNL     1       0.571  -0.171  -1.154  0.00  0.00    +0.384 N 
ATOM     11  C   UNL     1      -0.048   0.206   0.124  0.00  0.00    -0.059 C 
ATOM     12  C   UNL     1       0.742  -0.422   1.275  0.00  0.00    +0.086 C 
ATOM     13  H   UNL     1       0.570  -1.269  -1.222  0.00  0.00    -0.081 HD
BRANCH  10  14
ATOM     14  C   UNL     1      -0.204   0.351  -2.288  0.00  0.00    -0.051 C 
BRANCH  14  15
ATOM     15  C   UNL     1      -1.549  -0.326  -2.332  0.00  0.00    -0.045 C 
ATOM     16  C   UNL     1      -2.658   0.401  -2.330  0.00  0.00    +0.002 C 
BRANCH  16  17
ATOM     17  C   UNL     1      -3.977  -0.264  -2.373  0.00  0.00    -0.025 A 
ATOM     18  C   UNL     1      -4.060  -1.656  -2.421  0.00  0.00    +0.008 A 
ATOM     19  C   UNL     1      -5.295  -2.270  -2.454  0.00  0.00    +0.001 A 
ATOM     20  C   UNL     1      -6.450  -1.508  -2.453  0.00  0.00    +0.000 A 
ATOM     21  C   UNL     1      -6.375  -0.127  -2.412  0.00  0.00    +0.001 A 
ATOM     22  C   UNL     1      -5.146   0.499  -2.372  0.00  0.00    +0.008 A 
ENDBRANCH  16  17
ENDBRANCH  14  15
ENDBRANCH  10  14
ENDBRANCH   4   7
BRANCH   1  23
ATOM     23  S   UNL     1       5.262  -2.072   5.788  0.00  0.00    +0.061 S 
ATOM     24  O   UNL     1       5.676  -3.382   5.427  0.00  0.00    -0.153 OA
ATOM     25  O   UNL     1       6.184  -1.054   6.152  0.00  0.00    -0.153 OA
BRANCH  23  31
ATOM     26  C   UNL     1       1.222  -4.464   7.716  0.00  0.00    +0.009 C 
ATOM     27  C   UNL     1       1.987  -3.186   7.367  0.00  0.00    +0.002 C 
ATOM     28  C   UNL     1       1.760  -2.139   8.460  0.00  0.00    +0.006 C 
ATOM     29  C   UNL     1       2.497  -0.849   8.095  0.00  0.00    +0.017 C 
ATOM     30  C   UNL     1       4.004  -1.135   8.006  0.00  0.00    +0.109 C 
ATOM     31  N   UNL     1       4.215  -2.239   7.060  0.00  0.00    -0.176 NA
ATOM     32  C   UNL     1       3.484  -3.497   7.267  0.00  0.00    +0.112 C 
ENDBRANCH  23  31
ENDBRANCH   1  23
BRANCH   5  33
ATOM     33  N   UNL     1       3.360   1.875   2.983  0.00  0.00    +0.058 N 
ATOM     34  O   UNL     1       3.977   2.642   3.701  0.00  0.00    -0.126 OA
ATOM     35  O   UNL     1       2.639   2.312   2.103  0.00  0.00    -0.126 OA
ENDBRANCH   5  33
TORSDOF 7
