REMARK  Name = ZINC11012931
REMARK  11 active torsions:
REMARK  status: ('A' for Active; 'I' for Inactive)
REMARK    1  A    between atoms: C_1  and  N_49
REMARK    2  A    between atoms: C_2  and  C_3
REMARK    3  A    between atoms: C_2  and  N_49
REMARK    4  A    between atoms: C_5  and  N_10
REMARK    5  A    between atoms: C_13  and  C_14
REMARK    6  A    between atoms: C_13  and  N_49
REMARK    7  A    between atoms: N_16  and  C_17
REMARK    8  A    between atoms: C_17  and  C_18
REMARK    9  A    between atoms: C_18  and  C_19
REMARK   10  A    between atoms: C_22  and  O_25
REMARK   11  A    between atoms: O_25  and  C_26
REMARK                            x       y       z     vdW  Elec       q    Type
REMARK                         _______ _______ _______ _____ _____    ______ ____
ROOT
ATOM      1  C   UNL     1       1.231  -4.823  -2.644  0.00  0.00    +0.196 C 
ATOM      2  O   UNL     1       1.214  -4.211  -3.691  0.00  0.00    -0.278 OA
ATOM      3  N   UNL     1       1.234  -4.155  -1.474  0.00  0.00    -0.317 N 
ATOM      4  H   UNL     1       1.248  -4.644  -0.636  0.00  0.00    +0.149 HD
ENDROOT
BRANCH   1   5
ATOM      5  C   UNL     1       1.248  -6.330  -2.652  0.00  0.00    +0.019 C 
BRANCH   5   7
ATOM      6  C   UNL     1       2.483  -6.445  -4.731  0.00  0.00    -0.095 C 
ATOM      7  N   UNL     1       1.219  -6.799  -4.053  0.00  0.00    +0.386 N 
ATOM      8  H   UNL     1       0.439  -6.344  -4.541  0.00  0.00    -0.081 HD
BRANCH   7   9
ATOM      9  C   UNL     1       1.019  -8.263  -4.090  0.00  0.00    -0.041 C 
BRANCH   9  10
ATOM     10  C   UNL     1       0.773  -8.684  -5.517  0.00  0.00    -0.043 A 
ATOM     11  C   UNL     1       1.765  -9.334  -6.227  0.00  0.00    +0.036 A 
ATOM     12  C   UNL     1       1.537  -9.724  -7.533  0.00  0.00    +0.126 A 
ATOM     13  C   UNL     1       0.321  -9.456  -8.133  0.00  0.00    +0.034 A 
ATOM     14  C   UNL     1      -0.669  -8.801  -7.426  0.00  0.00    +0.022 A 
ATOM     15  C   UNL     1      -0.444  -8.414  -6.117  0.00  0.00    +0.042 A 
ATOM     16 CL   UNL     1      -1.688  -7.592  -5.228  0.00  0.00    -0.083 Cl
BRANCH  12  17
ATOM     17  N   UNL     1       2.598 -10.425  -8.291  0.00  0.00    +0.056 N 
ATOM     18  O   UNL     1       2.399 -10.765  -9.444  0.00  0.00    -0.126 OA
ATOM     19  O   UNL     1       3.669 -10.662  -7.762  0.00  0.00    -0.126 OA
ENDBRANCH  12  17
ENDBRANCH   9  10
ENDBRANCH   7   9
ENDBRANCH   5   7
ENDBRANCH   1   5
BRANCH   3  20
ATOM     20  C   UNL     1       1.217  -2.690  -1.466  0.00  0.00    +0.109 C 
BRANCH  20  21
ATOM     21  C   UNL     1       1.226  -2.187  -0.021  0.00  0.00    +0.054 C 
BRANCH  21  22
ATOM     22  C   UNL     1       1.208  -0.680  -0.013  0.00  0.00    -0.046 A 
ATOM     23  C   UNL     1       0.002  -0.004   0.002  0.00  0.00    +0.007 A 
ATOM     24  C   UNL     1      -0.017   1.377   0.010  0.00  0.00    +0.046 A 
ATOM     25  C   UNL     1       1.176   2.086   0.002  0.00  0.00    +0.127 A 
ATOM     26  C   UNL     1       2.385   1.405  -0.013  0.00  0.00    +0.046 A 
ATOM     27  C   UNL     1       2.398   0.024  -0.021  0.00  0.00    +0.007 A 
BRANCH  25  28
ATOM     28  O   UNL     1       1.160   3.445   0.009  0.00  0.00    -0.434 OA
BRANCH  28  29
ATOM     29  C   UNL     1       2.426   4.108   0.001  0.00  0.00    +0.541 C 
ATOM     30  F   UNL     1       3.156   3.735   1.134  0.00  0.00    -0.166 F 
ATOM     31  F   UNL     1       3.134   3.747  -1.150  0.00  0.00    -0.166 F 
ENDBRANCH  28  29
ENDBRANCH  25  28
ENDBRANCH  21  22
ENDBRANCH  20  21
ENDBRANCH   3  20
TORSDOF 10
