REMARK  Name = ZINC02640505
REMARK  12 active torsions:
REMARK  status: ('A' for Active; 'I' for Inactive)
REMARK    1  A    between atoms: C_1  and  C_2
REMARK    2  A    between atoms: C_2  and  O_3
REMARK    3  A    between atoms: O_3  and  C_4
REMARK    4  A    between atoms: C_4  and  C_6
REMARK    5  A    between atoms: C_7  and  C_38
REMARK    6  A    between atoms: C_8  and  C_13
REMARK    7  A    between atoms: C_11  and  C_12
REMARK    8  A    between atoms: C_13  and  C_15
REMARK    9  A    between atoms: C_15  and  C_17
REMARK   10  A    between atoms: C_15  and  O_18
REMARK   11  A    between atoms: O_18  and  C_19
REMARK   12  A    between atoms: C_19  and  C_21
REMARK                            x       y       z     vdW  Elec       q    Type
REMARK                         _______ _______ _______ _____ _____    ______ ____
ROOT
ATOM      1  C   UNL     1       3.075   9.352  -1.677  0.00  0.00    +0.340 C 
ATOM      2  O   UNL     1       2.121  10.103  -1.698  0.00  0.00    -0.245 OA
ENDROOT
BRANCH   1   3
ATOM      3  C   UNL     1       2.902   7.949  -1.243  0.00  0.00    +0.061 A 
ATOM      4  C   UNL     1       3.998   7.083  -1.218  0.00  0.00    +0.016 A 
ATOM      5  C   UNL     1       3.836   5.779  -0.814  0.00  0.00    +0.014 A 
ATOM      6  C   UNL     1       2.573   5.310  -0.426  0.00  0.00    +0.048 A 
ATOM      7  C   UNL     1       1.481   6.176  -0.453  0.00  0.00    +0.105 A 
ATOM      8  C   UNL     1       1.644   7.485  -0.858  0.00  0.00    +0.043 A 
ATOM      9  S   UNL     1      -0.116   5.609   0.028  0.00  0.00    +0.026 S 
ATOM     10  O   UNL     1      -0.297   6.005   1.381  0.00  0.00    -0.164 OA
ATOM     11  O   UNL     1      -1.012   5.995  -1.005  0.00  0.00    -0.164 OA
ATOM     12  C   UNL     1      -0.065   3.849   0.021  0.00  0.00    +0.104 A 
ATOM     13  C   UNL     1      -1.245   3.132   0.029  0.00  0.00    +0.028 A 
ATOM     14  C   UNL     1      -1.222   1.750   0.017  0.00  0.00    +0.002 A 
ATOM     15  C   UNL     1      -0.013   1.076   0.008  0.00  0.00    +0.001 A 
ATOM     16  C   UNL     1       1.172   1.779   0.000  0.00  0.00    +0.013 A 
ATOM     17  C   UNL     1       1.158   3.180   0.008  0.00  0.00    +0.047 A 
ATOM     18  C   UNL     1       2.434   3.908   0.004  0.00  0.00    +0.197 C 
ATOM     19  O   UNL     1       3.431   3.321   0.377  0.00  0.00    -0.287 OA
ENDBRANCH   1   3
BRANCH   1  20
ATOM     20  O   UNL     1       4.290   9.798  -2.048  0.00  0.00    -0.450 OA
BRANCH  20  21
ATOM     21  C   UNL     1       4.386  11.186  -2.462  0.00  0.00    +0.246 C 
ATOM     22  C   UNL     1       4.145  11.287  -3.970  0.00  0.00    +0.061 C 
BRANCH  21  23
ATOM     23  C   UNL     1       5.759  11.715  -2.137  0.00  0.00    +0.219 C 
ATOM     24  O   UNL     1       6.679  10.943  -1.955  0.00  0.00    -0.287 OA
BRANCH  23  27
ATOM     25  C   UNL     1       6.935  15.115  -1.763  0.00  0.00    +0.083 A 
ATOM     26  C   UNL     1       7.176  13.725  -1.753  0.00  0.00    -0.008 A 
ATOM     27  C   UNL     1       5.977  13.110  -2.042  0.00  0.00    +0.090 A 
ATOM     28  N   UNL     1       5.027  14.093  -2.230  0.00  0.00    -0.355 N 
ATOM     29  H   UNL     1       4.094  13.939  -2.449  0.00  0.00    +0.166 HD
ATOM     30  C   UNL     1       5.595  15.296  -2.059  0.00  0.00    +0.028 A 
ATOM     31  C   UNL     1       4.892  16.624  -2.175  0.00  0.00    +0.064 C 
ATOM     32  C   UNL     1       8.492  13.043  -1.480  0.00  0.00    +0.047 C 
BRANCH  25  33
ATOM     33  C   UNL     1       7.924  16.176  -1.508  0.00  0.00    +0.341 C 
ATOM     34  O   UNL     1       8.563  16.646  -2.428  0.00  0.00    -0.245 OA
BRANCH  33  35
ATOM     35  O   UNL     1       8.121  16.625  -0.252  0.00  0.00    -0.461 OA
BRANCH  35  37
ATOM     36  C   UNL     1       9.195  18.049   1.406  0.00  0.00    +0.048 C 
ATOM     37  C   UNL     1       9.112  17.672  -0.075  0.00  0.00    +0.229 C 
ENDBRANCH  35  37
ENDBRANCH  33  35
ENDBRANCH  25  33
ENDBRANCH  23  27
ENDBRANCH  21  23
ENDBRANCH  20  21
ENDBRANCH   1  20
TORSDOF 8
