REMARK  Name = ZINC05092794
REMARK  5 active torsions:
REMARK  status: ('A' for Active; 'I' for Inactive)
REMARK    1  A    between atoms: C_1  and  C_2
REMARK    2  A    between atoms: C_2  and  C_23
REMARK    3  A    between atoms: C_6  and  N_15
REMARK    4  A    between atoms: C_9  and  N_14
REMARK    5  A    between atoms: C_10  and  C_12
REMARK                            x       y       z     vdW  Elec       q    Type
REMARK                         _______ _______ _______ _____ _____    ______ ____
ROOT
ATOM      1  C   UNL     1       5.143   5.927  -3.317  0.00  0.00    +0.023 C 
ATOM      2  C   UNL     1       5.658   6.076  -1.885  0.00  0.00    +0.015 C 
ATOM      3  C   UNL     1       4.724   5.356  -0.922  0.00  0.00    +0.053 C 
ATOM      4  C   UNL     1       3.367   5.986  -0.815  0.00  0.00    -0.028 A 
ATOM      5  C   UNL     1       3.025   7.257  -1.105  0.00  0.00    +0.004 A 
ATOM      6  C   UNL     1       1.702   7.694  -0.886  0.00  0.00    +0.104 A 
ATOM      7  C   UNL     1       1.062   5.632  -0.133  0.00  0.00    +0.089 A 
ATOM      8  C   UNL     1       2.351   5.101  -0.320  0.00  0.00    +0.031 A 
ATOM      9  C   UNL     1       2.499   3.696   0.025  0.00  0.00    +0.056 A 
ATOM     10  C   UNL     1       1.393   3.021   0.500  0.00  0.00    +0.123 A 
ATOM     11  S   UNL     1       0.116   4.263   0.485  0.00  0.00    -0.062 S 
ATOM     12  C   UNL     1       3.946   8.307  -1.680  0.00  0.00    +0.108 C 
ATOM     13  S   UNL     1       5.678   7.836  -1.415  0.00  0.00    -0.149 S 
ATOM     14  C   UNL     1       7.069   5.494  -1.776  0.00  0.00    +0.023 C 
ATOM     15  N   UNL     1       0.710   6.910  -0.398  0.00  0.00    -0.337 N 
ATOM     16  H   UNL     1      -0.242   7.263  -0.241  0.00  0.00    +0.168 HD
ENDROOT
BRANCH   6  17
ATOM     17  N   UNL     1       1.366   9.007  -1.181  0.00  0.00    -0.312 N 
ATOM     18  C   UNL     1       0.915   9.719   0.024  0.00  0.00    +0.134 C 
ATOM     19  C   UNL     1       0.613  11.176  -0.335  0.00  0.00    +0.178 C 
ATOM     20  O   UNL     1      -0.361  11.212  -1.381  0.00  0.00    -0.377 OA
ATOM     21  C   UNL     1       0.045  10.529  -2.570  0.00  0.00    +0.178 C 
ATOM     22  C   UNL     1       0.342   9.065  -2.235  0.00  0.00    +0.134 C 
ENDBRANCH   6  17
BRANCH  10  23
ATOM     23  C   UNL     1       1.296   1.668   0.898  0.00  0.00    +0.395 C 
ATOM     24  O   UNL     1       2.274   0.945   0.840  0.00  0.00    -0.240 OA
ATOM     25  O   UNL     1       0.119   1.178   1.341  0.00  0.00    -0.240 OA
ENDBRANCH  10  23
BRANCH   9  26
ATOM     26  N   UNL     1       3.719   3.052  -0.121  0.00  0.00    -0.356 N 
ATOM     27  H   UNL     1       3.751   2.145  -0.463  0.00  0.00    +0.142 HD
ATOM     28  H   UNL     1       4.540   3.508   0.120  0.00  0.00    +0.142 HD
ENDBRANCH   9  26
TORSDOF 3
