REMARK  Name = ZINC08995893
REMARK  12 active torsions:
REMARK  status: ('A' for Active; 'I' for Inactive)
REMARK    1  A    between atoms: CE_1  and  SD_2
REMARK    2  A    between atoms: SD_2  and  CG_3
REMARK    3  A    between atoms: CG_3  and  CB_4
REMARK    4  A    between atoms: CB_4  and  CA_5
REMARK    5  A    between atoms: CA_5  and  C_7
REMARK    6  A    between atoms: CA_5  and  N_9
REMARK    7  A    between atoms: C_10  and  C_12
REMARK    8  A    between atoms: C_16  and  C_20
REMARK    9  A    between atoms: C_20  and  N_21
REMARK   10  A    between atoms: C_22  and  C_24
REMARK   11  A    between atoms: C_24  and  N_25
REMARK   12  A    between atoms: C_35  and  O_36
REMARK                            x       y       z     vdW  Elec       q    Type
REMARK                         _______ _______ _______ _____ _____    ______ ____
ROOT
ATOM      1  C   UNK A   0      -0.927   1.718   3.671  0.00  0.00    +0.107 C 
ENDROOT
BRANCH   1   5
ATOM      2  C   UNK A   0      -0.175  -0.227   7.463  0.00  0.00    +0.075 C 
ATOM      3  C   UNK A   0      -0.089   1.299   7.406  0.00  0.00    +0.013 C 
ATOM      4  C   UNK A   0      -0.829   1.806   6.166  0.00  0.00    +0.006 C 
ATOM      5  C   UNK A   0      -0.187   1.212   4.911  0.00  0.00    +0.006 C 
ATOM      6  C   UNK A   0      -0.274  -0.315   4.968  0.00  0.00    +0.006 C 
ATOM      7  C   UNK A   0       0.466  -0.822   6.207  0.00  0.00    +0.013 C 
BRANCH   2   9
ATOM      8  N   MET A   1      -1.942  -1.954   7.593  0.00  0.00    -0.302 N 
ATOM      9  C   UNK A   0      -1.621  -0.646   7.535  0.00  0.00    +0.217 C 
ATOM     10  O   UNK A   0      -2.496   0.194   7.540  0.00  0.00    -0.275 OA
ATOM     11  H   MET A   1      -1.242  -2.625   7.589  0.00  0.00    +0.150 HD
BRANCH   8  12
ATOM     12  CA  MET A   1      -3.347  -2.361   7.663  0.00  0.00    +0.187 C 
BRANCH  12  13
ATOM     13  C   MET A   1      -3.920  -2.431   6.271  0.00  0.00    +0.376 C 
ATOM     14  O   MET A   1      -3.225  -2.168   5.318  0.00  0.00    -0.244 OA
ATOM     15  OXT MET A   1      -5.202  -2.786   6.089  0.00  0.00    -0.244 OA
ENDBRANCH  12  13
BRANCH  12  16
ATOM     16  CB  MET A   1      -3.448  -3.736   8.326  0.00  0.00    +0.044 C 
BRANCH  16  17
ATOM     17  CG  MET A   1      -2.982  -3.637   9.780  0.00  0.00    +0.071 C 
BRANCH  17  19
ATOM     18  CE  MET A   1      -2.521  -4.981  12.261  0.00  0.00    +0.084 C 
ATOM     19  SD  MET A   1      -3.101  -5.267  10.566  0.00  0.00    -0.164 S 
ENDBRANCH  17  19
ENDBRANCH  16  17
ENDBRANCH  12  16
ENDBRANCH   8  12
ENDBRANCH   2   9
ENDBRANCH   1   5
BRANCH   1  20
ATOM     20  N   UNK A   0      -0.242   1.246   2.466  0.00  0.00    -0.314 N 
ATOM     21  C   UNK A   0      -0.718   1.572   1.248  0.00  0.00    +0.233 C 
ATOM     22  O   UNK A   0      -1.714   2.256   1.150  0.00  0.00    -0.274 OA
ATOM     23  H   UNK A   0       0.555   0.699   2.544  0.00  0.00    +0.149 HD
BRANCH  21  24
ATOM     24  C   UNK A   0      -0.013   1.086   0.008  0.00  0.00    +0.225 C 
BRANCH  24  25
ATOM     25  N   UNK A   0      -0.721   1.571  -1.179  0.00  0.00    -0.254 N 
ATOM     26  C   UNK A   0      -0.380   2.762  -1.724  0.00  0.00    +0.265 A 
ATOM     27  O   UNK A   0       0.508   3.444  -1.246  0.00  0.00    -0.267 OA
ATOM     28  C   UNK A   0      -1.122   3.202  -2.913  0.00  0.00    +0.065 A 
ATOM     29  C   UNK A   0      -0.847   4.412  -3.549  0.00  0.00    +0.015 A 
ATOM     30  C   UNK A   0      -1.569   4.771  -4.654  0.00  0.00    +0.001 A 
ATOM     31  C   UNK A   0      -2.570   3.945  -5.147  0.00  0.00    +0.002 A 
ATOM     32  C   UNK A   0      -2.860   2.753  -4.543  0.00  0.00    +0.029 A 
ATOM     33  C   UNK A   0      -2.140   2.358  -3.413  0.00  0.00    +0.081 A 
ATOM     34  N   UNK A   0      -2.393   1.186  -2.782  0.00  0.00    -0.196 NA
ATOM     35  C   UNK A   0      -1.714   0.817  -1.728  0.00  0.00    +0.299 A 
BRANCH  35  36
ATOM     36  O   UNK A   0      -2.015  -0.367  -1.153  0.00  0.00    -0.479 OA
ATOM     37  H   UNK A   0      -2.728  -0.849  -1.594  0.00  0.00    +0.295 HD
ENDBRANCH  35  36
ENDBRANCH  24  25
ENDBRANCH  21  24
ENDBRANCH   1  20
TORSDOF 11
