REMARK  Name = ZINC09126049
REMARK  7 active torsions:
REMARK  status: ('A' for Active; 'I' for Inactive)
REMARK    1  A    between atoms: C_4  and  N_7
REMARK    2  A    between atoms: C_9  and  C_17
REMARK    3  A    between atoms: C_10  and  C_12
REMARK    4  A    between atoms: N_19  and  C_20
REMARK    5  A    between atoms: C_20  and  C_21
REMARK    6  A    between atoms: C_21  and  C_23
REMARK    7  A    between atoms: C_21  and  N_55
REMARK                            x       y       z     vdW  Elec       q    Type
REMARK                         _______ _______ _______ _____ _____    ______ ____
ROOT
ATOM      1  C   UNL     1       1.114   2.175   0.006  0.00  0.00    +0.248 C 
ATOM      2  O   UNL     1       2.180   1.600   0.118  0.00  0.00    -0.270 OA
ATOM      3  N   UNL     1      -0.033   1.469  -0.024  0.00  0.00    -0.312 N 
ATOM      4  H   UNL     1      -0.883   1.928  -0.117  0.00  0.00    +0.149 HD
ENDROOT
BRANCH   1   7
ATOM      5  N   UNL     1       0.359   5.716  -0.287  0.00  0.00    -0.239 N 
ATOM      6  C   UNL     1      -0.044   4.435  -0.227  0.00  0.00    +0.128 A 
ATOM      7  C   UNL     1       1.078   3.643  -0.097  0.00  0.00    +0.083 A 
ATOM      8  C   UNL     1       2.228   4.555  -0.075  0.00  0.00    +0.112 A 
ATOM      9  N   UNL     1       1.752   5.776  -0.196  0.00  0.00    -0.165 NA
BRANCH   5  13
ATOM     10  C   UNL     1      -2.164   9.010  -0.681  0.00  0.00    +0.000 A 
ATOM     11  C   UNL     1      -0.796   9.194  -0.601  0.00  0.00    +0.002 A 
ATOM     12  C   UNL     1       0.043   8.105  -0.470  0.00  0.00    +0.028 A 
ATOM     13  C   UNL     1      -0.489   6.823  -0.419  0.00  0.00    +0.065 A 
ATOM     14  C   UNL     1      -1.863   6.641  -0.505  0.00  0.00    +0.028 A 
ATOM     15  C   UNL     1      -2.697   7.735  -0.630  0.00  0.00    +0.002 A 
ENDBRANCH   5  13
BRANCH   8  16
ATOM     16  C   UNL     1       3.649   4.174   0.055  0.00  0.00    +0.040 A 
ATOM     17  C   UNL     1       4.752   4.747  -0.521  0.00  0.00    +0.018 A 
ATOM     18  C   UNL     1       5.993   4.216  -0.247  0.00  0.00    +0.008 A 
ATOM     19  C   UNL     1       6.085   3.138   0.574  0.00  0.00    +0.046 A 
ATOM     20  S   UNL     1       4.375   2.844   0.997  0.00  0.00    -0.095 S 
ENDBRANCH   8  16
ENDBRANCH   1   7
BRANCH   3  21
ATOM     21  C   UNL     1       0.003   0.008   0.079  0.00  0.00    +0.097 C 
BRANCH  21  22
ATOM     22  C   UNL     1      -1.427  -0.534   0.139  0.00  0.00    +0.016 C 
BRANCH  22  27
ATOM     23  C   UNL     1      -0.697  -2.303   1.645  0.00  0.00    -0.078 C 
ATOM     24  C   UNL     1      -1.203  -3.728   1.978  0.00  0.00    -0.020 C 
ATOM     25  C   UNL     1      -2.681  -3.684   1.528  0.00  0.00    -0.020 C 
ATOM     26  C   UNL     1      -2.757  -2.533   0.508  0.00  0.00    -0.078 C 
ATOM     27  N   UNL     1      -1.397  -2.007   0.385  0.00  0.00    +0.387 N 
ATOM     28  H   UNL     1      -0.916  -2.470  -0.396  0.00  0.00    -0.081 HD
ENDBRANCH  22  27
BRANCH  22  29
ATOM     29  C   UNL     1      -2.126  -0.252  -1.166  0.00  0.00    +0.093 A 
ATOM     30  C   UNL     1      -2.989   0.755  -1.394  0.00  0.00    +0.043 A 
ATOM     31  C   UNL     1      -3.401   0.644  -2.742  0.00  0.00    +0.041 A 
ATOM     32  C   UNL     1      -2.764  -0.423  -3.257  0.00  0.00    +0.195 A 
ATOM     33  O   UNL     1      -1.989  -0.958  -2.300  0.00  0.00    -0.469 OA
ENDBRANCH  22  29
ENDBRANCH  21  22
ENDBRANCH   3  21
TORSDOF 7
