REMARK  Name = ZINC12590125
REMARK  11 active torsions:
REMARK  status: ('A' for Active; 'I' for Inactive)
REMARK    1  A    between atoms: C_1  and  C_2
REMARK    2  A    between atoms: C_2  and  O_3
REMARK    3  A    between atoms: O_3  and  C_4
REMARK    4  A    between atoms: C_4  and  C_6
REMARK    5  A    between atoms: C_7  and  N_17
REMARK    6  A    between atoms: C_9  and  C_11
REMARK    7  A    between atoms: C_18  and  C_20
REMARK    8  A    between atoms: C_20  and  N_50
REMARK    9  A    between atoms: C_21  and  N_50
REMARK   10  A    between atoms: C_22  and  C_23
REMARK   11  A    between atoms: C_22  and  N_50
REMARK                            x       y       z     vdW  Elec       q    Type
REMARK                         _______ _______ _______ _____ _____    ______ ____
ROOT
ATOM      1  C   UNL     1      -4.540   7.091  -4.752  0.00  0.00    +0.118 A 
ATOM      2  C   UNL     1      -3.728   6.008  -4.412  0.00  0.00    +0.055 A 
ATOM      3  C   UNL     1      -3.013   5.391  -5.409  0.00  0.00    +0.040 A 
ATOM      4  C   UNL     1      -3.122   5.871  -6.702  0.00  0.00    +0.022 A 
ATOM      5  S   UNL     1      -4.264   7.230  -6.510  0.00  0.00    -0.080 S 
ENDROOT
BRANCH   4   6
ATOM      6  C   UNL     1      -2.461   5.383  -7.930  0.00  0.00    -0.011 A 
ATOM      7  C   UNL     1      -1.586   4.297  -7.871  0.00  0.00    +0.009 A 
ATOM      8  C   UNL     1      -0.976   3.844  -9.022  0.00  0.00    +0.001 A 
ATOM      9  C   UNL     1      -1.221   4.470 -10.231  0.00  0.00    +0.000 A 
ATOM     10  C   UNL     1      -2.083   5.550 -10.296  0.00  0.00    +0.001 A 
ATOM     11  C   UNL     1      -2.704   6.010  -9.153  0.00  0.00    +0.009 A 
ENDBRANCH   4   6
BRANCH   2  12
ATOM     12  N   UNL     1      -3.651   5.558  -3.093  0.00  0.00    -0.286 N 
ATOM     13  C   UNL     1      -3.308   4.280  -2.836  0.00  0.00    +0.201 C 
ATOM     14  O   UNL     1      -3.166   3.495  -3.749  0.00  0.00    -0.278 OA
ATOM     15  H   UNL     1      -3.843   6.165  -2.362  0.00  0.00    +0.155 HD
BRANCH  13  16
ATOM     16  C   UNL     1      -3.102   3.827  -1.414  0.00  0.00    +0.019 C 
BRANCH  16  18
ATOM     17  C   UNL     1      -3.852   1.572  -1.875  0.00  0.00    -0.095 C 
ATOM     18  N   UNL     1      -2.716   2.400  -1.419  0.00  0.00    +0.387 N 
ATOM     19  H   UNL     1      -1.928   2.270  -2.064  0.00  0.00    -0.081 HD
BRANCH  18  20
ATOM     20  C   UNL     1      -2.300   1.985  -0.063  0.00  0.00    -0.035 C 
BRANCH  20  21
ATOM     21  C   UNL     1      -1.706   0.602  -0.139  0.00  0.00    -0.027 A 
ATOM     22  C   UNL     1      -0.422   0.235  -0.368  0.00  0.00    +0.009 A 
ATOM     23  C   UNL     1      -0.103  -1.109  -0.400  0.00  0.00    +0.008 A 
ATOM     24  C   UNL     1      -1.085  -2.022  -0.202  0.00  0.00    +0.045 A 
ATOM     25  S   UNL     1      -2.515  -0.980   0.041  0.00  0.00    -0.103 S 
ENDBRANCH  20  21
ENDBRANCH  18  20
ENDBRANCH  16  18
ENDBRANCH  13  16
ENDBRANCH   2  12
BRANCH   1  26
ATOM     26  C   UNL     1      -5.366   7.878  -3.917  0.00  0.00    +0.348 C 
ATOM     27  O   UNL     1      -5.432   7.639  -2.726  0.00  0.00    -0.244 OA
BRANCH  26  28
ATOM     28  O   UNL     1      -6.082   8.895  -4.442  0.00  0.00    -0.461 OA
BRANCH  28  30
ATOM     29  C   UNL     1      -7.627  10.750  -4.312  0.00  0.00    +0.048 C 
ATOM     30  C   UNL     1      -6.896   9.649  -3.541  0.00  0.00    +0.229 C 
ENDBRANCH  28  30
ENDBRANCH  26  28
ENDBRANCH   1  26
TORSDOF 9
