REMARK  Name = ZINC08296645
REMARK  3 active torsions:
REMARK  status: ('A' for Active; 'I' for Inactive)
REMARK    1  A    between atoms: C_3  and  C_6
REMARK    2  A    between atoms: C_17  and  N_24
REMARK    3  A    between atoms: C_25  and  C_27
REMARK                            x       y       z     vdW  Elec       q    Type
REMARK                         _______ _______ _______ _____ _____    ______ ____
ROOT
ATOM      1  C   UNL     1       5.042  -0.781   4.296  0.00  0.00    +0.018 A 
ATOM      2  C   UNL     1       4.903  -2.129   3.951  0.00  0.00    +0.013 A 
ATOM      3  C   UNL     1       4.254  -2.479   2.793  0.00  0.00    +0.025 A 
ATOM      4  C   UNL     1       3.722  -1.503   1.941  0.00  0.00    +0.046 A 
ATOM      5  C   UNL     1       3.845  -0.157   2.286  0.00  0.00    +0.059 A 
ATOM      6  C   UNL     1       4.513   0.199   3.466  0.00  0.00    +0.026 A 
ATOM      7  C   UNL     1       3.297   0.934   1.464  0.00  0.00    +0.249 C 
ATOM      8  O   UNL     1       3.941   1.960   1.351  0.00  0.00    -0.270 OA
ATOM      9  N   UNL     1       2.119   0.842   0.836  0.00  0.00    -0.284 N 
ATOM     10  C   UNL     1       1.494   1.880  -0.002  0.00  0.00    +0.111 C 
ATOM     11  C   UNL     1      -0.019   1.548   0.011  0.00  0.00    +0.043 C 
ATOM     12  C   UNL     1       0.002  -0.004   0.002  0.00  0.00    +0.104 C 
ATOM     13  C   UNL     1       1.234  -0.336   0.868  0.00  0.00    +0.183 C 
ATOM     14  C   UNL     1       1.967  -1.507   0.269  0.00  0.00    +0.240 C 
ATOM     15  O   UNL     1       1.517  -2.043  -0.722  0.00  0.00    -0.273 OA
ATOM     16  N   UNL     1       3.110  -1.950   0.786  0.00  0.00    -0.283 N 
ATOM     17  H   UNL     1       3.550  -2.673   0.312  0.00  0.00    +0.155 HD
ENDROOT
BRANCH   1  20
ATOM     18  C   UNL     1       6.866  -0.469   7.457  0.00  0.00    +0.042 A 
ATOM     19  C   UNL     1       6.302  -1.259   6.435  0.00  0.00    +0.050 A 
ATOM     20  C   UNL     1       5.747  -0.401   5.538  0.00  0.00    +0.135 A 
ATOM     21  O   UNL     1       5.947   0.856   5.981  0.00  0.00    -0.463 OA
ATOM     22  C   UNL     1       6.623   0.818   7.141  0.00  0.00    +0.196 A 
ENDBRANCH   1  20
BRANCH  12  23
ATOM     23  N   UNL     1      -1.218  -0.543   0.608  0.00  0.00    -0.306 N 
ATOM     24  C   UNL     1      -2.321  -0.725  -0.145  0.00  0.00    +0.251 C 
ATOM     25  O   UNL     1      -2.303  -0.441  -1.329  0.00  0.00    -0.270 OA
ATOM     26  H   UNL     1      -1.232  -0.768   1.551  0.00  0.00    +0.149 HD
BRANCH  24  27
ATOM     27  C   UNL     1      -3.542  -1.263   0.461  0.00  0.00    +0.074 A 
ATOM     28  C   UNL     1      -4.771  -1.518  -0.128  0.00  0.00    +0.021 A 
ATOM     29  C   UNL     1      -5.755  -2.033   0.678  0.00  0.00    +0.008 A 
ATOM     30  C   UNL     1      -5.489  -2.254   1.992  0.00  0.00    +0.046 A 
ATOM     31  S   UNL     1      -3.836  -1.754   2.151  0.00  0.00    -0.092 S 
ENDBRANCH  24  27
ENDBRANCH  12  23
TORSDOF 3
