REMARK  Name = ZINC40316729
REMARK  9 active torsions:
REMARK  status: ('A' for Active; 'I' for Inactive)
REMARK    1  A    between atoms: C_10  and  C_11
REMARK    2  A    between atoms: C_11  and  N_12
REMARK    3  A    between atoms: N_12  and  C_13
REMARK    4  A    between atoms: N_12  and  C_26
REMARK    5  A    between atoms: C_13  and  C_14
REMARK    6  A    between atoms: C_14  and  C_16
REMARK    7  A    between atoms: C_14  and  O_25
REMARK    8  A    between atoms: C_16  and  O_17
REMARK    9  A    between atoms: O_17  and  C_18
REMARK                            x       y       z     vdW  Elec       q    Type
REMARK                         _______ _______ _______ _____ _____    ______ ____
ROOT
ATOM      1  N   UNL     1       5.471   0.276   1.035  0.00  0.00    +0.387 N 
ATOM      2  H   UNL     1       5.503  -0.647   0.629  0.00  0.00    -0.081 HD
ENDROOT
BRANCH   1   3
ATOM      3  C   UNL     1       4.089   0.772   1.019  0.00  0.00    -0.045 C 
ATOM      4  C   UNL     1       3.114  -0.411   0.898  0.00  0.00    +0.009 C 
ATOM      5  C   UNL     1       1.695   0.106   0.560  0.00  0.00    +0.164 C 
ATOM      6  S   UNL     1       2.040   1.669  -0.345  0.00  0.00    -0.033 S 
ATOM      7  O   UNL     1       1.504   2.759   0.393  0.00  0.00    -0.174 OA
ATOM      8  O   UNL     1       1.679   1.504  -1.709  0.00  0.00    -0.174 OA
ATOM      9  C   UNL     1       3.877   1.701  -0.210  0.00  0.00    +0.151 C 
ENDBRANCH   1   3
BRANCH   1  10
ATOM     10  C   UNL     1       6.325   1.183   0.256  0.00  0.00    -0.042 C 
BRANCH  10  20
ATOM     11  C   UNL     1       7.766   1.393  -4.652  0.00  0.00    +0.001 A 
ATOM     12  C   UNL     1       6.919   2.152  -3.845  0.00  0.00    +0.001 A 
ATOM     13  C   UNL     1       6.733   1.837  -2.534  0.00  0.00    +0.009 A 
ATOM     14  C   UNL     1       7.403   0.731  -1.982  0.00  0.00    -0.017 A 
ATOM     15  C   UNL     1       8.263  -0.040  -2.803  0.00  0.00    -0.018 A 
ATOM     16  C   UNL     1       8.430   0.316  -4.152  0.00  0.00    +0.008 A 
ATOM     17  C   UNL     1       8.932  -1.146  -2.252  0.00  0.00    +0.008 A 
ATOM     18  C   UNL     1       8.746  -1.461  -0.941  0.00  0.00    +0.001 A 
ATOM     19  C   UNL     1       7.900  -0.703  -0.134  0.00  0.00    +0.002 A 
ATOM     20  C   UNL     1       7.235   0.375  -0.633  0.00  0.00    -0.056 A 
ENDBRANCH  10  20
ENDBRANCH   1  10
BRANCH   1  21
ATOM     21  C   UNL     1       5.955   0.219   2.421  0.00  0.00    -0.043 C 
BRANCH  21  22
ATOM     22  C   UNL     1       5.081  -0.744   3.227  0.00  0.00    +0.135 C 
BRANCH  22  23
ATOM     23  O   UNL     1       3.844  -0.107   3.551  0.00  0.00    -0.390 OA
ATOM     24  H   UNL     1       3.945   0.726   4.032  0.00  0.00    +0.210 HD
ENDBRANCH  22  23
BRANCH  22  25
ATOM     25  C   UNL     1       5.806  -1.135   4.516  0.00  0.00    +0.258 C 
BRANCH  25  26
ATOM     26  O   UNL     1       5.043  -2.123   5.211  0.00  0.00    -0.489 OA
BRANCH  26  27
ATOM     27  C   UNL     1       5.551  -2.581   6.386  0.00  0.00    +0.121 A 
ATOM     28  C   UNL     1       6.757  -2.087   6.861  0.00  0.00    +0.047 A 
ATOM     29  C   UNL     1       7.272  -2.554   8.054  0.00  0.00    +0.019 A 
ATOM     30  C   UNL     1       6.586  -3.515   8.776  0.00  0.00    +0.018 A 
ATOM     31  C   UNL     1       5.384  -4.010   8.303  0.00  0.00    +0.019 A 
ATOM     32  C   UNL     1       4.862  -3.540   7.113  0.00  0.00    +0.047 A 
ATOM     33 BR   UNL     1       7.293  -4.153  10.409  0.00  0.00    -0.050 Br
ENDBRANCH  26  27
ENDBRANCH  25  26
ENDBRANCH  22  25
ENDBRANCH  21  22
ENDBRANCH   1  21
TORSDOF 9
