REMARK  Name = ZINC37606375
REMARK  3 active torsions:
REMARK  status: ('A' for Active; 'I' for Inactive)
REMARK    1  A    between atoms: C_4  and  N_18
REMARK    2  A    between atoms: C_6  and  C_7
REMARK    3  A    between atoms: C_9  and  C_12
REMARK                            x       y       z     vdW  Elec       q    Type
REMARK                         _______ _______ _______ _____ _____    ______ ____
ROOT
ATOM      1  C   UNL     1      -1.266  -0.762   0.010  0.00  0.00    +0.259 A 
ATOM      2  N   UNL     1      -2.473  -0.244   0.019  0.00  0.00    -0.186 NA
ATOM      3  C   UNL     1      -3.391  -1.223   0.024  0.00  0.00    +0.222 A 
ATOM      4  N   UNL     1      -2.776  -2.380   0.018  0.00  0.00    -0.054 NA
ATOM      5  O   UNL     1      -1.384  -2.102   0.004  0.00  0.00    -0.332 OA
ENDROOT
BRANCH   1  11
ATOM      6  C   UNL     1      -0.017   1.392   0.010  0.00  0.00    +0.016 A 
ATOM      7  C   UNL     1       1.169   2.098   0.002  0.00  0.00    +0.041 A 
ATOM      8  C   UNL     1       2.379   1.427  -0.013  0.00  0.00    +0.144 A 
ATOM      9  C   UNL     1       2.407   0.035  -0.021  0.00  0.00    +0.061 A 
ATOM     10  C   UNL     1       1.222  -0.682  -0.014  0.00  0.00    +0.039 A 
ATOM     11  C   UNL     1       0.002  -0.004   0.002  0.00  0.00    +0.041 A 
ATOM     12  F   UNL     1       3.536   2.125  -0.020  0.00  0.00    -0.204 F 
BRANCH   9  13
ATOM     13  N   UNL     1       3.632  -0.640  -0.037  0.00  0.00    -0.356 N 
ATOM     14  H   UNL     1       4.463  -0.138  -0.043  0.00  0.00    +0.142 HD
ATOM     15  H   UNL     1       3.652  -1.609  -0.043  0.00  0.00    +0.142 HD
ENDBRANCH   9  13
ENDBRANCH   1  11
BRANCH   3  16
ATOM     16  C   UNL     1      -4.863  -1.027   0.035  0.00  0.00    +0.129 A 
ATOM     17  C   UNL     1      -5.715  -2.130   0.045  0.00  0.00    +0.142 A 
ATOM     18  N   UNL     1      -7.023  -1.950   0.054  0.00  0.00    -0.260 NA
ATOM     19  C   UNL     1      -7.524  -0.727   0.054  0.00  0.00    +0.130 A 
ATOM     20  C   UNL     1      -6.680   0.371   0.044  0.00  0.00    +0.131 A 
ATOM     21  N   UNL     1      -5.371   0.201   0.041  0.00  0.00    -0.249 NA
ENDBRANCH   3  16
TORSDOF 3
