REMARK  Name = ZINC40043495
REMARK  7 active torsions:
REMARK  status: ('A' for Active; 'I' for Inactive)
REMARK    1  A    between atoms: C_1  and  C_2
REMARK    2  A    between atoms: C_4  and  C_33
REMARK    3  A    between atoms: N_15  and  C_25
REMARK    4  A    between atoms: C_16  and  C_18
REMARK    5  A    between atoms: C_22  and  O_24
REMARK    6  A    between atoms: C_25  and  C_26
REMARK    7  A    between atoms: C_26  and  C_27
REMARK                            x       y       z     vdW  Elec       q    Type
REMARK                         _______ _______ _______ _____ _____    ______ ____
ROOT
ATOM      1  C   UNL     1      -0.018   1.503   0.010  0.00  0.00    +0.044 C 
ATOM      2  C   UNL     1       0.002  -0.004   0.002  0.00  0.00    -0.049 A 
ATOM      3  C   UNL     1       0.006  -0.689  -1.205  0.00  0.00    +0.010 A 
ATOM      4  C   UNL     1       0.021  -2.065  -1.235  0.00  0.00    -0.007 A 
ATOM      5  C   UNL     1       0.035  -2.790  -0.043  0.00  0.00    +0.142 A 
ATOM      6  C   UNL     1       0.037  -2.086   1.172  0.00  0.00    +0.065 A 
ATOM      7  C   UNL     1       0.023  -0.692   1.183  0.00  0.00    +0.018 A 
ATOM      8  C   UNL     1       0.068  -2.849   2.446  0.00  0.00    +0.199 A 
ATOM      9  O   UNL     1      -0.097  -2.332   3.537  0.00  0.00    -0.287 OA
ATOM     10  C   UNL     1       0.314  -4.283   2.265  0.00  0.00    +0.072 A 
ATOM     11  C   UNL     1       0.294  -4.850   1.022  0.00  0.00    +0.199 A 
ATOM     12  O   UNL     1       0.043  -4.141  -0.096  0.00  0.00    -0.449 OA
ATOM     13  C   UNL     1       0.583  -6.288   1.166  0.00  0.00    +0.283 C 
ATOM     14  O   UNL     1       0.643  -7.081   0.247  0.00  0.00    -0.267 OA
ATOM     15  N   UNL     1       0.770  -6.596   2.465  0.00  0.00    -0.283 N 
ATOM     16  C   UNL     1       0.614  -5.362   3.253  0.00  0.00    +0.145 C 
ATOM     17  C   UNL     1       0.023  -2.790  -2.557  0.00  0.00    +0.047 C 
ENDROOT
BRANCH  16  18
ATOM     18  C   UNL     1      -0.527  -5.508   4.226  0.00  0.00    -0.019 A 
ATOM     19  C   UNL     1      -1.669  -6.194   3.855  0.00  0.00    +0.006 A 
ATOM     20  C   UNL     1      -2.717  -6.330   4.745  0.00  0.00    +0.004 A 
ATOM     21  C   UNL     1      -2.627  -5.779   6.009  0.00  0.00    +0.045 A 
ATOM     22  C   UNL     1      -1.483  -5.090   6.385  0.00  0.00    +0.117 A 
ATOM     23  C   UNL     1      -0.429  -4.961   5.491  0.00  0.00    +0.051 A 
BRANCH  22  24
ATOM     24  O   UNL     1      -1.392  -4.548   7.627  0.00  0.00    -0.507 OA
ATOM     25  H   UNL     1      -1.012  -5.142   8.289  0.00  0.00    +0.292 HD
ENDBRANCH  22  24
ENDBRANCH  16  18
BRANCH  15  26
ATOM     26  C   UNL     1       1.076  -7.926   2.999  0.00  0.00    +0.114 C 
BRANCH  26  27
ATOM     27  C   UNL     1       2.593  -8.120   3.045  0.00  0.00    +0.054 C 
BRANCH  27  28
ATOM     28  C   UNL     1       2.907  -9.488   3.595  0.00  0.00    -0.046 A 
ATOM     29  C   UNL     1       3.070  -9.665   4.956  0.00  0.00    +0.004 A 
ATOM     30  C   UNL     1       3.358 -10.920   5.460  0.00  0.00    +0.000 A 
ATOM     31  C   UNL     1       3.483 -11.997   4.603  0.00  0.00    +0.000 A 
ATOM     32  C   UNL     1       3.319 -11.820   3.241  0.00  0.00    +0.000 A 
ATOM     33  C   UNL     1       3.027 -10.566   2.738  0.00  0.00    +0.004 A 
ENDBRANCH  27  28
ENDBRANCH  26  27
ENDBRANCH  15  26
TORSDOF 5
