REMARK  Name = ZINC08757980
REMARK  6 active torsions:
REMARK  status: ('A' for Active; 'I' for Inactive)
REMARK    1  A    between atoms: C_1  and  C_2
REMARK    2  A    between atoms: C_3  and  C_28
REMARK    3  A    between atoms: C_15  and  C_16
REMARK    4  A    between atoms: C_15  and  C_22
REMARK    5  A    between atoms: C_15  and  N_64
REMARK    6  A    between atoms: C_28  and  C_29
REMARK                            x       y       z     vdW  Elec       q    Type
REMARK                         _______ _______ _______ _____ _____    ______ ____
ROOT
ATOM      1  C   UNL     1      -2.266   3.695  -0.633  0.00  0.00    +0.066 C 
ATOM      2  C   UNL     1      -0.919   3.026  -0.720  0.00  0.00    +0.050 A 
ATOM      3  C   UNL     1      -0.838   1.683  -0.947  0.00  0.00    +0.042 A 
ATOM      4  C   UNL     1       0.430   1.081  -1.018  0.00  0.00    +0.256 A 
ATOM      5  O   UNL     1       0.539  -0.118  -1.214  0.00  0.00    -0.267 OA
ATOM      6  N   UNL     1       1.526   1.856  -0.869  0.00  0.00    -0.295 N 
ATOM      7  H   UNL     1       2.411   1.462  -0.918  0.00  0.00    +0.172 HD
ATOM      8  C   UNL     1       1.384   3.191  -0.650  0.00  0.00    +0.198 A 
ATOM      9  N   UNL     1       0.192   3.748  -0.580  0.00  0.00    -0.221 NA
ATOM     10  N   UNL     1       2.500   3.970  -0.500  0.00  0.00    -0.305 N 
ATOM     11  C   UNL     1       3.407   3.402   0.506  0.00  0.00    +0.089 C 
ATOM     12  C   UNL     1       4.675   4.257   0.587  0.00  0.00    -0.058 C 
ATOM     13  C   UNL     1       3.402   6.206  -0.077  0.00  0.00    -0.058 C 
ATOM     14  C   UNL     1       2.135   5.352  -0.157  0.00  0.00    +0.089 C 
ATOM     15  N   UNL     1       4.296   5.637   0.954  0.00  0.00    +0.389 N 
ATOM     16  H   UNL     1       3.800   5.619   1.853  0.00  0.00    -0.080 HD
ENDROOT
BRANCH  15  17
ATOM     17  C   UNL     1       5.507   6.474   1.091  0.00  0.00    -0.007 C 
BRANCH  17  18
ATOM     18  C   UNL     1       5.095   7.874   1.468  0.00  0.00    -0.057 A 
ATOM     19  C   UNL     1       4.112   8.073   2.419  0.00  0.00    +0.002 A 
ATOM     20  C   UNL     1       3.738   9.357   2.768  0.00  0.00    +0.000 A 
ATOM     21  C   UNL     1       4.340  10.442   2.159  0.00  0.00    +0.000 A 
ATOM     22  C   UNL     1       5.319  10.243   1.204  0.00  0.00    +0.000 A 
ATOM     23  C   UNL     1       5.697   8.959   0.858  0.00  0.00    +0.002 A 
ENDBRANCH  17  18
BRANCH  17  24
ATOM     24  C   UNL     1       6.380   5.898   2.176  0.00  0.00    -0.057 A 
ATOM     25  C   UNL     1       5.815   5.468   3.362  0.00  0.00    +0.002 A 
ATOM     26  C   UNL     1       6.615   4.935   4.356  0.00  0.00    +0.000 A 
ATOM     27  C   UNL     1       7.981   4.842   4.167  0.00  0.00    +0.000 A 
ATOM     28  C   UNL     1       8.547   5.277   2.983  0.00  0.00    +0.000 A 
ATOM     29  C   UNL     1       7.746   5.805   1.988  0.00  0.00    +0.002 A 
ENDBRANCH  17  24
ENDBRANCH  15  17
BRANCH   3  30
ATOM     30  C   UNL     1      -2.088   0.858  -1.113  0.00  0.00    +0.077 C 
BRANCH  30  31
ATOM     31  C   UNL     1      -2.403   0.714  -2.580  0.00  0.00    -0.043 A 
ATOM     32  C   UNL     1      -3.216   1.640  -3.207  0.00  0.00    +0.004 A 
ATOM     33  C   UNL     1      -3.501   1.510  -4.553  0.00  0.00    +0.000 A 
ATOM     34  C   UNL     1      -2.982   0.448  -5.270  0.00  0.00    +0.000 A 
ATOM     35  C   UNL     1      -2.174  -0.481  -4.642  0.00  0.00    +0.000 A 
ATOM     36  C   UNL     1      -1.885  -0.349  -3.297  0.00  0.00    +0.004 A 
ENDBRANCH  30  31
ENDBRANCH   3  30
TORSDOF 5
