REMARK  Name = ZINC39545968
REMARK  7 active torsions:
REMARK  status: ('A' for Active; 'I' for Inactive)
REMARK    1  A    between atoms: C_1  and  C_2
REMARK    2  A    between atoms: C_2  and  C_3
REMARK    3  A    between atoms: C_2  and  S_4
REMARK    4  A    between atoms: S_4  and  N_7
REMARK    5  A    between atoms: C_8  and  C_10
REMARK    6  A    between atoms: C_13  and  C_24
REMARK    7  A    between atoms: C_29  and  O_30
REMARK                            x       y       z     vdW  Elec       q    Type
REMARK                         _______ _______ _______ _____ _____    ______ ____
ROOT
ATOM      1  C   UNL     1      -3.042  -0.205  -3.740  0.00  0.00    +0.151 C 
ATOM      2  C   UNL     1      -2.272   1.040  -4.221  0.00  0.00    +0.069 C 
ATOM      3  C   UNL     1      -1.794   0.669  -5.607  0.00  0.00    -0.000 C 
ATOM      4  C   UNL     1      -2.195  -0.563  -5.891  0.00  0.00    +0.079 C 
ATOM      5  N   UNL     1      -1.977  -1.246  -7.095  0.00  0.00    -0.303 N 
ATOM      6  C   UNL     1      -3.038  -2.070  -7.507  0.00  0.00    +0.037 A 
ATOM      7  C   UNL     1      -2.981  -2.704  -8.740  0.00  0.00    +0.023 A 
ATOM      8  C   UNL     1      -4.020  -3.521  -9.141  0.00  0.00    +0.002 A 
ATOM      9  C   UNL     1      -5.112  -3.702  -8.312  0.00  0.00    +0.000 A 
ATOM     10  C   UNL     1      -5.171  -3.068  -7.086  0.00  0.00    +0.007 A 
ATOM     11  C   UNL     1      -4.137  -2.243  -6.677  0.00  0.00    -0.010 A 
ATOM     12  C   UNL     1      -4.240  -1.544  -5.346  0.00  0.00    +0.124 C 
ATOM     13  N   UNL     1      -2.917  -1.165  -4.848  0.00  0.00    -0.369 NA
ATOM     14  H   UNL     1      -1.156  -1.158  -7.604  0.00  0.00    +0.153 HD
ATOM     15  H   UNL     1      -2.430  -1.989  -4.529  0.00  0.00    +0.128 HD
ENDROOT
BRANCH   3  16
ATOM     16  C   UNL     1      -1.009   1.540  -6.502  0.00  0.00    +0.023 A 
ATOM     17  C   UNL     1      -1.620   2.158  -7.594  0.00  0.00    +0.012 A 
ATOM     18  C   UNL     1      -0.880   2.971  -8.428  0.00  0.00    +0.001 A 
ATOM     19  C   UNL     1       0.467   3.176  -8.185  0.00  0.00    +0.004 A 
ATOM     20  C   UNL     1       1.084   2.568  -7.107  0.00  0.00    +0.046 A 
ATOM     21  C   UNL     1       0.354   1.755  -6.258  0.00  0.00    +0.124 A 
BRANCH  21  22
ATOM     22  O   UNL     1       0.958   1.162  -5.194  0.00  0.00    -0.506 OA
ATOM     23  H   UNL     1       1.333   0.293  -5.389  0.00  0.00    +0.292 HD
ENDBRANCH  21  22
ENDBRANCH   3  16
BRANCH   1  25
ATOM     24  N   UNL     1      -2.389  -0.021  -1.361  0.00  0.00    -0.080 N 
ATOM     25  C   UNL     1      -2.414  -0.760  -2.488  0.00  0.00    +0.268 C 
ATOM     26  O   UNL     1      -1.932  -1.873  -2.494  0.00  0.00    -0.271 OA
ATOM     27 CL   UNL     1      -3.069   1.548  -1.353  0.00  0.00    +0.027 Cl
BRANCH  24  28
ATOM     28  S   UNL     1      -1.700  -0.632   0.015  0.00  0.00    +0.064 S 
ATOM     29  O   UNL     1      -1.703  -2.041  -0.172  0.00  0.00    -0.154 OA
ATOM     30  O   UNL     1      -2.431  -0.041   1.080  0.00  0.00    -0.154 OA
BRANCH  28  32
ATOM     31  C   UNL     1      -0.019   1.526   0.010  0.00  0.00    +0.033 C 
ATOM     32  C   UNL     1       0.002  -0.004   0.002  0.00  0.00    +0.147 C 
ATOM     33  C   UNL     1       0.742  -0.511   1.242  0.00  0.00    +0.033 C 
ENDBRANCH  28  32
ENDBRANCH  24  28
ENDBRANCH   1  25
TORSDOF 5
