REMARK  Name = ZINC09212119
REMARK  12 active torsions:
REMARK  status: ('A' for Active; 'I' for Inactive)
REMARK    1  A    between atoms: C_1  and  C_2
REMARK    2  A    between atoms: C_5  and  S_8
REMARK    3  A    between atoms: S_8  and  C_11
REMARK    4  A    between atoms: C_11  and  C_12
REMARK    5  A    between atoms: C_13  and  C_31
REMARK    6  A    between atoms: C_15  and  C_17
REMARK    7  A    between atoms: C_20  and  C_23
REMARK    8  A    between atoms: N_25  and  C_26
REMARK    9  A    between atoms: C_26  and  C_27
REMARK   10  A    between atoms: C_27  and  C_28
REMARK   11  A    between atoms: C_28  and  C_29
REMARK   12  A    between atoms: C_28  and  C_30
REMARK                            x       y       z     vdW  Elec       q    Type
REMARK                         _______ _______ _______ _____ _____    ______ ____
ROOT
ATOM      1  C   UNL     1      -0.923   2.856   1.599  0.00  0.00    +0.104 A 
ATOM      2  C   UNL     1      -0.718   1.572   1.248  0.00  0.00    +0.127 A 
ATOM      3  O   UNL     1      -1.255   0.803   2.214  0.00  0.00    -0.440 OA
ATOM      4  C   UNL     1      -1.786   1.621   3.140  0.00  0.00    +0.228 A 
ATOM      5  N   UNL     1      -1.587   2.863   2.763  0.00  0.00    -0.212 NA
ATOM      6  C   UNL     1      -0.013   1.086   0.008  0.00  0.00    +0.088 C 
ENDROOT
BRANCH   4   7
ATOM      7  C   UNL     1      -2.478   1.195   4.373  0.00  0.00    +0.037 A 
ATOM      8  C   UNL     1      -2.982   2.152   5.258  0.00  0.00    +0.014 A 
ATOM      9  C   UNL     1      -3.631   1.754   6.405  0.00  0.00    +0.014 A 
ATOM     10  C   UNL     1      -3.776   0.394   6.690  0.00  0.00    +0.037 A 
ATOM     11  C   UNL     1      -3.268  -0.563   5.807  0.00  0.00    +0.014 A 
ATOM     12  C   UNL     1      -2.624  -0.165   4.658  0.00  0.00    +0.014 A 
BRANCH  10  13
ATOM     13  C   UNL     1      -4.468  -0.032   7.923  0.00  0.00    +0.244 C 
ATOM     14  O   UNL     1      -4.595  -1.216   8.171  0.00  0.00    -0.270 OA
ATOM     15  N   UNL     1      -4.958   0.891   8.774  0.00  0.00    -0.311 N 
ATOM     16  H   UNL     1      -4.857   1.835   8.577  0.00  0.00    +0.149 HD
BRANCH  15  17
ATOM     17  C   UNL     1      -5.644   0.468   9.998  0.00  0.00    +0.105 C 
BRANCH  17  18
ATOM     18  C   UNL     1      -6.099   1.702  10.780  0.00  0.00    +0.022 C 
BRANCH  18  19
ATOM     19  C   UNL     1      -6.815   1.260  12.058  0.00  0.00    -0.016 C 
ATOM     20  C   UNL     1      -5.824   0.541  12.976  0.00  0.00    +0.007 C 
ATOM     21  C   UNL     1      -7.378   2.487  12.777  0.00  0.00    +0.007 C 
ENDBRANCH  18  19
ENDBRANCH  17  18
ENDBRANCH  15  17
ENDBRANCH  10  13
ENDBRANCH   4   7
BRANCH   1  22
ATOM     22  C   UNL     1      -0.487   4.069   0.819  0.00  0.00    +0.230 C 
BRANCH  22  23
ATOM     23  S   UNL     1      -1.800   4.549  -0.338  0.00  0.00    +0.003 S 
ATOM     24  O   UNL     1      -1.945   3.562  -1.350  0.00  0.00    -0.169 OA
ATOM     25  O   UNL     1      -2.931   5.026   0.377  0.00  0.00    -0.169 OA
BRANCH  23  30
ATOM     26  C   UNL     1       0.360   9.394  -3.213  0.00  0.00    +0.044 C 
ATOM     27  C   UNL     1      -0.180   8.184  -2.495  0.00  0.00    -0.050 A 
ATOM     28  C   UNL     1       0.052   6.919  -3.002  0.00  0.00    +0.005 A 
ATOM     29  C   UNL     1      -0.443   5.809  -2.344  0.00  0.00    +0.027 A 
ATOM     30  C   UNL     1      -1.169   5.964  -1.177  0.00  0.00    +0.089 A 
ATOM     31  C   UNL     1      -1.404   7.229  -0.673  0.00  0.00    +0.027 A 
ATOM     32  C   UNL     1      -0.906   8.339  -1.329  0.00  0.00    +0.005 A 
ENDBRANCH  23  30
ENDBRANCH  22  23
ENDBRANCH   1  22
TORSDOF 8
