REMARK  Name = ZINC59515803
REMARK  3 active torsions:
REMARK  status: ('A' for Active; 'I' for Inactive)
REMARK    1  A    between atoms: C_10  and  N_11
REMARK    2  A    between atoms: C_12  and  C_14
REMARK    3  A    between atoms: N_16  and  N_17
REMARK                            x       y       z     vdW  Elec       q    Type
REMARK                         _______ _______ _______ _____ _____    ______ ____
ROOT
ATOM      1  N   UNL     1       4.870   0.096  -0.044  0.00  0.00    -0.277 N 
ATOM      2  C   UNL     1       6.045  -0.557   0.044  0.00  0.00    +0.305 C 
ATOM      3  O   UNL     1       6.066  -1.771   0.038  0.00  0.00    -0.265 OA
ATOM      4  H   UNL     1       4.857   1.063  -0.120  0.00  0.00    +0.155 HD
ENDROOT
BRANCH   1  14
ATOM      5  C   UNL     1       0.203   0.946  -1.767  0.00  0.00    +0.001 A 
ATOM      6  C   UNL     1       1.390   1.676  -1.797  0.00  0.00    +0.001 A 
ATOM      7  C   UNL     1       2.529   1.184  -1.235  0.00  0.00    +0.010 A 
ATOM      8  C   UNL     1       2.511  -0.076  -0.617  0.00  0.00    +0.003 A 
ATOM      9  C   UNL     1       1.306  -0.819  -0.587  0.00  0.00    -0.016 A 
ATOM     10  C   UNL     1       0.149  -0.279  -1.176  0.00  0.00    +0.008 A 
ATOM     11  C   UNL     1       1.286  -2.080   0.033  0.00  0.00    +0.008 A 
ATOM     12  C   UNL     1       2.421  -2.578   0.597  0.00  0.00    +0.002 A 
ATOM     13  C   UNL     1       3.611  -1.858   0.573  0.00  0.00    +0.024 A 
ATOM     14  C   UNL     1       3.672  -0.617  -0.025  0.00  0.00    +0.042 A 
ENDBRANCH   1  14
BRANCH   2  15
ATOM     15  C   UNL     1       7.319   0.210   0.148  0.00  0.00    +0.318 C 
ATOM     16  O   UNL     1       7.298   1.424   0.153  0.00  0.00    -0.263 OA
ATOM     17  N   UNL     1       8.495  -0.443   0.235  0.00  0.00    -0.199 N 
ATOM     18  H   UNL     1       8.512  -1.413   0.231  0.00  0.00    +0.178 HD
BRANCH  17  19
ATOM     19  N   UNL     1       9.692   0.278   0.333  0.00  0.00    -0.189 NA
ATOM     20  C   UNL     1      10.808  -0.343   0.416  0.00  0.00    +0.037 C 
ATOM     21  C   UNL     1      10.847  -1.853   0.403  0.00  0.00    +0.052 C 
ATOM     22  C   UNL     1      10.449  -2.350  -0.978  0.00  0.00    +0.006 C 
ATOM     23  C   UNL     1      11.597  -2.067  -1.967  0.00  0.00    +0.000 C 
ATOM     24  C   UNL     1      11.571  -0.594  -2.360  0.00  0.00    +0.000 C 
ATOM     25  C   UNL     1      12.826   0.137  -1.847  0.00  0.00    +0.000 C 
ATOM     26  C   UNL     1      13.116  -0.255  -0.401  0.00  0.00    +0.006 C 
ATOM     27  C   UNL     1      12.091   0.417   0.520  0.00  0.00    +0.052 C 
ENDBRANCH  17  19
ENDBRANCH   2  15
TORSDOF 3
