REMARK  Name = ZINC63588985
REMARK  11 active torsions:
REMARK  status: ('A' for Active; 'I' for Inactive)
REMARK    1  A    between atoms: C_1  and  C_2
REMARK    2  A    between atoms: C_7  and  N_8
REMARK    3  A    between atoms: N_10  and  C_11
REMARK    4  A    between atoms: C_11  and  C_12
REMARK    5  A    between atoms: C_12  and  C_13
REMARK    6  A    between atoms: N_22  and  C_23
REMARK    7  A    between atoms: C_23  and  C_25
REMARK    8  A    between atoms: C_28  and  O_33
REMARK    9  A    between atoms: C_29  and  O_31
REMARK   10  A    between atoms: O_31  and  C_32
REMARK   11  A    between atoms: O_33  and  C_34
REMARK                            x       y       z     vdW  Elec       q    Type
REMARK                         _______ _______ _______ _____ _____    ______ ____
ROOT
ATOM      1  N   UNL     1      -0.001   0.002   2.432  0.00  0.00    -0.328 N 
ATOM      2  C   UNL     1      -0.118  -0.706   3.594  0.00  0.00    +0.194 C 
ATOM      3  N   UNL     1      -0.325  -0.052   4.773  0.00  0.00    -0.357 N 
ATOM      4  N   UNL     1      -0.032  -2.027   3.576  0.00  0.00    -0.143 NA
ATOM      5  H   UNL     1      -0.341  -0.548   5.606  0.00  0.00    +0.162 HD
ATOM      6  H   UNL     1      -0.040   0.971   2.448  0.00  0.00    +0.169 HD
ENDROOT
BRANCH   1  13
ATOM      7  C   UNL     1      -1.175   1.118   0.093  0.00  0.00    +0.046 C 
ATOM      8  C   UNL     1      -0.379  -0.161   0.052  0.00  0.00    -0.027 A 
ATOM      9  C   UNL     1      -0.198  -0.824  -1.146  0.00  0.00    +0.007 A 
ATOM     10  C   UNL     1       0.532  -1.998  -1.185  0.00  0.00    +0.020 A 
ATOM     11  C   UNL     1       1.083  -2.512  -0.024  0.00  0.00    +0.043 A 
ATOM     12  C   UNL     1       0.906  -1.853   1.178  0.00  0.00    +0.046 A 
ATOM     13  C   UNL     1       0.177  -0.671   1.218  0.00  0.00    +0.046 A 
ATOM     14 CL   UNL     1       1.998  -3.986  -0.077  0.00  0.00    -0.083 Cl
ENDBRANCH   1  13
BRANCH   4  15
ATOM     15  C   UNL     1      -0.004  -2.713   4.727  0.00  0.00    +0.270 C 
ATOM     16  O   UNL     1       0.810  -2.425   5.587  0.00  0.00    -0.268 OA
BRANCH  15  17
ATOM     17  C   UNL     1      -0.960  -3.818   4.953  0.00  0.00    +0.043 A 
ATOM     18  C   UNL     1      -1.889  -4.152   3.966  0.00  0.00    +0.017 A 
ATOM     19  C   UNL     1      -2.780  -5.182   4.178  0.00  0.00    +0.050 A 
ATOM     20  C   UNL     1      -2.756  -5.890   5.372  0.00  0.00    +0.162 A 
ATOM     21  C   UNL     1      -1.831  -5.561   6.362  0.00  0.00    +0.162 A 
ATOM     22  C   UNL     1      -0.932  -4.533   6.152  0.00  0.00    +0.062 A 
BRANCH  21  23
ATOM     23  O   UNL     1      -1.810  -6.256   7.531  0.00  0.00    -0.491 OA
ATOM     24  C   UNL     1      -0.836  -5.864   8.500  0.00  0.00    +0.277 C 
ENDBRANCH  21  23
BRANCH  20  25
ATOM     25  O   UNL     1      -3.636  -6.904   5.577  0.00  0.00    -0.491 OA
ATOM     26  C   UNL     1      -4.556  -7.188   4.521  0.00  0.00    +0.277 C 
ENDBRANCH  20  25
ENDBRANCH  15  17
ENDBRANCH   4  15
BRANCH   3  27
ATOM     27  C   UNL     1      -0.522   1.399   4.780  0.00  0.00    +0.120 C 
BRANCH  27  28
ATOM     28  C   UNL     1      -0.731   1.878   6.219  0.00  0.00    +0.054 C 
BRANCH  28  29
ATOM     29  C   UNL     1      -0.934   3.372   6.226  0.00  0.00    -0.040 C 
ATOM     30  C   UNL     1      -2.114   4.032   6.224  0.00  0.00    -0.001 A 
ATOM     31  C   UNL     1      -3.509   3.574   6.212  0.00  0.00    +0.010 A 
ATOM     32  C   UNL     1      -4.501   4.494   6.212  0.00  0.00    +0.001 A 
ATOM     33  C   UNL     1      -4.231   5.869   6.222  0.00  0.00    +0.002 A 
ATOM     34  C   UNL     1      -2.975   6.366   6.233  0.00  0.00    +0.026 A 
ATOM     35  C   UNL     1      -1.856   5.489   6.235  0.00  0.00    +0.043 A 
ATOM     36  N   UNL     1      -0.566   5.721   6.244  0.00  0.00    -0.380 N 
ATOM     37  C   UNL     1       0.141   4.435   6.245  0.00  0.00    +0.144 C 
ATOM     38  H   UNL     1      -0.148   6.596   6.252  0.00  0.00    +0.160 HD
ENDBRANCH  28  29
ENDBRANCH  27  28
ENDBRANCH   3  27
TORSDOF 8
