REMARK  Name = ZINC54201399
REMARK  6 active torsions:
REMARK  status: ('A' for Active; 'I' for Inactive)
REMARK    1  A    between atoms: C_1  and  O_2
REMARK    2  A    between atoms: O_2  and  C_3
REMARK    3  A    between atoms: C_6  and  C_9
REMARK    4  A    between atoms: C_12  and  C_15
REMARK    5  A    between atoms: C_20  and  O_21
REMARK    6  A    between atoms: C_27  and  C_28
REMARK                            x       y       z     vdW  Elec       q    Type
REMARK                         _______ _______ _______ _____ _____    ______ ____
ROOT
ATOM      1  C   UNL     1      -5.151  -2.492  -1.729  0.00  0.00    +0.069 C 
ATOM      2  N   UNL     1      -6.274  -1.928  -1.445  0.00  0.00    -0.182 NA
ATOM      3  N   UNL     1      -7.299  -2.821  -1.141  0.00  0.00    -0.195 N 
ATOM      4  C   UNL     1      -6.779  -4.194  -1.239  0.00  0.00    +0.139 C 
ATOM      5  C   UNL     1      -5.306  -3.994  -1.648  0.00  0.00    +0.087 C 
ATOM      6  C   UNL     1      -8.582  -2.478  -0.807  0.00  0.00    +0.174 C 
ATOM      7  N   UNL     1      -9.594  -3.277  -0.503  0.00  0.00    -0.152 NA
ATOM      8  C   UNL     1     -10.786  -2.819  -0.196  0.00  0.00    +0.276 C 
ATOM      9  O   UNL     1     -11.711  -3.565   0.082  0.00  0.00    -0.267 OA
ATOM     10  C   UNL     1     -10.946  -1.344  -0.206  0.00  0.00    +0.080 C 
ATOM     11  C   UNL     1     -12.038  -0.587   0.064  0.00  0.00    +0.029 C 
ATOM     12  S   UNL     1      -9.291  -0.845  -0.666  0.00  0.00    -0.050 S 
ENDROOT
BRANCH   1  16
ATOM     13  C   UNL     1      -1.573  -0.450  -2.754  0.00  0.00    +0.120 A 
ATOM     14  C   UNL     1      -2.723   0.272  -2.461  0.00  0.00    +0.046 A 
ATOM     15  C   UNL     1      -3.887  -0.387  -2.128  0.00  0.00    +0.013 A 
ATOM     16  C   UNL     1      -3.909  -1.783  -2.086  0.00  0.00    -0.002 A 
ATOM     17  C   UNL     1      -2.749  -2.506  -2.381  0.00  0.00    +0.013 A 
ATOM     18  C   UNL     1      -1.592  -1.838  -2.718  0.00  0.00    +0.046 A 
BRANCH  13  20
ATOM     19  C   UNL     1      -0.479   1.631  -3.100  0.00  0.00    +0.277 C 
ATOM     20  O   UNL     1      -0.428   0.203  -3.082  0.00  0.00    -0.495 OA
ENDBRANCH  13  20
ENDBRANCH   1  16
BRANCH   4  21
ATOM     21  C   UNL     1      -7.520  -4.969  -2.298  0.00  0.00    +0.017 A 
ATOM     22  C   UNL     1      -8.156  -4.300  -3.326  0.00  0.00    +0.009 A 
ATOM     23  C   UNL     1      -8.837  -5.010  -4.297  0.00  0.00    +0.001 A 
ATOM     24  C   UNL     1      -8.883  -6.391  -4.242  0.00  0.00    +0.004 A 
ATOM     25  C   UNL     1      -8.249  -7.065  -3.217  0.00  0.00    +0.046 A 
ATOM     26  C   UNL     1      -7.560  -6.354  -2.244  0.00  0.00    +0.122 A 
BRANCH  26  27
ATOM     27  O   UNL     1      -6.930  -7.015  -1.237  0.00  0.00    -0.506 OA
ATOM     28  H   UNL     1      -7.484  -7.166  -0.459  0.00  0.00    +0.292 HD
ENDBRANCH  26  27
ENDBRANCH   4  21
BRANCH  11  29
ATOM     29  C   UNL     1     -11.913   0.875   0.162  0.00  0.00    -0.006 A 
ATOM     30  C   UNL     1     -10.650   1.486   0.143  0.00  0.00    +0.011 A 
ATOM     31  C   UNL     1     -10.589   2.864   0.239  0.00  0.00    +0.020 A 
ATOM     32  C   UNL     1     -11.762   3.590   0.349  0.00  0.00    +0.111 A 
ATOM     33  N   UNL     1     -12.937   2.989   0.365  0.00  0.00    -0.263 NA
ATOM     34  C   UNL     1     -13.051   1.681   0.271  0.00  0.00    +0.118 A 
ENDBRANCH  11  29
TORSDOF 5
