REMARK  Name = ZINC02742259
REMARK  11 active torsions:
REMARK  status: ('A' for Active; 'I' for Inactive)
REMARK    1  A    between atoms: C_1  and  C_2
REMARK    2  A    between atoms: C_2  and  C_3
REMARK    3  A    between atoms: C_3  and  C_4
REMARK    4  A    between atoms: C_3  and  C_5
REMARK    5  A    between atoms: C_3  and  C_6
REMARK    6  A    between atoms: C_13  and  N_19
REMARK    7  A    between atoms: C_14  and  C_15
REMARK    8  A    between atoms: C_15  and  O_17
REMARK    9  A    between atoms: O_17  and  C_18
REMARK   10  A    between atoms: C_20  and  C_22
REMARK   11  A    between atoms: C_27  and  N_28
REMARK                            x       y       z     vdW  Elec       q    Type
REMARK                         _______ _______ _______ _____ _____    ______ ____
ROOT
ATOM      1  C   UNL     1       0.721   7.518  -2.970  0.00  0.00    -0.000 C 
ATOM      2  C   UNL     1      -0.455   6.546  -3.104  0.00  0.00    +0.009 C 
ATOM      3  C   UNL     1      -0.150   5.253  -2.344  0.00  0.00    +0.037 C 
ATOM      4  C   UNL     1       0.259   5.607  -0.920  0.00  0.00    -0.021 A 
ATOM      5  C   UNL     1       0.663   6.856  -0.602  0.00  0.00    -0.004 A 
ATOM      6  S   UNL     1       1.026   6.787   1.130  0.00  0.00    -0.077 S 
ATOM      7  C   UNL     1       0.642   5.125   1.431  0.00  0.00    +0.087 A 
ATOM      8  C   UNL     1       0.249   4.660   0.183  0.00  0.00    +0.091 A 
ATOM      9  C   UNL     1       0.776   8.031  -1.523  0.00  0.00    +0.046 C 
ENDROOT
BRANCH   7  10
ATOM     10  N   UNL     1       0.712   4.428   2.626  0.00  0.00    -0.275 N 
ATOM     11  C   UNL     1       1.120   5.054   3.748  0.00  0.00    +0.251 C 
ATOM     12  O   UNL     1       1.428   6.229   3.711  0.00  0.00    -0.270 OA
ATOM     13  H   UNL     1       0.433   3.365   2.660  0.00  0.00    +0.156 HD
BRANCH  11  14
ATOM     14  C   UNL     1       1.195   4.311   5.023  0.00  0.00    +0.067 A 
ATOM     15  C   UNL     1       0.075   3.628   5.503  0.00  0.00    +0.017 A 
ATOM     16  C   UNL     1       0.151   2.936   6.693  0.00  0.00    +0.021 A 
ATOM     17  C   UNL     1       1.335   2.917   7.412  0.00  0.00    +0.043 A 
ATOM     18  C   UNL     1       2.449   3.592   6.941  0.00  0.00    +0.053 A 
ATOM     19  C   UNL     1       2.387   4.284   5.750  0.00  0.00    +0.140 A 
ATOM     20 CL   UNL     1       1.423   2.043   8.909  0.00  0.00    -0.083 Cl
BRANCH  19  21
ATOM     21  N   UNL     1       3.580   5.000   5.245  0.00  0.00    +0.057 N 
ATOM     22  O   UNL     1       4.580   5.080   5.935  0.00  0.00    -0.126 OA
ATOM     23  O   UNL     1       3.562   5.509   4.138  0.00  0.00    -0.126 OA
ENDBRANCH  19  21
ENDBRANCH  11  14
ENDBRANCH   7  10
BRANCH   1  24
ATOM     24  C   UNL     1       0.522   8.697  -3.924  0.00  0.00    -0.032 C 
ATOM     25  C   UNL     1       0.450   8.182  -5.363  0.00  0.00    +0.011 C 
ATOM     26  C   UNL     1      -0.780   9.422  -3.576  0.00  0.00    +0.011 C 
BRANCH  24  28
ATOM     27  C   UNL     1       1.499  10.846  -4.743  0.00  0.00    +0.004 C 
ATOM     28  C   UNL     1       1.698   9.667  -3.788  0.00  0.00    +0.003 C 
ENDBRANCH  24  28
ENDBRANCH   1  24
BRANCH   8  29
ATOM     29  C   UNL     1      -0.167   3.270  -0.014  0.00  0.00    +0.342 C 
ATOM     30  O   UNL     1       0.656   2.426  -0.315  0.00  0.00    -0.245 OA
BRANCH  29  31
ATOM     31  O   UNL     1      -1.462   2.924   0.139  0.00  0.00    -0.464 OA
ATOM     32  C   UNL     1      -1.801   1.528  -0.072  0.00  0.00    +0.280 C 
ENDBRANCH  29  31
ENDBRANCH   8  29
TORSDOF 7
