REMARK  Name = ZINC64622777
REMARK  6 active torsions:
REMARK  status: ('A' for Active; 'I' for Inactive)
REMARK    1  A    between atoms: C_7  and  C_10
REMARK    2  A    between atoms: C_10  and  C_11
REMARK    3  A    between atoms: C_11  and  N_12
REMARK    4  A    between atoms: C_13  and  C_15
REMARK    5  A    between atoms: C_15  and  N_16
REMARK    6  A    between atoms: C_24  and  C_26
REMARK                            x       y       z     vdW  Elec       q    Type
REMARK                         _______ _______ _______ _____ _____    ______ ____
ROOT
ATOM      1  N   UNL     1      -0.458  -4.798  -1.460  0.00  0.00    -0.314 N 
ATOM      2  C   UNL     1      -0.811  -5.380  -2.623  0.00  0.00    +0.230 C 
ATOM      3  O   UNL     1      -0.371  -4.957  -3.671  0.00  0.00    -0.274 OA
ATOM      4  H   UNL     1      -0.810  -5.136  -0.622  0.00  0.00    +0.149 HD
ENDROOT
BRANCH   1   5
ATOM      5  C   UNL     1       0.457  -3.653  -1.462  0.00  0.00    +0.108 C 
BRANCH   5   6
ATOM      6  C   UNL     1       0.691  -3.186  -0.024  0.00  0.00    +0.052 C 
BRANCH   6  13
ATOM      7  C   UNL     1      -0.016   1.348   0.009  0.00  0.00    +0.001 A 
ATOM      8  C   UNL     1       1.166   2.101   0.002  0.00  0.00    +0.002 A 
ATOM      9  C   UNL     1       2.391   1.535  -0.013  0.00  0.00    +0.026 A 
ATOM     10  C   UNL     1       2.529   0.120  -0.022  0.00  0.00    +0.043 A 
ATOM     11  N   UNL     1       3.587  -0.654  -0.037  0.00  0.00    -0.380 N 
ATOM     12  C   UNL     1       3.143  -2.053  -0.041  0.00  0.00    +0.144 C 
ATOM     13  C   UNL     1       1.631  -2.008  -0.025  0.00  0.00    -0.040 C 
ATOM     14  C   UNL     1       1.295  -0.698  -0.014  0.00  0.00    -0.001 A 
ATOM     15  C   UNL     1       0.002  -0.004   0.002  0.00  0.00    +0.010 A 
ATOM     16  H   UNL     1       4.509  -0.353  -0.045  0.00  0.00    +0.160 HD
ENDBRANCH   6  13
ENDBRANCH   5   6
ENDBRANCH   1   5
BRANCH   2  17
ATOM     17  C   UNL     1      -1.752  -6.557  -2.622  0.00  0.00    +0.201 C 
BRANCH  17  18
ATOM     18  N   UNL     1      -1.976  -7.005  -3.998  0.00  0.00    -0.313 N 
ATOM     19  C   UNL     1      -2.986  -6.533  -4.839  0.00  0.00    +0.034 A 
ATOM     20  C   UNL     1      -3.971  -5.576  -4.587  0.00  0.00    +0.025 A 
ATOM     21  C   UNL     1      -4.887  -5.247  -5.564  0.00  0.00    +0.022 A 
ATOM     22  C   UNL     1      -4.838  -5.865  -6.801  0.00  0.00    +0.041 A 
ATOM     23  C   UNL     1      -3.865  -6.814  -7.058  0.00  0.00    +0.025 A 
ATOM     24  C   UNL     1      -2.945  -7.146  -6.082  0.00  0.00    -0.023 A 
ATOM     25  C   UNL     1      -1.798  -8.131  -6.094  0.00  0.00    +0.064 C 
ATOM     26  C   UNL     1      -1.169  -8.010  -4.697  0.00  0.00    +0.115 C 
ATOM     27 CL   UNL     1      -5.994  -5.450  -8.028  0.00  0.00    -0.084 Cl
BRANCH  26  28
ATOM     28  C   UNL     1      -1.242  -9.332  -3.977  0.00  0.00    +0.010 A 
ATOM     29  C   UNL     1      -0.257 -10.233  -3.744  0.00  0.00    +0.013 A 
ATOM     30  C   UNL     1      -0.558 -11.392  -3.053  0.00  0.00    +0.008 A 
ATOM     31  C   UNL     1      -1.830 -11.593  -2.630  0.00  0.00    +0.045 A 
ATOM     32  S   UNL     1      -2.648 -10.114  -3.203  0.00  0.00    -0.100 S 
ENDBRANCH  26  28
ENDBRANCH  17  18
ENDBRANCH   2  17
TORSDOF 6
