REMARK  Name = ZINC25518717
REMARK  11 active torsions:
REMARK  status: ('A' for Active; 'I' for Inactive)
REMARK    1  A    between atoms: C_1  and  C_2
REMARK    2  A    between atoms: C_5  and  C_8
REMARK    3  A    between atoms: C_8  and  N_9
REMARK    4  A    between atoms: N_14  and  C_15
REMARK    5  A    between atoms: C_15  and  C_17
REMARK    6  A    between atoms: C_17  and  N_18
REMARK    7  A    between atoms: C_19  and  C_21
REMARK    8  A    between atoms: C_21  and  N_22
REMARK    9  A    between atoms: N_22  and  S_23
REMARK   10  A    between atoms: S_23  and  C_26
REMARK   11  A    between atoms: C_29  and  C_32
REMARK                            x       y       z     vdW  Elec       q    Type
REMARK                         _______ _______ _______ _____ _____    ______ ____
ROOT
ATOM      1  C   UNL     1      -2.101   4.781   5.876  0.00  0.00    +0.202 C 
ENDROOT
BRANCH   1   2
ATOM      2  N   UNL     1      -1.355   4.448   4.660  0.00  0.00    -0.306 N 
ATOM      3  C   UNL     1      -1.918   3.666   3.717  0.00  0.00    +0.229 C 
ATOM      4  O   UNL     1      -3.042   3.239   3.875  0.00  0.00    -0.274 OA
ATOM      5  H   UNL     1      -0.336   4.835   4.516  0.00  0.00    +0.149 HD
BRANCH   3   6
ATOM      6  C   UNL     1      -1.151   3.323   2.466  0.00  0.00    +0.201 C 
BRANCH   6   7
ATOM      7  N   UNL     1      -1.974   2.469   1.607  0.00  0.00    -0.181 NA
ATOM      8  H   UNL     1      -2.771   1.851   2.047  0.00  0.00    +0.149 HD
BRANCH   7   9
ATOM      9  S   UNL     1      -1.554   2.238   0.022  0.00  0.00    +0.059 S 
ATOM     10  O   UNL     1      -1.304   3.526  -0.523  0.00  0.00    -0.153 OA
ATOM     11  O   UNL     1      -2.519   1.353  -0.529  0.00  0.00    -0.153 OA
BRANCH   9  12
ATOM     12  C   UNL     1      -0.017   1.378   0.010  0.00  0.00    +0.105 A 
ATOM     13  C   UNL     1       1.171   2.086   0.002  0.00  0.00    +0.029 A 
ATOM     14  C   UNL     1       2.377   1.411  -0.015  0.00  0.00    +0.005 A 
ATOM     15  C   UNL     1       2.396   0.029  -0.022  0.00  0.00    -0.050 A 
ATOM     16  C   UNL     1       1.208  -0.679  -0.013  0.00  0.00    +0.005 A 
ATOM     17  C   UNL     1       0.002  -0.004   0.002  0.00  0.00    +0.029 A 
ATOM     18  C   UNL     1       3.711  -0.707  -0.038  0.00  0.00    +0.044 C 
ENDBRANCH   9  12
ENDBRANCH   7   9
ENDBRANCH   6   7
ENDBRANCH   3   6
ENDBRANCH   1   2
BRANCH   1  19
ATOM     19  C   UNL     1      -1.254   5.660   6.759  0.00  0.00    +0.256 C 
ATOM     20  O   UNL     1      -0.134   5.978   6.407  0.00  0.00    -0.272 OA
BRANCH  19  26
ATOM     21  N   UNL     1      -1.284   7.407   9.918  0.00  0.00    -0.324 N 
ATOM     22  C   UNL     1      -0.357   8.175  10.547  0.00  0.00    +0.095 A 
ATOM     23  C   UNL     1       0.820   8.382   9.947  0.00  0.00    +0.066 A 
ATOM     24  S   UNL     1       0.630   7.454   8.434  0.00  0.00    -0.061 S 
ATOM     25  C   UNL     1      -0.980   6.866   8.704  0.00  0.00    +0.166 A 
ATOM     26  N   UNL     1      -1.730   6.087   7.922  0.00  0.00    -0.155 NA
BRANCH  21  27
ATOM     27  C   UNL     1      -2.589   7.160  10.536  0.00  0.00    +0.158 C 
BRANCH  27  32
ATOM     28  C   UNL     1      -2.300   2.417  13.823  0.00  0.00    +0.044 C 
ATOM     29  C   UNL     1      -2.375   3.654  12.966  0.00  0.00    -0.050 A 
ATOM     30  C   UNL     1      -2.091   4.891  13.512  0.00  0.00    +0.004 A 
ATOM     31  C   UNL     1      -2.160   6.026  12.726  0.00  0.00    +0.005 A 
ATOM     32  C   UNL     1      -2.513   5.923  11.393  0.00  0.00    -0.028 A 
ATOM     33  C   UNL     1      -2.802   4.686  10.848  0.00  0.00    +0.005 A 
ATOM     34  C   UNL     1      -2.728   3.550  11.633  0.00  0.00    +0.004 A 
ENDBRANCH  27  32
ENDBRANCH  21  27
ENDBRANCH  19  26
ENDBRANCH   1  19
TORSDOF 9
