REMARK  Name = ZINC10052791
REMARK  11 active torsions:
REMARK  status: ('A' for Active; 'I' for Inactive)
REMARK    1  A    between atoms: C_1  and  C_2
REMARK    2  A    between atoms: C_2  and  C_3
REMARK    3  A    between atoms: C_3  and  C_4
REMARK    4  A    between atoms: C_4  and  N_5
REMARK    5  A    between atoms: C_18  and  S_19
REMARK    6  A    between atoms: S_19  and  C_20
REMARK    7  A    between atoms: C_20  and  C_21
REMARK    8  A    between atoms: N_23  and  C_24
REMARK    9  A    between atoms: C_29  and  O_30
REMARK   10  A    between atoms: O_30  and  C_31
REMARK   11  A    between atoms: C_31  and  C_32
REMARK                            x       y       z     vdW  Elec       q    Type
REMARK                         _______ _______ _______ _____ _____    ______ ____
ROOT
ATOM      1  N   UNL     1      -0.635   1.516   3.743  0.00  0.00    -0.277 N 
ATOM      2  C   UNL     1      -0.279   2.696   4.290  0.00  0.00    +0.263 A 
ATOM      3  O   UNL     1       0.610   3.364   3.796  0.00  0.00    -0.267 OA
ATOM      4  C   UNL     1      -0.990   3.167   5.492  0.00  0.00    +0.064 A 
ATOM      5  C   UNL     1      -0.667   4.382   6.095  0.00  0.00    +0.015 A 
ATOM      6  C   UNL     1      -1.352   4.786   7.222  0.00  0.00    +0.001 A 
ATOM      7  C   UNL     1      -2.355   3.991   7.755  0.00  0.00    +0.002 A 
ATOM      8  C   UNL     1      -2.683   2.786   7.167  0.00  0.00    +0.027 A 
ATOM      9  C   UNL     1      -2.006   2.364   6.034  0.00  0.00    +0.064 A 
ATOM     10  N   UNL     1      -2.318   1.153   5.420  0.00  0.00    -0.256 N 
ATOM     11  C   UNL     1      -1.644   0.745   4.301  0.00  0.00    +0.240 A 
ATOM     12  N   UNL     1      -2.136  -0.418   3.938  0.00  0.00    -0.109 NA
ATOM     13  N   UNL     1      -3.147  -0.765   4.842  0.00  0.00    -0.120 NA
ATOM     14  C   UNL     1      -3.244   0.193   5.730  0.00  0.00    +0.198 A 
ENDROOT
BRANCH   1  15
ATOM     15  C   UNL     1       0.058   1.038   2.545  0.00  0.00    +0.128 C 
BRANCH  15  16
ATOM     16  C   UNL     1      -0.672   1.542   1.298  0.00  0.00    +0.021 C 
BRANCH  16  18
ATOM     17  C   UNL     1      -0.678   1.547  -1.200  0.00  0.00    +0.004 C 
ATOM     18  C   UNL     1       0.052   1.043   0.046  0.00  0.00    -0.002 C 
ENDBRANCH  16  18
ENDBRANCH  15  16
ENDBRANCH   1  15
BRANCH  14  19
ATOM     19  S   UNL     1      -4.369   0.240   7.085  0.00  0.00    -0.076 S 
BRANCH  19  20
ATOM     20  C   UNL     1      -5.305  -1.306   6.931  0.00  0.00    +0.173 C 
BRANCH  20  21
ATOM     21  C   UNL     1      -6.317  -1.394   8.045  0.00  0.00    +0.228 C 
ATOM     22  O   UNL     1      -6.399  -0.501   8.862  0.00  0.00    -0.275 OA
ATOM     23  N   UNL     1      -7.131  -2.465   8.133  0.00  0.00    -0.282 N 
ATOM     24  H   UNL     1      -7.122  -3.139   7.436  0.00  0.00    +0.155 HD
BRANCH  23  25
ATOM     25  C   UNL     1      -7.991  -2.603   9.231  0.00  0.00    +0.076 A 
ATOM     26  C   UNL     1      -7.685  -1.986  10.435  0.00  0.00    +0.027 A 
ATOM     27  C   UNL     1      -8.537  -2.119  11.515  0.00  0.00    +0.002 A 
ATOM     28  C   UNL     1      -9.689  -2.875  11.402  0.00  0.00    +0.004 A 
ATOM     29  C   UNL     1      -9.998  -3.497  10.207  0.00  0.00    +0.047 A 
ATOM     30  C   UNL     1      -9.151  -3.364   9.118  0.00  0.00    +0.142 A 
BRANCH  30  31
ATOM     31  O   UNL     1      -9.453  -3.976   7.941  0.00  0.00    -0.490 OA
BRANCH  31  32
ATOM     32  C   UNL     1     -10.659  -4.741   7.899  0.00  0.00    +0.226 C 
ATOM     33  C   UNL     1     -10.829  -5.349   6.505  0.00  0.00    +0.048 C 
ENDBRANCH  31  32
ENDBRANCH  30  31
ENDBRANCH  23  25
ENDBRANCH  20  21
ENDBRANCH  19  20
ENDBRANCH  14  19
TORSDOF 9
