REMARK  Name = ZINC47133736
REMARK  9 active torsions:
REMARK  status: ('A' for Active; 'I' for Inactive)
REMARK    1  A    between atoms: C_1  and  C_2
REMARK    2  A    between atoms: C_2  and  C_3
REMARK    3  A    between atoms: C_6  and  C_32
REMARK    4  A    between atoms: C_7  and  C_9
REMARK    5  A    between atoms: C_15  and  C_17
REMARK    6  A    between atoms: C_17  and  C_18
REMARK    7  A    between atoms: C_18  and  N_19
REMARK    8  A    between atoms: C_23  and  C_24
REMARK    9  A    between atoms: C_32  and  C_33
REMARK                            x       y       z     vdW  Elec       q    Type
REMARK                         _______ _______ _______ _____ _____    ______ ____
ROOT
ATOM      1  C   UNL     1      -0.035  -1.484   4.771  0.00  0.00    +0.156 A 
ATOM      2  C   UNL     1      -1.461  -1.225   4.997  0.00  0.00    +0.197 A 
ATOM      3  N   UNL     1      -1.757  -1.595   6.212  0.00  0.00    -0.033 NA
ATOM      4  O   UNL     1      -0.578  -2.096   6.815  0.00  0.00    -0.240 OA
ATOM      5  N   UNL     1       0.465  -2.005   5.860  0.00  0.00    -0.047 NA
ATOM      6  N   UNL     1      -2.347  -0.676   4.072  0.00  0.00    -0.266 N 
ATOM      7  C   UNL     1      -3.613  -0.391   4.439  0.00  0.00    +0.220 C 
ATOM      8  O   UNL     1      -3.980  -0.612   5.573  0.00  0.00    -0.275 OA
ATOM      9  H   UNL     1      -2.054  -0.500   3.165  0.00  0.00    +0.156 HD
ENDROOT
BRANCH   1  14
ATOM     10  C   UNL     1       1.290   0.285   1.730  0.00  0.00    -0.047 A 
ATOM     11  C   UNL     1       2.102  -0.691   1.181  0.00  0.00    +0.004 A 
ATOM     12  C   UNL     1       2.221  -1.925   1.795  0.00  0.00    +0.004 A 
ATOM     13  C   UNL     1       1.530  -2.188   2.961  0.00  0.00    -0.038 A 
ATOM     14  C   UNL     1       0.711  -1.207   3.518  0.00  0.00    +0.011 A 
ATOM     15  C   UNL     1       0.599   0.036   2.898  0.00  0.00    +0.014 A 
BRANCH  10  17
ATOM     16  C   UNL     1       2.243   2.571   1.593  0.00  0.00    +0.009 C 
ATOM     17  C   UNL     1       1.166   1.627   1.054  0.00  0.00    +0.032 C 
ENDBRANCH  10  17
BRANCH  13  18
ATOM     18  C   UNL     1       1.660  -3.532   3.629  0.00  0.00    +0.032 C 
ATOM     19  C   UNL     1       0.514  -4.439   3.176  0.00  0.00    +0.009 C 
ENDBRANCH  13  18
ENDBRANCH   1  14
BRANCH   7  20
ATOM     20  C   UNL     1      -4.571   0.202   3.438  0.00  0.00    +0.115 C 
BRANCH  20  21
ATOM     21  C   UNL     1      -5.930   0.427   4.105  0.00  0.00    +0.124 C 
BRANCH  21  22
ATOM     22  N   UNL     1      -6.862   1.004   3.133  0.00  0.00    -0.255 N 
ATOM     23  C   UNL     1      -6.944   2.317   3.010  0.00  0.00    +0.258 C 
ATOM     24  O   UNL     1      -6.256   3.055   3.692  0.00  0.00    -0.269 OA
ATOM     25  C   UNL     1      -7.862   2.844   2.052  0.00  0.00    +0.078 C 
ATOM     26  C   UNL     1      -8.135   4.142   1.734  0.00  0.00    +0.035 C 
ATOM     27  S   UNL     1      -8.559   1.340   1.384  0.00  0.00    -0.061 S 
ATOM     28  C   UNL     1      -7.621   0.184   2.372  0.00  0.00    +0.121 C 
ATOM     29  S   UNL     1      -7.672  -1.527   2.360  0.00  0.00    -0.027 S 
BRANCH  26  30
ATOM     30  C   UNL     1      -9.096   4.440   0.741  0.00  0.00    +0.013 A 
ATOM     31  C   UNL     1      -9.513   5.680   0.268  0.00  0.00    +0.015 A 
ATOM     32  C   UNL     1     -10.474   5.649  -0.715  0.00  0.00    +0.008 A 
ATOM     33  C   UNL     1     -10.938   4.450  -1.145  0.00  0.00    +0.046 A 
ATOM     34  S   UNL     1     -10.083   3.324  -0.239  0.00  0.00    -0.097 S 
ENDBRANCH  26  30
ENDBRANCH  21  22
ENDBRANCH  20  21
ENDBRANCH   7  20
TORSDOF 7
