REMARK  Name = ZINC12638063
REMARK  9 active torsions:
REMARK  status: ('A' for Active; 'I' for Inactive)
REMARK    1  A    between atoms: C_1  and  C_2
REMARK    2  A    between atoms: C_2  and  C_3
REMARK    3  A    between atoms: C_2  and  C_4
REMARK    4  A    between atoms: C_2  and  N_5
REMARK    5  A    between atoms: C_6  and  C_8
REMARK    6  A    between atoms: C_8  and  C_10
REMARK    7  A    between atoms: C_8  and  N_16
REMARK    8  A    between atoms: N_16  and  C_17
REMARK    9  A    between atoms: C_26  and  C_28
REMARK                            x       y       z     vdW  Elec       q    Type
REMARK                         _______ _______ _______ _____ _____    ______ ____
ROOT
ATOM      1  N   UNL     1      -3.213   2.420   0.266  0.00  0.00    -0.250 N 
ATOM      2  C   UNL     1      -4.390   2.558  -0.376  0.00  0.00    +0.272 C 
ATOM      3  O   UNL     1      -4.947   3.639  -0.400  0.00  0.00    -0.268 OA
ENDROOT
BRANCH   1   4
ATOM      4  C   UNL     1      -2.519   3.554   0.707  0.00  0.00    +0.041 A 
ATOM      5  C   UNL     1      -1.393   3.411   1.507  0.00  0.00    +0.027 A 
ATOM      6  C   UNL     1      -0.707   4.529   1.943  0.00  0.00    +0.051 A 
ATOM      7  C   UNL     1      -1.141   5.794   1.582  0.00  0.00    +0.166 A 
ATOM      8  C   UNL     1      -2.269   5.941   0.780  0.00  0.00    +0.168 A 
ATOM      9  C   UNL     1      -2.953   4.820   0.339  0.00  0.00    +0.073 A 
ATOM     10  O   UNL     1      -2.486   7.272   0.569  0.00  0.00    -0.453 OA
ATOM     11  C   UNL     1      -1.247   7.922   0.910  0.00  0.00    +0.466 C 
ATOM     12  O   UNL     1      -0.650   7.035   1.875  0.00  0.00    -0.453 OA
ENDBRANCH   1   4
BRANCH   2  13
ATOM     13  C   UNL     1      -5.003   1.398  -1.048  0.00  0.00    +0.157 A 
ATOM     14  C   UNL     1      -6.268   1.426  -1.617  0.00  0.00    +0.101 A 
ATOM     15  S   UNL     1      -6.395  -0.192  -2.222  0.00  0.00    +0.029 S 
ATOM     16  N   UNL     1      -4.991  -0.749  -1.767  0.00  0.00    -0.110 NA
ATOM     17  N   UNL     1      -4.399   0.223  -1.174  0.00  0.00    -0.136 NA
ENDBRANCH   2  13
BRANCH   1  18
ATOM     18  C   UNL     1      -2.660   1.084   0.503  0.00  0.00    +0.198 C 
BRANCH  18  19
ATOM     19  C   UNL     1      -2.517   0.855   1.986  0.00  0.00    -0.018 A 
ATOM     20  C   UNL     1      -2.917   1.833   2.878  0.00  0.00    +0.006 A 
ATOM     21  C   UNL     1      -2.790   1.621   4.238  0.00  0.00    +0.000 A 
ATOM     22  C   UNL     1      -2.255   0.435   4.706  0.00  0.00    +0.000 A 
ATOM     23  C   UNL     1      -1.851  -0.540   3.814  0.00  0.00    +0.000 A 
ATOM     24  C   UNL     1      -1.982  -0.330   2.454  0.00  0.00    +0.006 A 
ENDBRANCH  18  19
BRANCH  18  26
ATOM     25  N   UNL     1      -0.606  -0.171  -0.068  0.00  0.00    -0.309 N 
ATOM     26  C   UNL     1      -1.308   0.977  -0.154  0.00  0.00    +0.239 C 
ATOM     27  O   UNL     1      -0.852   1.923  -0.761  0.00  0.00    -0.273 OA
ATOM     28  H   UNL     1      -0.971  -0.927   0.417  0.00  0.00    +0.149 HD
BRANCH  25  30
ATOM     29  C   UNL     1       1.649   0.773  -0.123  0.00  0.00    +0.031 C 
ATOM     30  C   UNL     1       0.705  -0.277  -0.712  0.00  0.00    +0.026 C 
ATOM     31  C   UNL     1       1.281  -1.674  -0.470  0.00  0.00    +0.031 C 
ATOM     32  C   UNL     1       0.555  -0.042  -2.216  0.00  0.00    +0.031 C 
ENDBRANCH  25  30
ENDBRANCH  18  26
ENDBRANCH   1  18
TORSDOF 6
