REMARK  Name = ZINC35664407
REMARK  11 active torsions:
REMARK  status: ('A' for Active; 'I' for Inactive)
REMARK    1  A    between atoms: C_1  and  C_2
REMARK    2  A    between atoms: C_2  and  N_3
REMARK    3  A    between atoms: C_4  and  C_21
REMARK    4  A    between atoms: C_5  and  C_16
REMARK    5  A    between atoms: C_6  and  C_11
REMARK    6  A    between atoms: C_16  and  O_18
REMARK    7  A    between atoms: O_18  and  C_19
REMARK    8  A    between atoms: C_19  and  C_20
REMARK    9  A    between atoms: C_21  and  N_22
REMARK   10  A    between atoms: C_29  and  C_31
REMARK   11  A    between atoms: C_34  and  C_37
REMARK                            x       y       z     vdW  Elec       q    Type
REMARK                         _______ _______ _______ _____ _____    ______ ____
ROOT
ATOM      1  N   UNL     1      -2.218  -0.114  -0.020  0.00  0.00    -0.261 N 
ATOM      2  C   UNL     1      -2.285  -0.921   1.079  0.00  0.00    +0.010 C 
ATOM      3  C   UNL     1      -3.093  -2.003   1.102  0.00  0.00    +0.076 C 
ATOM      4  C   UNL     1      -3.922  -2.290  -0.134  0.00  0.00    +0.144 C 
ATOM      5  N   UNL     1      -3.777  -1.359  -1.266  0.00  0.00    -0.288 N 
ATOM      6  C   UNL     1      -2.931  -0.318  -1.135  0.00  0.00    +0.307 C 
ATOM      7  O   UNL     1      -2.807   0.459  -2.062  0.00  0.00    -0.252 OA
ATOM      8  H   UNL     1      -4.281  -1.490  -2.084  0.00  0.00    +0.151 HD
ENDROOT
BRANCH   4   9
ATOM      9  C   UNL     1      -3.566  -3.671  -0.622  0.00  0.00    -0.015 A 
ATOM     10  C   UNL     1      -4.384  -4.748  -0.335  0.00  0.00    +0.013 A 
ATOM     11  C   UNL     1      -4.036  -5.977  -0.789  0.00  0.00    +0.045 A 
ATOM     12  S   UNL     1      -2.510  -5.634  -1.650  0.00  0.00    -0.105 S 
ATOM     13  C   UNL     1      -2.443  -3.875  -1.352  0.00  0.00    +0.051 A 
ENDBRANCH   4   9
BRANCH   1  15
ATOM     14  C   UNL     1      -2.106   2.281   0.458  0.00  0.00    +0.025 C 
ATOM     15  C   UNL     1      -1.320   1.042   0.025  0.00  0.00    +0.111 C 
ENDBRANCH   1  15
BRANCH   3  16
ATOM     16  C   UNL     1      -3.163  -2.841   2.240  0.00  0.00    +0.339 C 
ATOM     17  O   UNL     1      -2.545  -2.551   3.247  0.00  0.00    -0.245 OA
BRANCH  16  18
ATOM     18  O   UNL     1      -3.916  -3.960   2.208  0.00  0.00    -0.462 OA
BRANCH  18  19
ATOM     19  C   UNL     1      -3.940  -4.759   3.393  0.00  0.00    +0.229 C 
ATOM     20  C   UNL     1      -4.839  -5.976   3.169  0.00  0.00    +0.048 C 
ENDBRANCH  18  19
ENDBRANCH  16  18
ENDBRANCH   3  16
BRANCH   2  21
ATOM     21  C   UNL     1      -1.444  -0.600   2.288  0.00  0.00    -0.026 C 
BRANCH  21  22
ATOM     22  N   UNL     1      -0.239  -1.440   2.283  0.00  0.00    +0.384 N 
ATOM     23  C   UNL     1       0.441  -1.278   3.566  0.00  0.00    -0.077 C 
ATOM     24  C   UNL     1       1.187  -2.551   3.900  0.00  0.00    +0.000 C 
ATOM     25  C   UNL     1       2.640  -2.438   3.403  0.00  0.00    +0.106 C 
ATOM     26  N   UNL     1       2.701  -1.772   2.087  0.00  0.00    -0.299 N 
ATOM     27  C   UNL     1       1.750  -2.053   1.031  0.00  0.00    +0.089 C 
ATOM     28  C   UNL     1       0.536  -1.102   1.152  0.00  0.00    -0.059 C 
ATOM     29  C   UNL     1       3.676  -0.870   1.859  0.00  0.00    +0.247 C 
ATOM     30  O   UNL     1       3.684  -0.231   0.826  0.00  0.00    -0.270 OA
ATOM     31  H   UNL     1      -0.525  -2.404   2.196  0.00  0.00    -0.081 HD
BRANCH  29  32
ATOM     32  C   UNL     1       4.737  -0.658   2.868  0.00  0.00    +0.037 A 
ATOM     33  C   UNL     1       5.221  -1.734   3.612  0.00  0.00    +0.013 A 
ATOM     34  C   UNL     1       6.211  -1.530   4.551  0.00  0.00    +0.004 A 
ATOM     35  C   UNL     1       6.723  -0.261   4.756  0.00  0.00    -0.050 A 
ATOM     36  C   UNL     1       6.246   0.811   4.022  0.00  0.00    +0.004 A 
ATOM     37  C   UNL     1       5.261   0.619   3.075  0.00  0.00    +0.013 A 
ATOM     38  C   UNL     1       7.803  -0.045   5.784  0.00  0.00    +0.044 C 
ENDBRANCH  29  32
ENDBRANCH  21  22
ENDBRANCH   2  21
TORSDOF 8
