REMARK  Name = ZINC09054295
REMARK  3 active torsions:
REMARK  status: ('A' for Active; 'I' for Inactive)
REMARK    1  A    between atoms: C_4  and  N_7
REMARK    2  A    between atoms: C_14  and  C_17
REMARK    3  A    between atoms: C_21  and  C_30
REMARK                            x       y       z     vdW  Elec       q    Type
REMARK                         _______ _______ _______ _____ _____    ______ ____
ROOT
ATOM      1  C   UNL     1      -4.381   7.392  -1.635  0.00  0.00    +0.225 C 
ATOM      2  O   UNL     1      -4.159   8.584  -1.593  0.00  0.00    -0.275 OA
ATOM      3  N   UNL     1      -4.223   6.718  -2.792  0.00  0.00    -0.264 N 
ATOM      4  C   UNL     1      -4.613   5.303  -2.908  0.00  0.00    +0.168 C 
ATOM      5  C   UNL     1      -3.514   4.582  -3.702  0.00  0.00    +0.276 C 
ATOM      6  O   UNL     1      -3.379   5.212  -4.979  0.00  0.00    -0.476 OA
ATOM      7  C   UNL     1      -3.260   6.566  -5.007  0.00  0.00    +0.143 A 
ATOM      8  C   UNL     1      -3.679   7.341  -3.928  0.00  0.00    +0.078 A 
ATOM      9  C   UNL     1      -3.555   8.720  -3.972  0.00  0.00    +0.027 A 
ATOM     10  C   UNL     1      -3.012   9.328  -5.090  0.00  0.00    +0.002 A 
ATOM     11  C   UNL     1      -2.593   8.560  -6.161  0.00  0.00    +0.004 A 
ATOM     12  C   UNL     1      -2.716   7.184  -6.122  0.00  0.00    +0.047 A 
ENDROOT
BRANCH   1  20
ATOM     13  N   UNL     1      -4.450   3.400   2.804  0.00  0.00    -0.269 N 
ATOM     14  C   UNL     1      -3.950   3.952   1.682  0.00  0.00    +0.306 C 
ATOM     15  O   UNL     1      -3.377   3.257   0.865  0.00  0.00    -0.252 OA
ATOM     16  N   UNL     1      -4.084   5.275   1.464  0.00  0.00    -0.285 N 
ATOM     17  C   UNL     1      -4.656   6.150   2.498  0.00  0.00    +0.109 C 
ATOM     18  C   UNL     1      -5.817   6.941   1.887  0.00  0.00    +0.020 C 
ATOM     19  C   UNL     1      -5.325   7.680   0.640  0.00  0.00    +0.016 C 
ATOM     20  C   UNL     1      -4.835   6.666  -0.396  0.00  0.00    +0.093 C 
ATOM     21  C   UNL     1      -3.663   5.870   0.188  0.00  0.00    +0.122 C 
ATOM     22  H   UNL     1      -4.968   3.940   3.422  0.00  0.00    +0.156 HD
BRANCH  13  26
ATOM     23  C   UNL     1      -3.775  -0.629   3.623  0.00  0.00    +0.000 A 
ATOM     24  C   UNL     1      -4.855   0.018   4.192  0.00  0.00    +0.002 A 
ATOM     25  C   UNL     1      -5.082   1.354   3.923  0.00  0.00    +0.023 A 
ATOM     26  C   UNL     1      -4.223   2.046   3.079  0.00  0.00    +0.035 A 
ATOM     27  C   UNL     1      -3.142   1.391   2.505  0.00  0.00    +0.023 A 
ATOM     28  C   UNL     1      -2.917   0.057   2.782  0.00  0.00    +0.002 A 
ENDBRANCH  13  26
ENDBRANCH   1  20
BRANCH   5  29
ATOM     29  C   UNL     1      -3.893   3.136  -3.891  0.00  0.00    +0.258 C 
ATOM     30  O   UNL     1      -4.447   2.782  -4.910  0.00  0.00    -0.271 OA
ATOM     31  N   UNL     1      -3.616   2.236  -2.927  0.00  0.00    -0.298 N 
ATOM     32  C   UNL     1      -4.048   0.838  -3.062  0.00  0.00    +0.108 C 
ATOM     33  C   UNL     1      -2.832  -0.075  -2.878  0.00  0.00    +0.019 C 
ATOM     34  C   UNL     1      -2.153   0.248  -1.545  0.00  0.00    +0.003 C 
ATOM     35  C   UNL     1      -1.671   1.700  -1.554  0.00  0.00    +0.019 C 
ATOM     36  C   UNL     1      -2.874   2.633  -1.722  0.00  0.00    +0.108 C 
ENDBRANCH   5  29
TORSDOF 3
