REMARK  Name = ZINC36643729
REMARK  9 active torsions:
REMARK  status: ('A' for Active; 'I' for Inactive)
REMARK    1  A    between atoms: C_1  and  C_2
REMARK    2  A    between atoms: C_4  and  C_35
REMARK    3  A    between atoms: N_11  and  C_12
REMARK    4  A    between atoms: C_12  and  C_13
REMARK    5  A    between atoms: C_13  and  C_14
REMARK    6  A    between atoms: C_14  and  N_15
REMARK    7  A    between atoms: N_15  and  C_16
REMARK    8  A    between atoms: N_15  and  C_17
REMARK    9  A    between atoms: C_18  and  C_20
REMARK                            x       y       z     vdW  Elec       q    Type
REMARK                         _______ _______ _______ _____ _____    ______ ____
ROOT
ATOM      1  C   UNL     1      -0.480   1.430  -0.173  0.00  0.00    +0.044 C 
ATOM      2  C   UNL     1      -0.317  -0.068  -0.142  0.00  0.00    -0.048 A 
ATOM      3  C   UNL     1      -0.120  -0.753  -1.333  0.00  0.00    +0.008 A 
ATOM      4  C   UNL     1       0.030  -2.127  -1.307  0.00  0.00    -0.034 A 
ATOM      5  C   UNL     1      -0.018  -2.792  -0.107  0.00  0.00    +0.044 A 
ATOM      6  C   UNL     1      -0.216  -2.128   1.125  0.00  0.00    +0.081 A 
ATOM      7  C   UNL     1      -0.360  -0.722   1.061  0.00  0.00    +0.032 A 
ATOM      8  N   UNL     1      -0.239  -2.920   2.219  0.00  0.00    -0.224 NA
ATOM      9  C   UNL     1      -0.088  -4.222   2.151  0.00  0.00    +0.168 A 
ATOM     10  S   UNL     1       0.120  -4.490   0.396  0.00  0.00    -0.052 S 
ATOM     11  N   UNL     1      -0.088  -5.151   3.177  0.00  0.00    -0.246 N 
ATOM     12  C   UNL     1       0.086  -6.459   2.901  0.00  0.00    +0.259 C 
ATOM     13  O   UNL     1       0.335  -6.813   1.765  0.00  0.00    -0.269 OA
ATOM     14  C   UNL     1       0.245  -2.891  -2.589  0.00  0.00    +0.045 C 
ENDROOT
BRANCH  12  15
ATOM     15  C   UNL     1      -0.025  -7.457   3.976  0.00  0.00    +0.122 A 
ATOM     16  C   UNL     1       1.015  -7.675   4.877  0.00  0.00    +0.032 A 
ATOM     17  C   UNL     1       0.844  -8.671   5.859  0.00  0.00    +0.026 A 
ATOM     18  C   UNL     1       1.793  -8.806   6.966  0.00  0.00    -0.007 A 
ATOM     19  C   UNL     1       2.909  -7.973   7.080  0.00  0.00    +0.009 A 
ATOM     20  C   UNL     1       3.768  -8.134   8.128  0.00  0.00    +0.001 A 
ATOM     21  C   UNL     1       3.547  -9.119   9.086  0.00  0.00    +0.001 A 
ATOM     22  C   UNL     1       2.468  -9.947   9.003  0.00  0.00    +0.008 A 
ATOM     23  C   UNL     1       1.564  -9.808   7.938  0.00  0.00    -0.017 A 
ATOM     24  C   UNL     1       0.437 -10.646   7.821  0.00  0.00    +0.012 A 
ATOM     25  C   UNL     1      -0.429 -10.516   6.785  0.00  0.00    +0.047 A 
ATOM     26  C   UNL     1      -0.248  -9.549   5.792  0.00  0.00    +0.140 A 
ATOM     27  O   UNL     1      -1.113  -9.473   4.753  0.00  0.00    -0.422 OA
ATOM     28  C   UNL     1      -1.244  -8.266   4.150  0.00  0.00    +0.350 A 
ATOM     29  O   UNL     1      -2.326  -7.867   3.762  0.00  0.00    -0.244 OA
ENDBRANCH  12  15
BRANCH  11  30
ATOM     30  C   UNL     1      -0.277  -4.712   4.562  0.00  0.00    +0.114 C 
BRANCH  30  31
ATOM     31  C   UNL     1      -1.773  -4.617   4.867  0.00  0.00    +0.001 C 
BRANCH  31  32
ATOM     32  C   UNL     1      -1.970  -4.159   6.313  0.00  0.00    -0.078 C 
BRANCH  32  33
ATOM     33  N   UNL     1      -3.407  -4.068   6.606  0.00  0.00    +0.376 N 
ATOM     34  C   UNL     1      -3.597  -3.745   8.027  0.00  0.00    -0.097 C 
ATOM     35  C   UNL     1      -4.009  -3.014   5.779  0.00  0.00    -0.097 C 
ATOM     36  H   UNL     1      -3.849  -4.951   6.400  0.00  0.00    -0.083 HD
ENDBRANCH  32  33
ENDBRANCH  31  32
ENDBRANCH  30  31
ENDBRANCH  11  30
TORSDOF 5
