REMARK  Name = ZINC37423692
REMARK  12 active torsions:
REMARK  status: ('A' for Active; 'I' for Inactive)
REMARK    1  A    between atoms: C_1  and  C_2
REMARK    2  A    between atoms: C_2  and  C_3
REMARK    3  A    between atoms: C_3  and  C_5
REMARK    4  A    between atoms: C_3  and  N_6
REMARK    5  A    between atoms: N_6  and  C_7
REMARK    6  A    between atoms: C_7  and  C_8
REMARK    7  A    between atoms: C_13  and  O_14
REMARK    8  A    between atoms: O_14  and  S_15
REMARK    9  A    between atoms: S_15  and  C_18
REMARK   10  A    between atoms: C_21  and  N_24
REMARK   11  A    between atoms: C_25  and  C_27
REMARK   12  A    between atoms: C_29  and  C_31
REMARK                            x       y       z     vdW  Elec       q    Type
REMARK                         _______ _______ _______ _____ _____    ______ ____
ROOT
ATOM      1  C   UNL     1      -4.029  -1.095   2.111  0.00  0.00    +0.016 A 
ATOM      2  C   UNL     1      -5.194  -1.188   1.374  0.00  0.00    +0.029 A 
ATOM      3  C   UNL     1      -6.144  -2.141   1.696  0.00  0.00    +0.042 A 
ATOM      4  C   UNL     1      -5.929  -3.003   2.757  0.00  0.00    +0.023 A 
ATOM      5  C   UNL     1      -4.766  -2.913   3.496  0.00  0.00    +0.050 A 
ATOM      6  C   UNL     1      -3.810  -1.962   3.171  0.00  0.00    +0.162 A 
ATOM      7 CL   UNL     1      -7.607  -2.255   0.768  0.00  0.00    -0.084 Cl
ENDROOT
BRANCH   1   8
ATOM      8  C   UNL     1      -2.995  -0.057   1.760  0.00  0.00    +0.147 C 
BRANCH   8   9
ATOM      9  N   UNL     1      -1.923  -0.680   0.980  0.00  0.00    -0.290 N 
ATOM     10  C   UNL     1      -0.853  -1.207   1.607  0.00  0.00    +0.254 C 
ATOM     11  O   UNL     1      -0.727  -1.076   2.811  0.00  0.00    -0.269 OA
BRANCH  10  12
ATOM     12  C   UNL     1       0.160  -1.938   0.840  0.00  0.00    +0.074 A 
ATOM     13  C   UNL     1       1.263  -2.642   1.298  0.00  0.00    +0.021 A 
ATOM     14  C   UNL     1       2.040  -3.230   0.328  0.00  0.00    +0.008 A 
ATOM     15  C   UNL     1       1.689  -3.088  -0.974  0.00  0.00    +0.046 A 
ATOM     16  S   UNL     1       0.289  -2.160  -0.924  0.00  0.00    -0.092 S 
ENDBRANCH  10  12
BRANCH   9  17
ATOM     17  C   UNL     1      -2.013  -0.729  -0.481  0.00  0.00    +0.073 C 
ATOM     18  C   UNL     1      -2.039  -2.188  -0.941  0.00  0.00    +0.028 C 
BRANCH  17  20
ATOM     19  C   UNL     1      -0.985   1.491  -0.983  0.00  0.00    +0.005 C 
ATOM     20  C   UNL     1      -0.801  -0.024  -1.091  0.00  0.00    +0.019 C 
ENDBRANCH  17  20
ENDBRANCH   9  17
ENDBRANCH   8   9
ENDBRANCH   1   8
BRANCH   6  21
ATOM     21  O   UNL     1      -2.662  -1.877   3.894  0.00  0.00    -0.342 OA
BRANCH  21  22
ATOM     22  S   UNL     1      -2.750  -0.936   5.087  0.00  0.00    +0.151 S 
ATOM     23  O   UNL     1      -1.431  -0.803   5.598  0.00  0.00    -0.131 OA
ATOM     24  O   UNL     1      -3.521   0.182   4.667  0.00  0.00    -0.131 OA
BRANCH  22  25
ATOM     25  C   UNL     1      -3.692  -1.757   6.330  0.00  0.00    +0.128 A 
ATOM     26  C   UNL     1      -5.066  -1.610   6.364  0.00  0.00    +0.032 A 
ATOM     27  C   UNL     1      -5.807  -2.252   7.337  0.00  0.00    +0.025 A 
ATOM     28  C   UNL     1      -5.170  -3.048   8.280  0.00  0.00    +0.033 A 
ATOM     29  C   UNL     1      -3.789  -3.195   8.242  0.00  0.00    +0.025 A 
ATOM     30  C   UNL     1      -3.055  -2.553   7.264  0.00  0.00    +0.032 A 
BRANCH  28  31
ATOM     31  N   UNL     1      -5.917  -3.700   9.267  0.00  0.00    -0.286 N 
ATOM     32  C   UNL     1      -7.157  -4.148   8.988  0.00  0.00    +0.214 C 
ATOM     33  O   UNL     1      -7.591  -4.067   7.858  0.00  0.00    -0.276 OA
ATOM     34  C   UNL     1      -8.005  -4.748  10.079  0.00  0.00    +0.109 C 
ATOM     35  H   UNL     1      -5.543  -3.830  10.153  0.00  0.00    +0.155 HD
ENDBRANCH  28  31
ENDBRANCH  22  25
ENDBRANCH  21  22
ENDBRANCH   6  21
TORSDOF 9
