REMARK  Name = ZINC02158875
REMARK  12 active torsions:
REMARK  status: ('A' for Active; 'I' for Inactive)
REMARK    1  A    between atoms: C_1  and  C_2
REMARK    2  A    between atoms: C_2  and  C_33
REMARK    3  A    between atoms: C_4  and  N_9
REMARK    4  A    between atoms: C_6  and  C_7
REMARK    5  A    between atoms: C_6  and  C_8
REMARK    6  A    between atoms: C_10  and  C_12
REMARK    7  A    between atoms: C_14  and  C_31
REMARK    8  A    between atoms: C_14  and  C_32
REMARK    9  A    between atoms: C_25  and  O_29
REMARK   10  A    between atoms: C_26  and  O_27
REMARK   11  A    between atoms: O_27  and  C_28
REMARK   12  A    between atoms: O_29  and  C_30
REMARK                            x       y       z     vdW  Elec       q    Type
REMARK                         _______ _______ _______ _____ _____    ______ ____
ROOT
ATOM      1  C   UNL     1       2.462   0.920  -0.017  0.00  0.00    +0.179 C 
ATOM      2  C   UNL     1       2.692   0.346  -1.435  0.00  0.00    +0.040 C 
ATOM      3  S   UNL     1       4.145   1.334  -2.002  0.00  0.00    -0.125 S 
ATOM      4  C   UNL     1       4.029   2.653  -0.720  0.00  0.00    +0.167 C 
ATOM      5  N   UNL     1       3.518   1.836   0.419  0.00  0.00    -0.268 N 
ATOM      6  C   UNL     1       4.240   2.206   1.499  0.00  0.00    +0.252 C 
ATOM      7  O   UNL     1       3.907   2.032   2.655  0.00  0.00    -0.270 OA
ATOM      8  C   UNL     1       5.491   2.852   1.067  0.00  0.00    +0.088 A 
ATOM      9  C   UNL     1       5.399   3.105  -0.308  0.00  0.00    -0.001 A 
ATOM     10  C   UNL     1       6.458   3.665  -0.982  0.00  0.00    +0.011 A 
ATOM     11  C   UNL     1       7.620   3.999  -0.303  0.00  0.00    +0.050 A 
ATOM     12  C   UNL     1       7.722   3.771   1.058  0.00  0.00    +0.162 A 
ATOM     13  C   UNL     1       6.661   3.197   1.752  0.00  0.00    +0.174 A 
ATOM     14  C   UNL     1       3.031  -1.144  -1.376  0.00  0.00    +0.025 C 
ATOM     15  C   UNL     1       1.476   0.595  -2.330  0.00  0.00    +0.025 C 
ENDROOT
BRANCH   1  17
ATOM     16  N   UNL     1      -0.011   0.966   0.007  0.00  0.00    -0.311 N 
ATOM     17  C   UNL     1       1.147   1.655   0.000  0.00  0.00    +0.235 C 
ATOM     18  O   UNL     1       1.130   2.868   0.007  0.00  0.00    -0.274 OA
ATOM     19  H   UNL     1       0.002  -0.004   0.002  0.00  0.00    +0.149 HD
BRANCH  16  23
ATOM     20  C   UNL     1      -3.754   2.572  -1.672  0.00  0.00    -0.010 C 
ATOM     21  C   UNL     1      -3.724   1.502  -0.574  0.00  0.00    -0.072 C 
ATOM     22  C   UNL     1      -2.373   0.790  -0.592  0.00  0.00    +0.009 C 
ATOM     23  C   UNL     1      -1.292   1.683   0.017  0.00  0.00    +0.070 C 
ATOM     24  C   UNL     1      -1.681   1.999   1.461  0.00  0.00    +0.009 C 
ATOM     25  C   UNL     1      -3.022   2.727   1.503  0.00  0.00    -0.072 C 
ATOM     26  C   UNL     1      -2.830   4.181   1.057  0.00  0.00    -0.010 C 
ATOM     27  C   UNL     1      -3.489   2.759   2.975  0.00  0.00    -0.010 C 
ATOM     28  C   UNL     1      -4.805   0.456  -0.925  0.00  0.00    -0.010 C 
ATOM     29  N   UNL     1      -4.118   2.065   0.745  0.00  0.00    +0.386 N 
ATOM     30  H   UNL     1      -4.485   1.298   1.321  0.00  0.00    -0.084 HD
ATOM     31  H   UNL     1      -4.859   2.759   0.586  0.00  0.00    -0.084 HD
ENDBRANCH  16  23
ENDBRANCH   1  17
BRANCH  13  32
ATOM     32  O   UNL     1       6.761   2.973   3.087  0.00  0.00    -0.491 OA
ATOM     33  C   UNL     1       6.333   4.024   3.956  0.00  0.00    +0.277 C 
ENDBRANCH  13  32
BRANCH  12  34
ATOM     34  O   UNL     1       8.862   4.108   1.719  0.00  0.00    -0.491 OA
ATOM     35  C   UNL     1       9.912   4.693   0.945  0.00  0.00    +0.277 C 
ENDBRANCH  12  34
TORSDOF 4
