REMARK  Name = ZINC38857173
REMARK  5 active torsions:
REMARK  status: ('A' for Active; 'I' for Inactive)
REMARK    1  A    between atoms: C_1  and  C_2
REMARK    2  A    between atoms: C_7  and  N_8
REMARK    3  A    between atoms: C_14  and  C_16
REMARK    4  A    between atoms: N_21  and  C_23
REMARK    5  A    between atoms: C_23  and  C_24
REMARK                            x       y       z     vdW  Elec       q    Type
REMARK                         _______ _______ _______ _____ _____    ______ ____
ROOT
ATOM      1  N   UNL     1      -0.318   1.570   2.413  0.00  0.00    -0.327 N 
ATOM      2  C   UNL     1      -1.528   1.350   3.218  0.00  0.00    +0.124 C 
ATOM      3  C   UNL     1      -1.218   0.301   4.293  0.00  0.00    +0.126 C 
ATOM      4  N   UNL     1       0.027   0.681   4.975  0.00  0.00    -0.298 N 
ATOM      5  C   UNL     1       1.237   0.901   4.171  0.00  0.00    +0.126 C 
ATOM      6  C   UNL     1       0.928   1.945   3.096  0.00  0.00    +0.124 C 
ATOM      7  C   UNL     1       0.058   0.826   6.315  0.00  0.00    +0.217 C 
ATOM      8  O   UNL     1      -0.963   0.718   6.960  0.00  0.00    -0.275 OA
ENDROOT
BRANCH   1  15
ATOM      9  C   UNL     1      -0.942   3.850   0.832  0.00  0.00    +0.045 C 
ATOM     10  C   UNL     1      -0.650   2.507   0.214  0.00  0.00    -0.029 A 
ATOM     11  C   UNL     1      -0.675   2.357  -1.159  0.00  0.00    +0.006 A 
ATOM     12  C   UNL     1      -0.408   1.125  -1.726  0.00  0.00    +0.020 A 
ATOM     13  C   UNL     1      -0.114   0.038  -0.921  0.00  0.00    +0.043 A 
ATOM     14  C   UNL     1      -0.087   0.182   0.453  0.00  0.00    +0.043 A 
ATOM     15  C   UNL     1      -0.350   1.420   1.025  0.00  0.00    +0.034 A 
ATOM     16 CL   UNL     1       0.222  -1.507  -1.639  0.00  0.00    -0.083 Cl
ENDBRANCH   1  15
BRANCH   7  17
ATOM     17  C   UNL     1       1.361   1.121   7.011  0.00  0.00    +0.059 C 
ATOM     18  C   UNL     1       2.136  -0.183   7.221  0.00  0.00    +0.009 C 
ATOM     19  C   UNL     1       3.421   0.118   7.997  0.00  0.00    -0.018 C 
ATOM     20  C   UNL     1       3.064   0.800   9.320  0.00  0.00    -0.078 C 
ATOM     21  N   UNL     1       2.349   2.053   9.050  0.00  0.00    +0.383 N 
ATOM     22  C   UNL     1       1.081   1.767   8.369  0.00  0.00    -0.066 C 
ATOM     23  H   UNL     1       2.918   2.645   8.464  0.00  0.00    -0.081 HD
BRANCH  21  24
ATOM     24  C   UNL     1       2.077   2.742  10.319  0.00  0.00    -0.043 C 
BRANCH  24  25
ATOM     25  C   UNL     1       3.379   3.154  10.956  0.00  0.00    -0.063 A 
ATOM     26  C   UNL     1       4.027   2.294  11.823  0.00  0.00    +0.002 A 
ATOM     27  C   UNL     1       5.221   2.671  12.408  0.00  0.00    +0.001 A 
ATOM     28  C   UNL     1       5.768   3.909  12.126  0.00  0.00    +0.015 A 
ATOM     29  C   UNL     1       5.120   4.770  11.258  0.00  0.00    +0.018 A 
ATOM     30  C   UNL     1       3.928   4.390  10.669  0.00  0.00    +0.017 A 
ATOM     31 BR   UNL     1       5.867   6.464  10.873  0.00  0.00    -0.050 Br
ENDBRANCH  24  25
ENDBRANCH  21  24
ENDBRANCH   7  17
TORSDOF 4
