REMARK  Name = ZINC22363720
REMARK  12 active torsions:
REMARK  status: ('A' for Active; 'I' for Inactive)
REMARK    1  A    between atoms: C_1  and  C_2
REMARK    2  A    between atoms: C_5  and  S_11
REMARK    3  A    between atoms: C_7  and  N_8
REMARK    4  A    between atoms: S_11  and  N_14
REMARK    5  A    between atoms: N_14  and  C_15
REMARK    6  A    between atoms: N_14  and  C_29
REMARK    7  A    between atoms: C_15  and  C_16
REMARK    8  A    between atoms: N_18  and  C_19
REMARK    9  A    between atoms: N_18  and  C_20
REMARK   10  A    between atoms: C_26  and  O_28
REMARK   11  A    between atoms: C_34  and  O_35
REMARK   12  A    between atoms: O_35  and  C_36
REMARK                            x       y       z     vdW  Elec       q    Type
REMARK                         _______ _______ _______ _____ _____    ______ ____
ROOT
ATOM      1  N   UNL     1      -3.797   7.658  -0.152  0.00  0.00    -0.191 N 
ENDROOT
BRANCH   1   2
ATOM      2  C   UNL     1      -4.243   7.618   1.175  0.00  0.00    +0.095 A 
ATOM      3  C   UNL     1      -4.037   8.706   2.010  0.00  0.00    +0.048 A 
ATOM      4  C   UNL     1      -4.483   8.666   3.319  0.00  0.00    +0.043 A 
ATOM      5  C   UNL     1      -5.125   7.539   3.800  0.00  0.00    +0.024 A 
ATOM      6  C   UNL     1      -5.328   6.449   2.973  0.00  0.00    +0.049 A 
ATOM      7  C   UNL     1      -4.889   6.483   1.660  0.00  0.00    +0.143 A 
ATOM      8 CL   UNL     1      -4.231  10.030   4.362  0.00  0.00    -0.083 Cl
BRANCH   7   9
ATOM      9  O   UNL     1      -5.088   5.411   0.847  0.00  0.00    -0.493 OA
ATOM     10  C   UNL     1      -5.757   4.283   1.413  0.00  0.00    +0.277 C 
ENDBRANCH   7   9
ENDBRANCH   1   2
BRANCH   1  11
ATOM     11  S   UNL     1      -4.835   8.107  -1.361  0.00  0.00    +0.075 S 
ATOM     12  O   UNL     1      -5.848   8.898  -0.754  0.00  0.00    -0.150 OA
ATOM     13  O   UNL     1      -4.030   8.589  -2.429  0.00  0.00    -0.150 OA
BRANCH  11  18
ATOM     14  C   UNL     1      -7.528   3.091  -3.358  0.00  0.00    +0.046 C 
ATOM     15  C   UNL     1      -6.856   4.344  -2.859  0.00  0.00    -0.020 A 
ATOM     16  C   UNL     1      -7.420   5.067  -1.825  0.00  0.00    +0.007 A 
ATOM     17  C   UNL     1      -6.804   6.216  -1.368  0.00  0.00    +0.029 A 
ATOM     18  C   UNL     1      -5.622   6.642  -1.944  0.00  0.00    +0.111 A 
ATOM     19  C   UNL     1      -5.059   5.923  -2.982  0.00  0.00    +0.061 A 
ATOM     20  C   UNL     1      -5.675   4.771  -3.437  0.00  0.00    +0.131 A 
BRANCH  20  21
ATOM     21  N   UNL     1      -5.070   3.997  -4.544  0.00  0.00    +0.057 N 
ATOM     22  O   UNL     1      -3.974   4.307  -4.976  0.00  0.00    -0.126 OA
ATOM     23  O   UNL     1      -5.668   3.050  -5.023  0.00  0.00    -0.126 OA
ENDBRANCH  20  21
ENDBRANCH  11  18
ENDBRANCH   1  11
BRANCH   1  24
ATOM     24  C   UNL     1      -2.412   7.301  -0.470  0.00  0.00    +0.227 C 
BRANCH  24  25
ATOM     25  C   UNL     1      -2.302   5.807  -0.629  0.00  0.00    +0.235 C 
ATOM     26  O   UNL     1      -3.283   5.108  -0.491  0.00  0.00    -0.274 OA
ATOM     27  N   UNL     1      -1.112   5.247  -0.926  0.00  0.00    -0.298 N 
ATOM     28  C   UNL     1       0.073   6.091  -1.093  0.00  0.00    +0.132 C 
BRANCH  27  29
ATOM     29  C   UNL     1      -1.005   3.794  -1.081  0.00  0.00    +0.104 C 
ATOM     30  C   UNL     1      -0.515   3.467  -2.493  0.00  0.00    +0.025 C 
ATOM     31  C   UNL     1      -0.403   1.949  -2.655  0.00  0.00    +0.002 C 
ATOM     32  C   UNL     1       0.590   1.399  -1.630  0.00  0.00    +0.003 C 
ATOM     33  C   UNL     1       0.100   1.726  -0.218  0.00  0.00    +0.033 C 
ATOM     34  C   UNL     1      -0.012   3.243  -0.056  0.00  0.00    +0.135 C 
BRANCH  34  35
ATOM     35  O   UNL     1      -0.470   3.549   1.263  0.00  0.00    -0.390 OA
ATOM     36  H   UNL     1       0.117   3.231   2.137  0.00  0.00    +0.210 HD
ENDBRANCH  34  35
ENDBRANCH  27  29
ENDBRANCH  24  25
ENDBRANCH   1  24
TORSDOF 9
