REMARK  Name = ZINC02106886
REMARK  8 active torsions:
REMARK  status: ('A' for Active; 'I' for Inactive)
REMARK    1  A    between atoms: C_1  and  C_2
REMARK    2  A    between atoms: C_3  and  C_34
REMARK    3  A    between atoms: N_9  and  C_28
REMARK    4  A    between atoms: C_10  and  S_12
REMARK    5  A    between atoms: S_12  and  C_13
REMARK    6  A    between atoms: C_13  and  C_14
REMARK    7  A    between atoms: N_16  and  C_17
REMARK    8  A    between atoms: C_18  and  C_26
REMARK                            x       y       z     vdW  Elec       q    Type
REMARK                         _______ _______ _______ _____ _____    ______ ____
ROOT
ATOM      1  C   UNL     1      -5.010  15.146  -6.690  0.00  0.00    +0.045 C 
ATOM      2  C   UNL     1      -4.494  14.427  -5.470  0.00  0.00    -0.026 A 
ATOM      3  C   UNL     1      -4.377  15.074  -4.301  0.00  0.00    -0.008 A 
ATOM      4  S   UNL     1      -3.742  13.825  -3.198  0.00  0.00    -0.073 S 
ATOM      5  C   UNL     1      -3.653  12.469  -4.340  0.00  0.00    +0.117 A 
ATOM      6  C   UNL     1      -4.119  13.026  -5.546  0.00  0.00    +0.075 A 
ATOM      7  C   UNL     1      -4.157  12.138  -6.667  0.00  0.00    +0.263 A 
ATOM      8  O   UNL     1      -4.546  12.531  -7.753  0.00  0.00    -0.267 OA
ATOM      9  N   UNL     1      -3.752  10.864  -6.509  0.00  0.00    -0.284 N 
ATOM     10  C   UNL     1      -3.318  10.405  -5.299  0.00  0.00    +0.173 A 
ATOM     11  N   UNL     1      -3.273  11.201  -4.250  0.00  0.00    -0.216 NA
ATOM     12  C   UNL     1      -4.704  16.512  -3.992  0.00  0.00    +0.052 C 
ENDROOT
BRANCH   9  13
ATOM     13  C   UNL     1      -3.783   9.953  -7.655  0.00  0.00    +0.093 C 
ATOM     14  C   UNL     1      -2.885  10.500  -8.766  0.00  0.00    +0.025 C 
ATOM     15  C   UNL     1      -2.917   9.548  -9.963  0.00  0.00    +0.002 C 
ATOM     16  C   UNL     1      -4.352   9.426 -10.480  0.00  0.00    +0.000 C 
ATOM     17  C   UNL     1      -5.250   8.879  -9.369  0.00  0.00    +0.002 C 
ATOM     18  C   UNL     1      -5.218   9.831  -8.172  0.00  0.00    +0.025 C 
ENDBRANCH   9  13
BRANCH  10  19
ATOM     19  S   UNL     1      -2.805   8.727  -5.140  0.00  0.00    -0.078 S 
BRANCH  19  20
ATOM     20  C   UNL     1      -2.349   8.702  -3.389  0.00  0.00    +0.173 C 
BRANCH  20  21
ATOM     21  C   UNL     1      -1.865   7.325  -3.014  0.00  0.00    +0.228 C 
ATOM     22  O   UNL     1      -1.833   6.446  -3.850  0.00  0.00    -0.275 OA
ATOM     23  N   UNL     1      -1.469   7.069  -1.752  0.00  0.00    -0.278 N 
ATOM     24  H   UNL     1      -1.496   7.772  -1.084  0.00  0.00    +0.155 HD
BRANCH  23  25
ATOM     25  C   UNL     1      -1.024   5.801  -1.407  0.00  0.00    +0.090 A 
ATOM     26  C   UNL     1      -0.580   5.348  -0.174  0.00  0.00    +0.084 A 
ATOM     27  C   UNL     1      -0.165   3.960  -0.076  0.00  0.00    -0.018 A 
ATOM     28  C   UNL     1      -0.259   3.250  -1.222  0.00  0.00    -0.004 A 
ATOM     29  S   UNL     1      -0.888   4.397  -2.415  0.00  0.00    -0.077 S 
ATOM     30  C   UNL     1       0.096   1.809  -1.423  0.00  0.00    +0.043 C 
ATOM     31  C   UNL     1       0.938   1.347  -0.225  0.00  0.00    +0.005 C 
ATOM     32  C   UNL     1       0.251   1.796   1.068  0.00  0.00    +0.005 C 
ATOM     33  C   UNL     1       0.344   3.315   1.207  0.00  0.00    +0.037 C 
BRANCH  26  34
ATOM     34  C   UNL     1      -0.534   6.219   0.963  0.00  0.00    +0.102 C 
ATOM     35  N   UNL     1      -0.497   6.909   1.864  0.00  0.00    -0.191 NA
ENDBRANCH  26  34
ENDBRANCH  23  25
ENDBRANCH  20  21
ENDBRANCH  19  20
ENDBRANCH  10  19
TORSDOF 6
