REMARK  Name = ZINC12469824
REMARK  12 active torsions:
REMARK  status: ('A' for Active; 'I' for Inactive)
REMARK    1  A    between atoms: C_1  and  C_2
REMARK    2  A    between atoms: N_7  and  S_9
REMARK    3  A    between atoms: S_9  and  C_12
REMARK    4  A    between atoms: C_15  and  S_18
REMARK    5  A    between atoms: S_18  and  N_21
REMARK    6  A    between atoms: N_21  and  C_22
REMARK    7  A    between atoms: N_21  and  C_33
REMARK    8  A    between atoms: C_22  and  C_23
REMARK    9  A    between atoms: C_26  and  C_29
REMARK   10  A    between atoms: C_29  and  C_30
REMARK   11  A    between atoms: C_29  and  C_31
REMARK   12  A    between atoms: C_29  and  C_32
REMARK                            x       y       z     vdW  Elec       q    Type
REMARK                         _______ _______ _______ _____ _____    ______ ____
ROOT
ATOM      1  S   UNL     1       1.526  -0.528   2.352  0.00  0.00    +0.061 S 
ATOM      2  O   UNL     1       1.385  -1.309   3.531  0.00  0.00    -0.153 OA
ATOM      3  O   UNL     1       2.525  -0.795   1.377  0.00  0.00    -0.153 OA
ENDROOT
BRANCH   1   7
ATOM      4  C   UNL     1       2.144   3.749   3.699  0.00  0.00    +0.106 A 
ATOM      5  C   UNL     1       1.444   2.866   4.500  0.00  0.00    +0.030 A 
ATOM      6  C   UNL     1       1.256   1.560   4.089  0.00  0.00    +0.030 A 
ATOM      7  C   UNL     1       1.767   1.137   2.876  0.00  0.00    +0.106 A 
ATOM      8  C   UNL     1       2.471   2.018   2.078  0.00  0.00    +0.030 A 
ATOM      9  C   UNL     1       2.657   3.325   2.487  0.00  0.00    +0.030 A 
BRANCH   4  10
ATOM     10  S   UNL     1       2.384   5.414   4.223  0.00  0.00    +0.061 S 
ATOM     11  O   UNL     1       2.601   6.183   3.047  0.00  0.00    -0.153 OA
ATOM     12  O   UNL     1       1.340   5.705   5.142  0.00  0.00    -0.153 OA
BRANCH  10  18
ATOM     13  C   UNL     1       4.906   3.966   8.383  0.00  0.00    +0.009 C 
ATOM     14  C   UNL     1       4.793   4.119   6.865  0.00  0.00    +0.002 C 
ATOM     15  C   UNL     1       6.164   4.476   6.284  0.00  0.00    +0.006 C 
ATOM     16  C   UNL     1       6.059   4.598   4.762  0.00  0.00    +0.017 C 
ATOM     17  C   UNL     1       5.077   5.720   4.410  0.00  0.00    +0.109 C 
ATOM     18  N   UNL     1       3.798   5.457   5.084  0.00  0.00    -0.176 NA
ATOM     19  C   UNL     1       3.797   5.241   6.537  0.00  0.00    +0.112 C 
ENDBRANCH  10  18
ENDBRANCH   4  10
ENDBRANCH   1   7
BRANCH   1  20
ATOM     20  N   UNL     1       0.070  -0.589   1.566  0.00  0.00    -0.169 NA
BRANCH  20  21
ATOM     21  C   UNL     1      -1.173  -0.688   2.335  0.00  0.00    +0.080 C 
ATOM     22  C   UNL     1      -2.033  -1.852   1.800  0.00  0.00    +0.020 C 
ATOM     23  C   UNL     1      -3.488  -1.331   1.908  0.00  0.00    +0.002 C 
ATOM     24  C   UNL     1      -3.345   0.162   1.519  0.00  0.00    +0.002 C 
ATOM     25  C   UNL     1      -2.007   0.593   2.156  0.00  0.00    +0.020 C 
ENDBRANCH  20  21
BRANCH  20  26
ATOM     26  C   UNL     1       0.025  -0.543   0.103  0.00  0.00    +0.144 C 
BRANCH  26  27
ATOM     27  C   UNL     1      -0.117   0.887  -0.351  0.00  0.00    -0.032 A 
ATOM     28  C   UNL     1      -1.360   1.381  -0.701  0.00  0.00    +0.005 A 
ATOM     29  C   UNL     1      -1.490   2.694  -1.113  0.00  0.00    +0.004 A 
ATOM     30  C   UNL     1      -0.377   3.511  -1.183  0.00  0.00    -0.042 A 
ATOM     31  C   UNL     1       0.867   3.015  -0.838  0.00  0.00    +0.004 A 
ATOM     32  C   UNL     1       0.997   1.703  -0.422  0.00  0.00    +0.005 A 
BRANCH  30  33
ATOM     33  C   UNL     1      -0.519   4.941  -1.636  0.00  0.00    -0.013 C 
ATOM     34  C   UNL     1       0.330   5.166  -2.889  0.00  0.00    +0.015 C 
ATOM     35  C   UNL     1      -1.987   5.232  -1.955  0.00  0.00    +0.015 C 
ATOM     36  C   UNL     1      -0.043   5.878  -0.523  0.00  0.00    +0.015 C 
ENDBRANCH  30  33
ENDBRANCH  26  27
ENDBRANCH  20  26
ENDBRANCH   1  20
TORSDOF 8
