REMARK  Name = ZINC28286539
REMARK  11 active torsions:
REMARK  status: ('A' for Active; 'I' for Inactive)
REMARK    1  A    between atoms: C_1  and  C_2
REMARK    2  A    between atoms: C_2  and  N_3
REMARK    3  A    between atoms: N_3  and  C_4
REMARK    4  A    between atoms: N_3  and  C_6
REMARK    5  A    between atoms: C_4  and  C_5
REMARK    6  A    between atoms: C_6  and  C_7
REMARK    7  A    between atoms: C_7  and  C_8
REMARK    8  A    between atoms: C_8  and  N_9
REMARK    9  A    between atoms: N_9  and  C_10
REMARK   10  A    between atoms: C_21  and  C_26
REMARK   11  A    between atoms: C_23  and  C_25
REMARK                            x       y       z     vdW  Elec       q    Type
REMARK                         _______ _______ _______ _____ _____    ______ ____
ROOT
ATOM      1  C   UNL     1      -1.352  -0.095   4.733  0.00  0.00    +0.175 C 
ATOM      2  C   UNL     1      -1.395   0.829   5.949  0.00  0.00    +0.023 A 
ATOM      3  C   UNL     1      -0.356   1.679   6.338  0.00  0.00    -0.029 A 
ATOM      4  C   UNL     1      -0.561   2.454   7.439  0.00  0.00    -0.005 A 
ATOM      5  S   UNL     1      -2.197   2.021   7.974  0.00  0.00    -0.073 S 
ATOM      6  C   UNL     1      -2.542   0.827   6.716  0.00  0.00    +0.111 A 
ATOM      7  N   UNL     1      -3.629   0.060   6.491  0.00  0.00    -0.207 NA
ATOM      8  C   UNL     1      -3.525  -0.909   5.602  0.00  0.00    +0.219 C 
ATOM      9  N   UNL     1      -2.323  -1.171   4.987  0.00  0.00    -0.294 N 
ATOM     10  N   UNL     1      -4.639  -1.671   5.283  0.00  0.00    -0.206 N 
ATOM     11  C   UNL     1      -5.885  -1.527   5.808  0.00  0.00    +0.045 A 
ATOM     12  C   UNL     1      -6.680  -2.460   5.237  0.00  0.00    +0.048 A 
ATOM     13  C   UNL     1      -5.901  -3.198   4.336  0.00  0.00    +0.061 A 
ATOM     14  N   UNL     1      -4.683  -2.723   4.359  0.00  0.00    -0.169 NA
ATOM     15  C   UNL     1      -6.386  -4.340   3.481  0.00  0.00    +0.067 C 
ATOM     16  C   UNL     1      -6.305  -0.512   6.840  0.00  0.00    +0.066 C 
ATOM     17  C   UNL     1       0.384   3.438   8.049  0.00  0.00    +0.043 C 
ATOM     18  C   UNL     1       1.784   3.190   7.466  0.00  0.00    +0.005 C 
ATOM     19  C   UNL     1       1.667   3.067   5.944  0.00  0.00    +0.005 C 
ATOM     20  C   UNL     1       0.965   1.759   5.577  0.00  0.00    +0.036 C 
ATOM     21  H   UNL     1      -2.092  -2.203   4.685  0.00  0.00    +0.151 HD
ENDROOT
BRANCH   1  22
ATOM     22  N   UNL     1      -1.731   0.648   3.523  0.00  0.00    -0.295 NA
ATOM     23  H   UNL     1      -1.647   1.725   3.730  0.00  0.00    +0.124 HD
BRANCH  22  24
ATOM     24  C   UNL     1      -0.858   0.296   2.395  0.00  0.00    +0.081 C 
BRANCH  24  25
ATOM     25  C   UNL     1      -1.282   1.087   1.156  0.00  0.00    -0.003 C 
BRANCH  25  26
ATOM     26  C   UNL     1      -0.374   0.721  -0.019  0.00  0.00    -0.078 C 
BRANCH  26  27
ATOM     27  N   UNL     1      -0.781   1.481  -1.208  0.00  0.00    +0.379 N 
ATOM     28  H   UNL     1      -1.861   1.331  -1.352  0.00  0.00    -0.082 HD
BRANCH  27  30
ATOM     29  C   UNL     1       0.947   3.166  -0.792  0.00  0.00    -0.017 C 
ATOM     30  C   UNL     1      -0.546   2.919  -1.020  0.00  0.00    -0.082 C 
ENDBRANCH  27  30
BRANCH  27  31
ATOM     31  C   UNL     1      -0.093   0.988  -2.409  0.00  0.00    -0.082 C 
ATOM     32  C   UNL     1      -0.806   1.512  -3.657  0.00  0.00    -0.017 C 
ENDBRANCH  27  31
ENDBRANCH  26  27
ENDBRANCH  25  26
ENDBRANCH  24  25
ENDBRANCH  22  24
ENDBRANCH   1  22
TORSDOF 7
