REMARK  Name = ZINC39884110
REMARK  4 active torsions:
REMARK  status: ('A' for Active; 'I' for Inactive)
REMARK    1  A    between atoms: C_4  and  C_7
REMARK    2  A    between atoms: N_11  and  C_15
REMARK    3  A    between atoms: C_15  and  C_16
REMARK    4  A    between atoms: N_18  and  C_19
REMARK                            x       y       z     vdW  Elec       q    Type
REMARK                         _______ _______ _______ _____ _____    ______ ____
ROOT
ATOM      1  C   UNL     1       3.729  -0.707  -0.037  0.00  0.00    +0.072 C 
ATOM      2  C   UNL     1       3.798  -1.576  -1.262  0.00  0.00    +0.033 A 
ATOM      3  C   UNL     1       4.285  -2.829  -1.400  0.00  0.00    +0.091 A 
ATOM      4  N   UNL     1       4.181  -3.356  -2.663  0.00  0.00    -0.288 N 
ATOM      5  C   UNL     1       3.640  -2.624  -3.656  0.00  0.00    +0.292 A 
ATOM      6  O   UNL     1       3.478  -2.936  -4.823  0.00  0.00    -0.259 OA
ATOM      7  S   UNL     1       3.241  -1.176  -2.898  0.00  0.00    -0.030 S 
ATOM      8  S   UNL     1       5.017  -3.693  -0.017  0.00  0.00    -0.093 S 
ATOM      9  C   UNL     1       5.220  -2.318   1.144  0.00  0.00    +0.153 C 
ATOM     10  C   UNL     1       3.842  -1.589   1.178  0.00  0.00    +0.112 C 
ATOM     11  C   UNL     1       3.875  -0.988   2.544  0.00  0.00    +0.245 C 
ATOM     12  O   UNL     1       3.220   0.111   2.949  0.00  0.00    -0.273 OA
ATOM     13  N   UNL     1       4.672  -1.743   3.277  0.00  0.00    -0.145 NA
ATOM     14  C   UNL     1       5.324  -2.720   2.591  0.00  0.00    +0.253 C 
ATOM     15  O   UNL     1       5.867  -3.708   3.041  0.00  0.00    -0.272 OA
ENDROOT
BRANCH   1  19
ATOM     16  C   UNL     1       0.000   1.376   0.038  0.00  0.00    +0.000 A 
ATOM     17  C   UNL     1       1.187   2.084   0.022  0.00  0.00    +0.000 A 
ATOM     18  C   UNL     1       2.394   1.410  -0.002  0.00  0.00    +0.004 A 
ATOM     19  C   UNL     1       2.413   0.028  -0.010  0.00  0.00    -0.039 A 
ATOM     20  C   UNL     1       1.226  -0.680   0.007  0.00  0.00    +0.004 A 
ATOM     21  C   UNL     1       0.019  -0.006   0.030  0.00  0.00    +0.000 A 
ENDBRANCH   1  19
BRANCH   4  22
ATOM     22  C   UNL     1       4.658  -4.715  -2.932  0.00  0.00    +0.222 C 
BRANCH  22  23
ATOM     23  C   UNL     1       3.537  -5.695  -2.704  0.00  0.00    +0.237 C 
ATOM     24  O   UNL     1       2.447  -5.298  -2.351  0.00  0.00    -0.274 OA
ATOM     25  N   UNL     1       3.746  -7.014  -2.891  0.00  0.00    -0.284 N 
ATOM     26  H   UNL     1       4.597  -7.325  -3.237  0.00  0.00    +0.155 HD
BRANCH  25  27
ATOM     27  C   UNL     1       2.735  -7.933  -2.586  0.00  0.00    +0.034 A 
ATOM     28  C   UNL     1       3.061  -9.178  -2.066  0.00  0.00    +0.025 A 
ATOM     29  C   UNL     1       2.062 -10.083  -1.766  0.00  0.00    +0.022 A 
ATOM     30  C   UNL     1       0.737  -9.750  -1.984  0.00  0.00    +0.041 A 
ATOM     31  C   UNL     1       0.409  -8.509  -2.502  0.00  0.00    +0.022 A 
ATOM     32  C   UNL     1       1.404  -7.598  -2.798  0.00  0.00    +0.025 A 
ATOM     33 CL   UNL     1      -0.517 -10.890  -1.606  0.00  0.00    -0.084 Cl
ENDBRANCH  25  27
ENDBRANCH  22  23
ENDBRANCH   4  22
TORSDOF 4
