REMARK  Name = ZINC09332245
REMARK  9 active torsions:
REMARK  status: ('A' for Active; 'I' for Inactive)
REMARK    1  A    between atoms: C_1  and  C_2
REMARK    2  A    between atoms: C_2  and  C_4
REMARK    3  A    between atoms: C_2  and  N_7
REMARK    4  A    between atoms: C_4  and  C_5
REMARK    5  A    between atoms: C_4  and  C_6
REMARK    6  A    between atoms: C_8  and  C_10
REMARK    7  A    between atoms: C_10  and  S_11
REMARK    8  A    between atoms: S_11  and  C_12
REMARK    9  A    between atoms: N_25  and  C_26
REMARK                            x       y       z     vdW  Elec       q    Type
REMARK                         _______ _______ _______ _____ _____    ______ ____
ROOT
ATOM      1  C   UNL     1      -5.687  -1.875   2.746  0.00  0.00    +0.178 A 
ATOM      2  N   UNL     1      -6.165  -2.159   1.551  0.00  0.00    -0.215 NA
ATOM      3  C   UNL     1      -7.399  -2.627   1.405  0.00  0.00    +0.117 A 
ATOM      4  C   UNL     1      -8.251  -2.844   2.502  0.00  0.00    +0.076 A 
ATOM      5  C   UNL     1      -9.582  -3.363   2.184  0.00  0.00    -0.023 A 
ATOM      6  C   UNL     1      -9.860  -3.581   0.883  0.00  0.00    -0.004 A 
ATOM      7  S   UNL     1      -8.386  -3.116   0.014  0.00  0.00    -0.073 S 
ATOM      8  C   UNL     1     -11.138  -4.105   0.302  0.00  0.00    +0.043 C 
ATOM      9  C   UNL     1     -11.973  -4.712   1.439  0.00  0.00    +0.005 C 
ATOM     10  C   UNL     1     -12.004  -3.723   2.608  0.00  0.00    +0.005 C 
ATOM     11  C   UNL     1     -10.624  -3.649   3.262  0.00  0.00    +0.037 C 
ATOM     12  C   UNL     1      -7.706  -2.528   3.787  0.00  0.00    +0.268 A 
ATOM     13  O   UNL     1      -8.372  -2.685   4.795  0.00  0.00    -0.267 OA
ATOM     14  N   UNL     1      -6.446  -2.061   3.867  0.00  0.00    -0.253 N 
ENDROOT
BRANCH  14  15
ATOM     15  C   UNL     1      -5.904  -1.755   5.123  0.00  0.00    +0.087 A 
ATOM     16  C   UNL     1      -6.056  -0.482   5.654  0.00  0.00    +0.029 A 
ATOM     17  C   UNL     1      -5.521  -0.183   6.892  0.00  0.00    +0.002 A 
ATOM     18  C   UNL     1      -4.835  -1.151   7.604  0.00  0.00    +0.003 A 
ATOM     19  C   UNL     1      -4.681  -2.420   7.079  0.00  0.00    +0.040 A 
ATOM     20  C   UNL     1      -5.220  -2.728   5.842  0.00  0.00    +0.147 A 
ATOM     21  F   UNL     1      -5.075  -3.971   5.332  0.00  0.00    -0.203 F 
ENDBRANCH  14  15
BRANCH   1  22
ATOM     22  S   UNL     1      -4.045  -1.255   2.901  0.00  0.00    -0.078 S 
BRANCH  22  23
ATOM     23  C   UNL     1      -3.442  -1.177   1.191  0.00  0.00    +0.173 C 
BRANCH  23  25
ATOM     24  N   UNL     1      -1.372  -0.511   0.012  0.00  0.00    -0.312 N 
ATOM     25  C   UNL     1      -2.029  -0.655   1.181  0.00  0.00    +0.224 C 
ATOM     26  O   UNL     1      -1.481  -0.365   2.224  0.00  0.00    -0.275 OA
ATOM     27  H   UNL     1      -1.810  -0.743  -0.822  0.00  0.00    +0.149 HD
BRANCH  24  29
ATOM     28  C   UNL     1      -0.019   1.526   0.010  0.00  0.00    +0.028 C 
ATOM     29  C   UNL     1       0.002  -0.004   0.002  0.00  0.00    +0.072 C 
BRANCH  29  30
ATOM     30  C   UNL     1       0.718  -0.497  -1.257  0.00  0.00    +0.003 C 
ATOM     31  C   UNL     1       2.154   0.032  -1.268  0.00  0.00    +0.009 C 
ATOM     32  C   UNL     1       0.739  -2.027  -1.265  0.00  0.00    +0.009 C 
ENDBRANCH  29  30
ENDBRANCH  24  29
ENDBRANCH  23  25
ENDBRANCH  22  23
ENDBRANCH   1  22
TORSDOF 6
