REMARK  Name = ZINC59720444
REMARK  14 active torsions:
REMARK  status: ('A' for Active; 'I' for Inactive)
REMARK    1  A    between atoms: C_1  and  C_2
REMARK    2  A    between atoms: C_2  and  C_3
REMARK    3  A    between atoms: C_2  and  C_4
REMARK    4  A    between atoms: C_2  and  C_5
REMARK    5  A    between atoms: C_12  and  N_23
REMARK    6  A    between atoms: C_13  and  C_14
REMARK    7  A    between atoms: N_16  and  C_17
REMARK    8  A    between atoms: C_24  and  C_25
REMARK    9  A    between atoms: C_27  and  O_35
REMARK   10  A    between atoms: C_28  and  O_33
REMARK   11  A    between atoms: C_29  and  O_31
REMARK   12  A    between atoms: O_31  and  C_32
REMARK   13  A    between atoms: O_33  and  C_34
REMARK   14  A    between atoms: O_35  and  C_36
REMARK                            x       y       z     vdW  Elec       q    Type
REMARK                         _______ _______ _______ _____ _____    ______ ____
ROOT
ATOM      1  C   UNL     1       0.749  -0.510  -1.245  0.00  0.00    -0.000 C 
ATOM      2  C   UNL     1       0.005   0.002  -2.482  0.00  0.00    +0.009 C 
ATOM      3  C   UNL     1       0.550  -0.680  -3.737  0.00  0.00    +0.037 C 
ATOM      4  C   UNL     1       2.067  -0.511  -3.771  0.00  0.00    -0.023 A 
ATOM      5  C   UNL     1       2.748  -0.192  -2.642  0.00  0.00    -0.004 A 
ATOM      6  S   UNL     1       4.444  -0.103  -3.151  0.00  0.00    -0.073 S 
ATOM      7  C   UNL     1       4.211  -0.500  -4.877  0.00  0.00    +0.114 A 
ATOM      8  C   UNL     1       2.824  -0.675  -4.945  0.00  0.00    +0.073 A 
ATOM      9  C   UNL     1       2.186   0.031  -1.272  0.00  0.00    +0.046 C 
ENDROOT
BRANCH   1  11
ATOM     10  C   UNL     1       0.014   1.508   0.031  0.00  0.00    +0.011 C 
ATOM     11  C   UNL     1       0.040  -0.021   0.019  0.00  0.00    -0.035 C 
ATOM     12  C   UNL     1       0.790  -0.528   1.253  0.00  0.00    +0.011 C 
ATOM     13  C   UNL     1      -1.394  -0.555   0.039  0.00  0.00    +0.011 C 
ENDBRANCH   1  11
BRANCH   8  14
ATOM     14  C   UNL     1       2.174  -1.022  -6.213  0.00  0.00    +0.251 C 
ATOM     15  O   UNL     1       1.786  -0.141  -6.958  0.00  0.00    -0.270 OA
ATOM     16  N   UNL     1       2.006  -2.315  -6.553  0.00  0.00    -0.281 N 
ATOM     17  H   UNL     1       2.374  -3.016  -5.992  0.00  0.00    +0.155 HD
BRANCH  16  18
ATOM     18  C   UNL     1       1.301  -2.647  -7.714  0.00  0.00    +0.034 A 
ATOM     19  C   UNL     1       0.503  -3.783  -7.743  0.00  0.00    +0.023 A 
ATOM     20  C   UNL     1      -0.193  -4.108  -8.891  0.00  0.00    +0.002 A 
ATOM     21  C   UNL     1      -0.094  -3.303 -10.012  0.00  0.00    +0.000 A 
ATOM     22  C   UNL     1       0.700  -2.172  -9.987  0.00  0.00    +0.002 A 
ATOM     23  C   UNL     1       1.394  -1.838  -8.840  0.00  0.00    +0.023 A 
ENDBRANCH  16  18
ENDBRANCH   8  14
BRANCH   7  24
ATOM     24  N   UNL     1       5.132  -0.604  -5.859  0.00  0.00    -0.247 NA
ATOM     25  C   UNL     1       6.397  -0.401  -5.593  0.00  0.00    +0.120 C 
BRANCH  25  26
ATOM     26  C   UNL     1       7.399  -0.513  -6.661  0.00  0.00    +0.000 A 
ATOM     27  C   UNL     1       7.002  -0.832  -7.965  0.00  0.00    +0.059 A 
ATOM     28  C   UNL     1       7.947  -0.937  -8.967  0.00  0.00    +0.166 A 
ATOM     29  C   UNL     1       9.294  -0.726  -8.681  0.00  0.00    +0.204 A 
ATOM     30  C   UNL     1       9.693  -0.409  -7.386  0.00  0.00    +0.166 A 
ATOM     31  C   UNL     1       8.753  -0.297  -6.379  0.00  0.00    +0.059 A 
BRANCH  30  32
ATOM     32  O   UNL     1      11.009  -0.204  -7.111  0.00  0.00    -0.491 OA
ATOM     33  C   UNL     1      11.348   0.118  -5.761  0.00  0.00    +0.277 C 
ENDBRANCH  30  32
BRANCH  29  34
ATOM     34  O   UNL     1      10.221  -0.831  -9.670  0.00  0.00    -0.488 OA
ATOM     35  C   UNL     1      10.525   0.358 -10.403  0.00  0.00    +0.277 C 
ENDBRANCH  29  34
BRANCH  28  36
ATOM     36  O   UNL     1       7.562  -1.246 -10.235  0.00  0.00    -0.491 OA
ATOM     37  C   UNL     1       6.165  -1.450 -10.457  0.00  0.00    +0.277 C 
ENDBRANCH  28  36
ENDBRANCH  25  26
ENDBRANCH   7  24
TORSDOF 8
