REMARK  Name = ZINC02218234
REMARK  7 active torsions:
REMARK  status: ('A' for Active; 'I' for Inactive)
REMARK    1  A    between atoms: C_1  and  C_2
REMARK    2  A    between atoms: C_2  and  C_26
REMARK    3  A    between atoms: C_9  and  N_23
REMARK    4  A    between atoms: C_11  and  S_13
REMARK    5  A    between atoms: S_13  and  C_14
REMARK    6  A    between atoms: C_14  and  C_15
REMARK    7  A    between atoms: C_16  and  C_17
REMARK                            x       y       z     vdW  Elec       q    Type
REMARK                         _______ _______ _______ _____ _____    ______ ____
ROOT
ATOM      1  C   UNL     1       6.823   8.333   1.306  0.00  0.00    +0.041 C 
ATOM      2  C   UNL     1       7.758   7.479   0.448  0.00  0.00    +0.068 C 
ATOM      3  C   UNL     1       6.980   6.287  -0.118  0.00  0.00    +0.071 C 
ATOM      4  C   UNL     1       6.658   5.341   1.036  0.00  0.00    -0.020 A 
ATOM      5  C   UNL     1       7.343   5.445   2.194  0.00  0.00    +0.021 A 
ATOM      6  S   UNL     1       6.669   4.189   3.244  0.00  0.00    -0.071 S 
ATOM      7  C   UNL     1       5.465   3.523   2.124  0.00  0.00    +0.115 A 
ATOM      8  C   UNL     1       5.629   4.306   0.962  0.00  0.00    +0.051 A 
ATOM      9  C   UNL     1       4.767   3.979  -0.123  0.00  0.00    +0.129 A 
ATOM     10  N   UNL     1       3.895   2.996   0.017  0.00  0.00    -0.207 NA
ATOM     11  C   UNL     1       3.793   2.297   1.142  0.00  0.00    +0.191 A 
ATOM     12  N   UNL     1       4.566   2.560   2.187  0.00  0.00    -0.215 NA
ATOM     13  C   UNL     1       8.435   6.426   2.492  0.00  0.00    +0.203 C 
ATOM     14  O   UNL     1       8.849   7.018   1.251  0.00  0.00    -0.368 OA
ATOM     15  C   UNL     1       8.300   8.323  -0.708  0.00  0.00    +0.041 C 
ENDROOT
BRANCH   9  16
ATOM     16  N   UNL     1       4.842   4.683  -1.311  0.00  0.00    -0.343 N 
ATOM     17  H   UNL     1       4.160   4.562  -1.990  0.00  0.00    +0.144 HD
ATOM     18  H   UNL     1       5.576   5.298  -1.465  0.00  0.00    +0.144 HD
ENDBRANCH   9  16
BRANCH  11  19
ATOM     19  S   UNL     1       2.604   1.001   1.250  0.00  0.00    -0.082 S 
BRANCH  19  20
ATOM     20  C   UNL     1       1.871   1.108  -0.401  0.00  0.00    +0.104 C 
BRANCH  20  21
ATOM     21  C   UNL     1       0.796   0.062  -0.542  0.00  0.00    -0.015 C 
ATOM     22  C   UNL     1      -0.468   0.428  -0.706  0.00  0.00    +0.004 C 
BRANCH  22  23
ATOM     23  C   UNL     1      -1.522  -0.598  -0.851  0.00  0.00    -0.025 A 
ATOM     24  C   UNL     1      -1.190  -1.953  -0.821  0.00  0.00    +0.008 A 
ATOM     25  C   UNL     1      -2.179  -2.905  -0.950  0.00  0.00    +0.001 A 
ATOM     26  C   UNL     1      -3.497  -2.520  -1.122  0.00  0.00    +0.000 A 
ATOM     27  C   UNL     1      -3.832  -1.178  -1.158  0.00  0.00    +0.001 A 
ATOM     28  C   UNL     1      -2.853  -0.215  -1.024  0.00  0.00    +0.008 A 
ENDBRANCH  22  23
ENDBRANCH  20  21
ENDBRANCH  19  20
ENDBRANCH  11  19
TORSDOF 5
