REMARK  Name = ZINC14732325
REMARK  7 active torsions:
REMARK  status: ('A' for Active; 'I' for Inactive)
REMARK    1  A    between atoms: C_1  and  N_2
REMARK    2  A    between atoms: C_5  and  C_7
REMARK    3  A    between atoms: C_20  and  N_66
REMARK    4  A    between atoms: C_24  and  C_25
REMARK    5  A    between atoms: C_24  and  N_66
REMARK    6  A    between atoms: C_25  and  C_26
REMARK    7  A    between atoms: C_28  and  C_31
REMARK                            x       y       z     vdW  Elec       q    Type
REMARK                         _______ _______ _______ _____ _____    ______ ____
ROOT
ATOM      1  C   UNL     1      -2.651   9.812  -7.907  0.00  0.00    +0.172 C 
ATOM      2  N   UNL     1      -3.385   9.949  -6.647  0.00  0.00    -0.270 N 
ATOM      3  C   UNL     1      -3.113   9.273  -5.519  0.00  0.00    +0.043 A 
ATOM      4  C   UNL     1      -4.010   9.673  -4.584  0.00  0.00    +0.004 A 
ATOM      5  C   UNL     1      -4.827  10.625  -5.217  0.00  0.00    +0.151 A 
ATOM      6  N   UNL     1      -4.388  10.736  -6.459  0.00  0.00    -0.166 NA
ATOM      7  C   UNL     1      -4.060   9.158  -3.173  0.00  0.00    +0.023 C 
ATOM      8  C   UNL     1      -3.239   7.863  -3.103  0.00  0.00    -0.067 C 
ATOM      9  C   UNL     1      -1.869   8.091  -3.748  0.00  0.00    -0.009 C 
ATOM     10  C   UNL     1      -2.033   8.252  -5.265  0.00  0.00    +0.054 C 
ENDROOT
BRANCH   5  11
ATOM     11  C   UNL     1      -5.957  11.359  -4.611  0.00  0.00    +0.267 C 
ATOM     12  O   UNL     1      -6.327  11.085  -3.486  0.00  0.00    -0.268 OA
ATOM     13  N   UNL     1      -6.578  12.332  -5.306  0.00  0.00    -0.292 N 
ATOM     14  C   UNL     1      -7.653  13.137  -4.703  0.00  0.00    +0.113 C 
ATOM     15  C   UNL     1      -7.171  14.585  -4.628  0.00  0.00    +0.054 C 
ATOM     16  C   UNL     1      -6.568  15.018  -5.938  0.00  0.00    -0.041 A 
ATOM     17  C   UNL     1      -6.474  16.383  -6.185  0.00  0.00    +0.004 A 
ATOM     18  C   UNL     1      -5.922  16.847  -7.360  0.00  0.00    +0.000 A 
ATOM     19  C   UNL     1      -5.457  15.949  -8.303  0.00  0.00    +0.000 A 
ATOM     20  C   UNL     1      -5.552  14.594  -8.063  0.00  0.00    +0.005 A 
ATOM     21  C   UNL     1      -6.112  14.126  -6.882  0.00  0.00    -0.027 A 
ATOM     22  C   UNL     1      -6.206  12.636  -6.692  0.00  0.00    +0.143 C 
ENDBRANCH   5  11
BRANCH   8  23
ATOM     23  N   UNL     1      -3.059   7.479  -1.690  0.00  0.00    +0.381 N 
ATOM     24  H   UNL     1      -3.903   7.730  -1.161  0.00  0.00    -0.086 HD
ATOM     25  H   UNL     1      -2.251   7.979  -1.303  0.00  0.00    -0.086 HD
BRANCH  23  26
ATOM     26  C   UNL     1      -2.831   6.026  -1.580  0.00  0.00    -0.075 C 
BRANCH  26  27
ATOM     27  C   UNL     1      -2.649   5.657  -0.106  0.00  0.00    +0.044 C 
BRANCH  27  28
ATOM     28  C   UNL     1      -2.416   4.174   0.016  0.00  0.00    +0.077 A 
ATOM     29  N   UNL     1      -1.281   3.517  -0.004  0.00  0.00    -0.244 NA
ATOM     30  C   UNL     1      -1.243   2.199   0.116  0.00  0.00    +0.078 A 
ATOM     31  C   UNL     1      -2.432   1.534   0.258  0.00  0.00    +0.075 A 
ATOM     32  S   UNL     1      -3.580   2.902   0.218  0.00  0.00    -0.080 S 
BRANCH  30  33
ATOM     33  C   UNL     1       0.046   1.466   0.092  0.00  0.00    +0.001 A 
ATOM     34  C   UNL     1       1.249   2.167   0.039  0.00  0.00    +0.010 A 
ATOM     35  C   UNL     1       2.445   1.479   0.011  0.00  0.00    +0.001 A 
ATOM     36  C   UNL     1       2.451   0.096   0.035  0.00  0.00    +0.000 A 
ATOM     37  C   UNL     1       1.260  -0.605   0.086  0.00  0.00    +0.001 A 
ATOM     38  C   UNL     1       0.058   0.072   0.115  0.00  0.00    +0.010 A 
ENDBRANCH  30  33
ENDBRANCH  27  28
ENDBRANCH  26  27
ENDBRANCH  23  26
ENDBRANCH   8  23
TORSDOF 6
