REMARK  Name = ZINC13527725
REMARK  9 active torsions:
REMARK  status: ('A' for Active; 'I' for Inactive)
REMARK    1  A    between atoms: C_1  and  O_2
REMARK    2  A    between atoms: O_2  and  C_3
REMARK    3  A    between atoms: C_6  and  N_9
REMARK    4  A    between atoms: N_9  and  S_10
REMARK    5  A    between atoms: S_10  and  C_13
REMARK    6  A    between atoms: C_15  and  N_32
REMARK    7  A    between atoms: C_18  and  N_19
REMARK    8  A    between atoms: N_19  and  N_20
REMARK    9  A    between atoms: N_20  and  C_21
REMARK                            x       y       z     vdW  Elec       q    Type
REMARK                         _______ _______ _______ _____ _____    ______ ____
ROOT
ATOM      1  C   UNL     1      -3.982  -5.385  -0.668  0.00  0.00    +0.133 A 
ATOM      2  C   UNL     1      -4.335  -6.716  -0.570  0.00  0.00    +0.063 A 
ATOM      3  C   UNL     1      -3.360  -7.681  -0.397  0.00  0.00    +0.128 A 
ATOM      4  C   UNL     1      -2.028  -7.317  -0.321  0.00  0.00    +0.035 A 
ATOM      5  C   UNL     1      -1.667  -5.987  -0.417  0.00  0.00    +0.028 A 
ATOM      6  C   UNL     1      -2.644  -5.016  -0.597  0.00  0.00    +0.071 A 
ENDROOT
BRANCH   1   7
ATOM      7  S   UNL     1      -5.225  -4.156  -0.889  0.00  0.00    +0.074 S 
ATOM      8  O   UNL     1      -4.987  -3.156   0.092  0.00  0.00    -0.150 OA
ATOM      9  O   UNL     1      -6.463  -4.845  -0.990  0.00  0.00    -0.150 OA
BRANCH   7  10
ATOM     10  N   UNL     1      -4.957  -3.447  -2.361  0.00  0.00    -0.216 N 
ATOM     11  H   UNL     1      -4.679  -2.519  -2.409  0.00  0.00    +0.174 HD
BRANCH  10  15
ATOM     12  C   UNL     1      -5.472  -5.652  -5.861  0.00  0.00    +0.120 A 
ATOM     13  C   UNL     1      -6.001  -4.374  -5.763  0.00  0.00    +0.047 A 
ATOM     14  C   UNL     1      -5.831  -3.643  -4.604  0.00  0.00    +0.028 A 
ATOM     15  C   UNL     1      -5.130  -4.188  -3.536  0.00  0.00    +0.048 A 
ATOM     16  C   UNL     1      -4.600  -5.467  -3.635  0.00  0.00    +0.028 A 
ATOM     17  C   UNL     1      -4.776  -6.199  -4.793  0.00  0.00    +0.047 A 
BRANCH  12  19
ATOM     18  C   UNL     1      -6.366  -5.746  -8.063  0.00  0.00    +0.277 C 
ATOM     19  O   UNL     1      -5.639  -6.371  -7.003  0.00  0.00    -0.495 OA
ENDBRANCH  12  19
ENDBRANCH  10  15
ENDBRANCH   7  10
ENDBRANCH   1   7
BRANCH   3  20
ATOM     20  N   UNL     1      -3.742  -9.107  -0.293  0.00  0.00    +0.056 N 
ATOM     21  O   UNL     1      -4.906  -9.427  -0.359  0.00  0.00    -0.126 OA
ATOM     22  O   UNL     1      -2.890  -9.952  -0.142  0.00  0.00    -0.126 OA
ENDBRANCH   3  20
BRANCH   6  23
ATOM     23  N   UNL     1      -2.283  -3.670  -0.700  0.00  0.00    -0.265 N 
ATOM     24  H   UNL     1      -2.958  -3.000  -0.888  0.00  0.00    +0.170 HD
BRANCH  23  25
ATOM     25  N   UNL     1      -0.945  -3.289  -0.532  0.00  0.00    -0.261 N 
ATOM     26  H   UNL     1      -0.374  -3.172  -1.307  0.00  0.00    +0.170 HD
BRANCH  25  27
ATOM     27  C   UNL     1      -0.458  -3.088   0.694  0.00  0.00    +0.116 C 
ATOM     28  C   UNL     1      -1.141  -3.226   1.928  0.00  0.00    +0.026 A 
ATOM     29  C   UNL     1      -2.452  -3.589   2.261  0.00  0.00    +0.050 A 
ATOM     30  C   UNL     1      -2.833  -3.634   3.591  0.00  0.00    +0.124 A 
ATOM     31  C   UNL     1      -1.922  -3.322   4.589  0.00  0.00    +0.040 A 
ATOM     32  C   UNL     1      -0.621  -2.961   4.277  0.00  0.00    +0.027 A 
ATOM     33  C   UNL     1      -0.209  -2.907   2.948  0.00  0.00    +0.043 A 
ATOM     34  N   UNL     1       0.992  -2.586   2.384  0.00  0.00    -0.280 N 
ATOM     35  C   UNL     1       0.939  -2.672   1.067  0.00  0.00    +0.264 C 
ATOM     36  O   UNL     1       1.855  -2.451   0.295  0.00  0.00    -0.268 OA
ATOM     37  F   UNL     1      -4.096  -3.983   3.917  0.00  0.00    -0.205 F 
ATOM     38  H   UNL     1       1.782  -2.333   2.885  0.00  0.00    +0.155 HD
ENDBRANCH  25  27
ENDBRANCH  23  25
ENDBRANCH   6  23
TORSDOF 8
