REMARK  Name = ZINC40824412
REMARK  5 active torsions:
REMARK  status: ('A' for Active; 'I' for Inactive)
REMARK    1  A    between atoms: C_1  and  C_2
REMARK    2  A    between atoms: C_6  and  C_7
REMARK    3  A    between atoms: C_7  and  O_9
REMARK    4  A    between atoms: O_9  and  C_10
REMARK    5  A    between atoms: N_25  and  N_26
REMARK                            x       y       z     vdW  Elec       q    Type
REMARK                         _______ _______ _______ _____ _____    ______ ____
ROOT
ATOM      1  C   UNL     1      -0.303   1.509   0.033  0.00  0.00    +0.048 C 
ATOM      2  C   UNL     1      -0.175   0.007   0.013  0.00  0.00    +0.011 A 
ATOM      3  C   UNL     1      -0.135  -0.818  -1.116  0.00  0.00    +0.042 A 
ATOM      4  C   UNL     1      -0.013  -2.115  -0.676  0.00  0.00    +0.115 A 
ATOM      5  O   UNL     1       0.025  -2.097   0.654  0.00  0.00    -0.452 OA
ATOM      6  C   UNL     1      -0.068  -0.822   1.097  0.00  0.00    +0.215 A 
ATOM      7  C   UNL     1       0.057  -3.296  -1.612  0.00  0.00    +0.075 C 
ATOM      8  C   UNL     1      -0.530  -2.903  -2.970  0.00  0.00    +0.014 C 
ATOM      9  C   UNL     1       0.138  -1.630  -3.500  0.00  0.00    +0.058 C 
ATOM     10  C   UNL     1      -0.201  -0.485  -2.557  0.00  0.00    +0.070 C 
ATOM     11  N   UNL     1      -0.525   0.696  -2.985  0.00  0.00    -0.183 NA
ENDROOT
BRANCH  11  12
ATOM     12  N   UNL     1      -0.571   0.954  -4.361  0.00  0.00    -0.191 N 
ATOM     13  C   UNL     1      -0.908   2.181  -4.805  0.00  0.00    +0.317 C 
ATOM     14  O   UNL     1      -0.948   2.406  -5.999  0.00  0.00    -0.251 OA
ATOM     15  N   UNL     1      -1.200   3.160  -3.925  0.00  0.00    -0.312 N 
ATOM     16  H   UNL     1      -0.361   0.250  -4.994  0.00  0.00    +0.179 HD
ATOM     17  H   UNL     1      -1.168   2.981  -2.972  0.00  0.00    +0.147 HD
ATOM     18  H   UNL     1      -1.442   4.043  -4.245  0.00  0.00    +0.147 HD
ENDBRANCH  11  12
BRANCH   6  19
ATOM     19  C   UNL     1      -0.058  -0.400   2.500  0.00  0.00    +0.380 C 
ATOM     20  O   UNL     1      -0.151   0.780   2.781  0.00  0.00    -0.241 OA
BRANCH  19  21
ATOM     21  O   UNL     1       0.053  -1.320   3.480  0.00  0.00    -0.418 OA
BRANCH  21  22
ATOM     22  C   UNL     1       0.163  -0.878   4.760  0.00  0.00    +0.158 A 
ATOM     23  C   UNL     1       1.404  -0.712   5.331  0.00  0.00    +0.050 A 
ATOM     24  C   UNL     1       1.532  -0.260   6.641  0.00  0.00    +0.019 A 
ATOM     25  C   UNL     1       0.433   0.030   7.393  0.00  0.00    +0.027 A 
ATOM     26  C   UNL     1      -0.850  -0.127   6.845  0.00  0.00    +0.018 A 
ATOM     27  C   UNL     1      -0.993  -0.581   5.511  0.00  0.00    +0.114 A 
ATOM     28  N   UNL     1      -2.213  -0.728   4.984  0.00  0.00    -0.251 NA
ATOM     29  C   UNL     1      -3.291  -0.454   5.677  0.00  0.00    +0.111 A 
ATOM     30  C   UNL     1      -3.222   0.002   6.992  0.00  0.00    +0.020 A 
ATOM     31  C   UNL     1      -2.006   0.163   7.594  0.00  0.00    +0.013 A 
ATOM     32 BR   UNL     1       0.636   0.642   9.171  0.00  0.00    -0.050 Br
ENDBRANCH  21  22
ENDBRANCH  19  21
ENDBRANCH   6  19
TORSDOF 4
