REMARK  Name = ZINC09937018
REMARK  9 active torsions:
REMARK  status: ('A' for Active; 'I' for Inactive)
REMARK    1  A    between atoms: C_1  and  C_2
REMARK    2  A    between atoms: C_2  and  C_3
REMARK    3  A    between atoms: C_3  and  C_4
REMARK    4  A    between atoms: C_4  and  C_5
REMARK    5  A    between atoms: C_8  and  N_11
REMARK    6  A    between atoms: C_12  and  S_16
REMARK    7  A    between atoms: S_16  and  C_17
REMARK    8  A    between atoms: C_17  and  C_18
REMARK    9  A    between atoms: N_20  and  C_21
REMARK                            x       y       z     vdW  Elec       q    Type
REMARK                         _______ _______ _______ _____ _____    ______ ____
ROOT
ATOM      1  S   UNL     1      -0.848   1.690   1.497  0.00  0.00    -0.075 S 
ENDROOT
BRANCH   1   3
ATOM      2  N   UNL     1       0.043   1.115   4.078  0.00  0.00    -0.187 N 
ATOM      3  C   UNL     1       0.194   0.993   2.735  0.00  0.00    +0.214 A 
ATOM      4  N   UNL     1       1.267   0.260   2.533  0.00  0.00    -0.101 NA
ATOM      5  N   UNL     1       1.793  -0.087   3.652  0.00  0.00    -0.022 NA
ATOM      6  N   UNL     1       1.110   0.388   4.636  0.00  0.00    -0.038 NA
BRANCH   2  10
ATOM      7  C   UNL     1      -2.943   3.193   6.114  0.00  0.00    -0.047 A 
ATOM      8  C   UNL     1      -2.437   2.019   6.641  0.00  0.00    +0.006 A 
ATOM      9  C   UNL     1      -1.448   1.328   5.969  0.00  0.00    +0.028 A 
ATOM     10  C   UNL     1      -0.961   1.813   4.763  0.00  0.00    +0.070 A 
ATOM     11  C   UNL     1      -1.467   2.995   4.239  0.00  0.00    +0.028 A 
ATOM     12  C   UNL     1      -2.460   3.679   4.913  0.00  0.00    +0.006 A 
BRANCH   7  13
ATOM     13  C   UNL     1      -4.022   3.944   6.850  0.00  0.00    +0.035 C 
BRANCH  13  14
ATOM     14  C   UNL     1      -3.381   4.950   7.807  0.00  0.00    +0.004 C 
BRANCH  14  16
ATOM     15  C   UNL     1      -3.835   6.720   9.512  0.00  0.00    +0.004 C 
ATOM     16  C   UNL     1      -4.477   5.713   8.555  0.00  0.00    -0.003 C 
ENDBRANCH  14  16
ENDBRANCH  13  14
ENDBRANCH   7  13
ENDBRANCH   2  10
ENDBRANCH   1   3
BRANCH   1  17
ATOM     17  C   UNL     1      -0.003   1.101   0.008  0.00  0.00    +0.173 C 
BRANCH  17  18
ATOM     18  C   UNL     1      -0.738   1.590  -1.213  0.00  0.00    +0.228 C 
ATOM     19  O   UNL     1      -1.735   2.271  -1.089  0.00  0.00    -0.275 OA
ATOM     20  N   UNL     1      -0.288   1.272  -2.443  0.00  0.00    -0.284 N 
ATOM     21  H   UNL     1       0.544   0.784  -2.544  0.00  0.00    +0.155 HD
BRANCH  20  22
ATOM     22  C   UNL     1      -1.023   1.647  -3.576  0.00  0.00    +0.056 A 
ATOM     23  C   UNL     1      -1.723   2.846  -3.585  0.00  0.00    +0.074 A 
ATOM     24  C   UNL     1      -2.448   3.216  -4.705  0.00  0.00    +0.168 A 
ATOM     25  C   UNL     1      -2.474   2.384  -5.822  0.00  0.00    +0.168 A 
ATOM     26  C   UNL     1      -1.774   1.188  -5.810  0.00  0.00    +0.071 A 
ATOM     27  C   UNL     1      -1.045   0.822  -4.694  0.00  0.00    +0.066 A 
ATOM     28 CL   UNL     1      -0.163  -0.673  -4.685  0.00  0.00    -0.082 Cl
ATOM     29  O   UNL     1      -3.251   2.967  -6.782  0.00  0.00    -0.453 OA
ATOM     30  C   UNL     1      -4.029   3.964  -6.094  0.00  0.00    +0.466 C 
ATOM     31  O   UNL     1      -3.208   4.319  -4.966  0.00  0.00    -0.453 OA
ENDBRANCH  20  22
ENDBRANCH  17  18
ENDBRANCH   1  17
TORSDOF 8
