REMARK  Name = ZINC15678216
REMARK  8 active torsions:
REMARK  status: ('A' for Active; 'I' for Inactive)
REMARK    1  A    between atoms: C_1  and  C_2
REMARK    2  A    between atoms: C_2  and  C_26
REMARK    3  A    between atoms: C_5  and  C_21
REMARK    4  A    between atoms: N_11  and  C_12
REMARK    5  A    between atoms: C_12  and  C_13
REMARK    6  A    between atoms: C_18  and  O_19
REMARK    7  A    between atoms: O_19  and  C_20
REMARK    8  A    between atoms: N_28  and  C_29
REMARK                            x       y       z     vdW  Elec       q    Type
REMARK                         _______ _______ _______ _____ _____    ______ ____
ROOT
ATOM      1  C   UNL     1      -6.346   2.587   1.323  0.00  0.00    +0.043 C 
ATOM      2  C   UNL     1      -5.168   3.561   1.254  0.00  0.00    +0.129 C 
ATOM      3  C   UNL     1      -3.987   2.860   0.583  0.00  0.00    +0.157 C 
ATOM      4  N   UNL     1      -2.967   3.856   0.243  0.00  0.00    -0.331 N 
ATOM      5  C   UNL     1      -1.621   3.725   0.140  0.00  0.00    +0.085 A 
ATOM      6  C   UNL     1      -1.094   4.954  -0.226  0.00  0.00    +0.032 A 
ATOM      7  C   UNL     1      -2.154   5.853  -0.351  0.00  0.00    +0.033 A 
ATOM      8  C   UNL     1      -3.302   5.173  -0.050  0.00  0.00    +0.105 A 
ATOM      9  C   UNL     1      -4.696   5.625   0.003  0.00  0.00    +0.264 C 
ATOM     10  O   UNL     1      -5.032   6.719  -0.412  0.00  0.00    -0.268 OA
ATOM     11  N   UNL     1      -5.589   4.760   0.539  0.00  0.00    -0.276 N 
ENDROOT
BRANCH   5  12
ATOM     12  C   UNL     1      -0.854   2.496   0.381  0.00  0.00    +0.151 A 
ATOM     13  C   UNL     1       0.506   2.385   0.372  0.00  0.00    +0.051 A 
ATOM     14  C   UNL     1       0.804   1.038   0.649  0.00  0.00    +0.042 A 
ATOM     15  C   UNL     1      -0.372   0.397   0.813  0.00  0.00    +0.196 A 
ATOM     16  O   UNL     1      -1.371   1.279   0.645  0.00  0.00    -0.461 OA
ENDBRANCH   5  12
BRANCH   2  17
ATOM     17  C   UNL     1      -4.773   3.944   2.657  0.00  0.00    +0.238 C 
ATOM     18  O   UNL     1      -5.026   3.202   3.582  0.00  0.00    -0.273 OA
ATOM     19  N   UNL     1      -4.139   5.111   2.884  0.00  0.00    -0.311 N 
ATOM     20  H   UNL     1      -4.002   5.738   2.156  0.00  0.00    +0.149 HD
BRANCH  19  21
ATOM     21  C   UNL     1      -3.656   5.434   4.229  0.00  0.00    +0.073 C 
ATOM     22  C   UNL     1      -4.791   6.061   5.041  0.00  0.00    +0.022 C 
ATOM     23  C   UNL     1      -4.430   6.033   6.527  0.00  0.00    +0.002 C 
ATOM     24  C   UNL     1      -3.841   4.667   6.884  0.00  0.00    +0.000 C 
ATOM     25  C   UNL     1      -2.364   4.828   7.249  0.00  0.00    +0.000 C 
ATOM     26  C   UNL     1      -1.543   5.028   5.973  0.00  0.00    +0.000 C 
ATOM     27  C   UNL     1      -1.738   6.456   5.460  0.00  0.00    +0.002 C 
ATOM     28  C   UNL     1      -2.493   6.422   4.130  0.00  0.00    +0.022 C 
ENDBRANCH  19  21
ENDBRANCH   2  17
BRANCH  11  29
ATOM     29  C   UNL     1      -7.021   5.036   0.396  0.00  0.00    +0.148 C 
BRANCH  29  30
ATOM     30  C   UNL     1      -7.523   5.739   1.631  0.00  0.00    +0.012 A 
ATOM     31  C   UNL     1      -8.194   5.026   2.606  0.00  0.00    +0.009 A 
ATOM     32  C   UNL     1      -8.654   5.670   3.740  0.00  0.00    +0.001 A 
ATOM     33  C   UNL     1      -8.444   7.027   3.901  0.00  0.00    +0.004 A 
ATOM     34  C   UNL     1      -7.774   7.744   2.929  0.00  0.00    +0.046 A 
ATOM     35  C   UNL     1      -7.306   7.099   1.792  0.00  0.00    +0.125 A 
BRANCH  35  36
ATOM     36  O   UNL     1      -6.641   7.801   0.837  0.00  0.00    -0.495 OA
ATOM     37  C   UNL     1      -6.454   9.198   1.071  0.00  0.00    +0.277 C 
ENDBRANCH  35  36
ENDBRANCH  29  30
ENDBRANCH  11  29
TORSDOF 6
