REMARK  Name = ZINC41585409
REMARK  7 active torsions:
REMARK  status: ('A' for Active; 'I' for Inactive)
REMARK    1  A    between atoms: C_1  and  C_2
REMARK    2  A    between atoms: C_4  and  O_39
REMARK    3  A    between atoms: C_5  and  C_25
REMARK    4  A    between atoms: C_11  and  C_12
REMARK    5  A    between atoms: C_15  and  C_18
REMARK    6  A    between atoms: C_25  and  N_26
REMARK    7  A    between atoms: N_29  and  C_32
REMARK                            x       y       z     vdW  Elec       q    Type
REMARK                         _______ _______ _______ _____ _____    ______ ____
ROOT
ATOM      1  C   UNL     1       1.086   1.375   0.035  0.00  0.00    +0.045 C 
ATOM      2  C   UNL     1       0.698  -0.081   0.017  0.00  0.00    -0.033 A 
ATOM      3  C   UNL     1       0.579  -0.743  -1.173  0.00  0.00    +0.050 A 
ATOM      4  C   UNL     1       0.221  -2.088  -1.192  0.00  0.00    +0.122 A 
ATOM      5  C   UNL     1      -0.018  -2.771  -0.010  0.00  0.00    +0.020 A 
ATOM      6  C   UNL     1       0.099  -2.113   1.208  0.00  0.00    +0.145 A 
ATOM      7  C   UNL     1       0.466  -0.757   1.215  0.00  0.00    +0.071 A 
ATOM      8  C   UNL     1       0.514  -0.347   2.630  0.00  0.00    +0.232 C 
ATOM      9  O   UNL     1       0.787   0.753   3.079  0.00  0.00    -0.283 OA
ATOM     10  C   UNL     1       0.157  -1.562   3.379  0.00  0.00    +0.176 C 
ATOM     11  C   UNL     1       0.068  -1.676   4.728  0.00  0.00    +0.058 C 
ATOM     12  O   UNL     1      -0.077  -2.544   2.476  0.00  0.00    -0.451 OA
ENDROOT
BRANCH  11  13
ATOM     13  C   UNL     1       0.170  -0.480   5.574  0.00  0.00    -0.021 A 
ATOM     14  C   UNL     1      -0.452   0.713   5.181  0.00  0.00    +0.008 A 
ATOM     15  C   UNL     1      -0.356   1.824   5.969  0.00  0.00    +0.009 A 
ATOM     16  C   UNL     1       0.360   1.772   7.166  0.00  0.00    -0.018 A 
ATOM     17  C   UNL     1       0.981   0.585   7.560  0.00  0.00    +0.009 A 
ATOM     18  C   UNL     1       0.884  -0.530   6.778  0.00  0.00    +0.008 A 
BRANCH  16  19
ATOM     19  C   UNL     1       0.463   2.979   8.020  0.00  0.00    -0.018 A 
ATOM     20  C   UNL     1      -0.160   4.165   7.632  0.00  0.00    +0.008 A 
ATOM     21  C   UNL     1      -0.061   5.286   8.431  0.00  0.00    +0.001 A 
ATOM     22  C   UNL     1       0.654   5.235   9.614  0.00  0.00    +0.000 A 
ATOM     23  C   UNL     1       1.274   4.061  10.004  0.00  0.00    +0.001 A 
ATOM     24  C   UNL     1       1.178   2.932   9.216  0.00  0.00    +0.008 A 
ENDBRANCH  16  19
ENDBRANCH  11  13
BRANCH   4  25
ATOM     25  O   UNL     1       0.104  -2.736  -2.378  0.00  0.00    -0.506 OA
ATOM     26  H   UNL     1       0.923  -3.151  -2.682  0.00  0.00    +0.292 HD
ENDBRANCH   4  25
BRANCH   5  27
ATOM     27  C   UNL     1      -0.405  -4.227  -0.045  0.00  0.00    -0.035 C 
BRANCH  27  28
ATOM     28  N   UNL     1       0.806  -5.057   0.006  0.00  0.00    +0.385 N 
ATOM     29  C   UNL     1       1.607  -4.827  -1.203  0.00  0.00    -0.059 C 
ATOM     30  C   UNL     1       2.923  -5.604  -1.097  0.00  0.00    +0.086 C 
ATOM     31  N   UNL     1       2.611  -7.018  -0.835  0.00  0.00    -0.331 N 
ATOM     32  C   UNL     1       1.681  -7.330   0.262  0.00  0.00    +0.086 C 
ATOM     33  C   UNL     1       0.424  -6.472   0.092  0.00  0.00    -0.059 C 
ATOM     34  H   UNL     1       1.349  -4.806   0.819  0.00  0.00    -0.081 HD
BRANCH  31  35
ATOM     35  C   UNL     1       3.181  -8.035  -1.607  0.00  0.00    +0.065 A 
ATOM     36  C   UNL     1       4.386  -8.608  -1.222  0.00  0.00    +0.026 A 
ATOM     37  C   UNL     1       4.946  -9.613  -1.986  0.00  0.00    +0.002 A 
ATOM     38  C   UNL     1       4.309 -10.050  -3.133  0.00  0.00    +0.003 A 
ATOM     39  C   UNL     1       3.109  -9.482  -3.521  0.00  0.00    +0.040 A 
ATOM     40  C   UNL     1       2.539  -8.480  -2.757  0.00  0.00    +0.144 A 
ATOM     41  F   UNL     1       1.363  -7.930  -3.132  0.00  0.00    -0.204 F 
ENDBRANCH  31  35
ENDBRANCH  27  28
ENDBRANCH   5  27
TORSDOF 6
