REMARK  Name = ZINC12170600
REMARK  13 active torsions:
REMARK  status: ('A' for Active; 'I' for Inactive)
REMARK    1  A    between atoms: C_1  and  C_2
REMARK    2  A    between atoms: C_5  and  O_12
REMARK    3  A    between atoms: C_6  and  C_8
REMARK    4  A    between atoms: C_8  and  C_9
REMARK    5  A    between atoms: C_8  and  C_10
REMARK    6  A    between atoms: C_8  and  C_11
REMARK    7  A    between atoms: O_12  and  C_13
REMARK    8  A    between atoms: C_13  and  C_14
REMARK    9  A    between atoms: C_14  and  C_16
REMARK   10  A    between atoms: C_14  and  O_38
REMARK   11  A    between atoms: C_16  and  N_76
REMARK   12  A    between atoms: C_19  and  C_22
REMARK   13  A    between atoms: C_22  and  N_23
REMARK                            x       y       z     vdW  Elec       q    Type
REMARK                         _______ _______ _______ _____ _____    ______ ____
ROOT
ATOM      1  C   UNL     1       5.842  -2.454  -1.009  0.00  0.00    -0.078 C 
ATOM      2  C   UNL     1       7.324  -2.770  -0.795  0.00  0.00    -0.014 C 
ATOM      3  C   UNL     1       7.483  -4.262  -0.490  0.00  0.00    +0.003 C 
ATOM      4  C   UNL     1       6.647  -4.615   0.743  0.00  0.00    -0.014 C 
ATOM      5  C   UNL     1       5.184  -4.245   0.484  0.00  0.00    -0.078 C 
ATOM      6  N   UNL     1       5.096  -2.793   0.222  0.00  0.00    +0.381 N 
ATOM      7  H   UNL     1       5.510  -2.286   1.013  0.00  0.00    -0.082 HD
ENDROOT
BRANCH   6   8
ATOM      8  C   UNL     1       3.681  -2.391   0.082  0.00  0.00    -0.044 C 
BRANCH   8   9
ATOM      9  C   UNL     1       3.057  -2.306   1.476  0.00  0.00    +0.135 C 
BRANCH   9  10
ATOM     10  O   UNL     1       3.766  -1.344   2.258  0.00  0.00    -0.390 OA
ATOM     11  H   UNL     1       3.757  -0.451   1.887  0.00  0.00    +0.210 HD
ENDBRANCH   9  10
BRANCH   9  12
ATOM     12  C   UNL     1       1.591  -1.883   1.353  0.00  0.00    +0.258 C 
BRANCH  12  13
ATOM     13  O   UNL     1       0.976  -1.917   2.642  0.00  0.00    -0.489 OA
BRANCH  13  18
ATOM     14  C   UNL     1      -4.458  -0.463   2.922  0.00  0.00    +0.044 C 
ATOM     15  C   UNL     1      -3.004  -0.853   2.847  0.00  0.00    -0.050 A 
ATOM     16  C   UNL     1      -2.347  -0.836   1.631  0.00  0.00    +0.007 A 
ATOM     17  C   UNL     1      -1.016  -1.197   1.559  0.00  0.00    +0.046 A 
ATOM     18  C   UNL     1      -0.335  -1.566   2.710  0.00  0.00    +0.124 A 
ATOM     19  C   UNL     1      -0.995  -1.577   3.930  0.00  0.00    -0.000 A 
ATOM     20  C   UNL     1      -2.328  -1.220   3.996  0.00  0.00    +0.011 A 
BRANCH  19  21
ATOM     21  C   UNL     1      -0.259  -1.977   5.182  0.00  0.00    -0.009 C 
ATOM     22  C   UNL     1      -1.210  -1.904   6.379  0.00  0.00    +0.015 C 
ATOM     23  C   UNL     1       0.263  -3.408   5.032  0.00  0.00    +0.015 C 
ATOM     24  C   UNL     1       0.919  -1.027   5.408  0.00  0.00    +0.015 C 
ENDBRANCH  19  21
ENDBRANCH  13  18
ENDBRANCH  12  13
ENDBRANCH   9  12
ENDBRANCH   8   9
ENDBRANCH   6   8
BRANCH   3  25
ATOM     25  C   UNL     1       8.956  -4.574  -0.215  0.00  0.00    +0.120 C 
BRANCH  25  26
ATOM     26  N   UNL     1       9.738  -4.349  -1.433  0.00  0.00    -0.234 N 
ATOM     27  C   UNL     1       9.912  -5.372  -2.290  0.00  0.00    +0.254 C 
ATOM     28  O   UNL     1       9.421  -6.457  -2.044  0.00  0.00    -0.270 OA
ATOM     29  C   UNL     1      10.687  -5.184  -3.525  0.00  0.00    +0.046 A 
ATOM     30  C   UNL     1      10.885  -6.209  -4.439  0.00  0.00    +0.014 A 
ATOM     31  C   UNL     1      11.630  -5.983  -5.591  0.00  0.00    +0.001 A 
ATOM     32  C   UNL     1      12.182  -4.763  -5.858  0.00  0.00    +0.008 A 
ATOM     33  C   UNL     1      12.003  -3.698  -4.958  0.00  0.00    -0.016 A 
ATOM     34  C   UNL     1      11.250  -3.914  -3.786  0.00  0.00    +0.006 A 
ATOM     35  C   UNL     1      11.053  -2.863  -2.862  0.00  0.00    +0.046 A 
ATOM     36  C   UNL     1      11.609  -1.621  -3.126  0.00  0.00    +0.014 A 
ATOM     37  C   UNL     1      12.350  -1.420  -4.286  0.00  0.00    +0.001 A 
ATOM     38  C   UNL     1      12.551  -2.423  -5.189  0.00  0.00    +0.008 A 
ATOM     39  C   UNL     1      10.261  -3.127  -1.651  0.00  0.00    +0.254 C 
ATOM     40  O   UNL     1      10.079  -2.238  -0.842  0.00  0.00    -0.270 OA
ENDBRANCH  25  26
ENDBRANCH   3  25
TORSDOF 9
