REMARK  Name = ZINC21689950
REMARK  13 active torsions:
REMARK  status: ('A' for Active; 'I' for Inactive)
REMARK    1  A    between atoms: C_1  and  C_2
REMARK    2  A    between atoms: C_2  and  C_3
REMARK    3  A    between atoms: C_3  and  C_4
REMARK    4  A    between atoms: C_4  and  N_5
REMARK    5  A    between atoms: N_5  and  C_6
REMARK    6  A    between atoms: C_7  and  N_18
REMARK    7  A    between atoms: N_8  and  C_15
REMARK    8  A    between atoms: C_15  and  C_16
REMARK    9  A    between atoms: C_16  and  C_17
REMARK   10  A    between atoms: C_19  and  C_21
REMARK   11  A    between atoms: C_21  and  S_22
REMARK   12  A    between atoms: S_22  and  C_23
REMARK   13  A    between atoms: C_26  and  C_29
REMARK                            x       y       z     vdW  Elec       q    Type
REMARK                         _______ _______ _______ _____ _____    ______ ____
ROOT
ATOM      1  N   UNL     1       0.047  -2.816   2.371  0.00  0.00    -0.264 N 
ATOM      2  C   UNL     1      -0.063  -2.180   3.556  0.00  0.00    +0.230 C 
ATOM      3  O   UNL     1      -0.077  -0.967   3.594  0.00  0.00    -0.274 OA
ENDROOT
BRANCH   1   4
ATOM      4  C   UNL     1       0.038  -2.077   1.170  0.00  0.00    +0.140 A 
ATOM      5  C   UNL     1      -1.004  -2.204   0.274  0.00  0.00    +0.127 A 
ATOM      6  N   UNL     1      -0.984  -1.471  -0.889  0.00  0.00    -0.280 N 
ATOM      7  C   UNL     1       0.042  -0.642  -1.153  0.00  0.00    +0.331 A 
ATOM      8  O   UNL     1       0.044  -0.006  -2.190  0.00  0.00    -0.246 OA
ATOM      9  N   UNL     1       1.064  -0.501  -0.290  0.00  0.00    -0.273 N 
ATOM     10  H   UNL     1       1.889   0.189  -0.522  0.00  0.00    +0.173 HD
ATOM     11  C   UNL     1       1.093  -1.196   0.863  0.00  0.00    +0.277 A 
ATOM     12  O   UNL     1       2.026  -1.064   1.637  0.00  0.00    -0.266 OA
BRANCH   5  13
ATOM     13  N   UNL     1      -2.050  -3.055   0.542  0.00  0.00    -0.343 N 
ATOM     14  H   UNL     1      -2.878  -3.152  -0.176  0.00  0.00    +0.144 HD
ATOM     15  H   UNL     1      -2.060  -3.638   1.475  0.00  0.00    +0.144 HD
ENDBRANCH   5  13
BRANCH   6  16
ATOM     16  C   UNL     1      -2.084  -1.596  -1.848  0.00  0.00    +0.128 C 
BRANCH  16  17
ATOM     17  C   UNL     1      -3.169  -0.569  -1.518  0.00  0.00    +0.018 C 
ATOM     18  C   UNL     1      -4.318  -0.700  -2.520  0.00  0.00    +0.005 C 
ENDBRANCH  16  17
ENDBRANCH   6  16
ENDBRANCH   1   4
BRANCH   1  19
ATOM     19  C   UNL     1       0.175  -4.275   2.333  0.00  0.00    +0.114 C 
BRANCH  19  20
ATOM     20  C   UNL     1       1.645  -4.663   2.505  0.00  0.00    +0.019 C 
BRANCH  20  22
ATOM     21  C   UNL     1       3.249  -6.574   2.637  0.00  0.00    +0.004 C 
ATOM     22  C   UNL     1       1.779  -6.186   2.465  0.00  0.00    -0.002 C 
ENDBRANCH  20  22
ENDBRANCH  19  20
ENDBRANCH   1  19
BRANCH   2  23
ATOM     23  C   UNL     1      -0.168  -2.975   4.832  0.00  0.00    +0.173 C 
BRANCH  23  24
ATOM     24  S   UNL     1      -0.302  -1.844   6.238  0.00  0.00    -0.077 S 
BRANCH  24  25
ATOM     25  C   UNL     1      -0.407  -3.007   7.558  0.00  0.00    +0.185 A 
ATOM     26  N   UNL     1      -0.521  -2.716   8.887  0.00  0.00    -0.201 NA
ATOM     27  H   UNL     1      -0.308  -4.947   6.548  0.00  0.00    +0.191 HD
ATOM     28  C   UNL     1      -0.573  -3.932   9.530  0.00  0.00    +0.182 A 
ATOM     29  N   UNL     1      -0.492  -4.860   8.605  0.00  0.00    -0.152 NA
ATOM     30  N   UNL     1      -0.391  -4.317   7.445  0.00  0.00    -0.253 N 
BRANCH  28  31
ATOM     31  C   UNL     1      -0.696  -4.151  10.987  0.00  0.00    +0.021 A 
ATOM     32  C   UNL     1      -0.777  -3.061  11.855  0.00  0.00    +0.011 A 
ATOM     33  C   UNL     1      -0.898  -3.272  13.213  0.00  0.00    +0.001 A 
ATOM     34  C   UNL     1      -0.926  -4.561  13.716  0.00  0.00    +0.000 A 
ATOM     35  C   UNL     1      -0.841  -5.645  12.861  0.00  0.00    +0.001 A 
ATOM     36  C   UNL     1      -0.726  -5.448  11.501  0.00  0.00    +0.011 A 
ENDBRANCH  28  31
ENDBRANCH  24  25
ENDBRANCH  23  24
ENDBRANCH   2  23
TORSDOF 11
