REMARK  Name = ZINC39671018
REMARK  7 active torsions:
REMARK  status: ('A' for Active; 'I' for Inactive)
REMARK    1  A    between atoms: C_4  and  O_7
REMARK    2  A    between atoms: O_7  and  C_8
REMARK    3  A    between atoms: C_9  and  C_14
REMARK    4  A    between atoms: C_18  and  C_27
REMARK    5  A    between atoms: N_29  and  C_30
REMARK    6  A    between atoms: C_30  and  C_31
REMARK    7  A    between atoms: C_31  and  C_32
REMARK                            x       y       z     vdW  Elec       q    Type
REMARK                         _______ _______ _______ _____ _____    ______ ____
ROOT
ATOM      1  C   UNL     1       6.005  -1.898   0.124  0.00  0.00    +0.252 C 
ATOM      2  O   UNL     1       6.032  -0.683   0.107  0.00  0.00    -0.270 OA
ATOM      3  N   UNL     1       7.157  -2.598   0.118  0.00  0.00    -0.296 N 
ATOM      4  C   UNL     1       7.328  -4.067   0.207  0.00  0.00    +0.121 C 
ATOM      5  C   UNL     1       8.478  -4.387  -0.774  0.00  0.00    +0.100 C 
ATOM      6  C   UNL     1       9.271  -3.074  -0.890  0.00  0.00    -0.004 C 
ATOM      7  C   UNL     1       8.540  -2.072   0.015  0.00  0.00    +0.115 C 
ATOM      8  C   UNL     1      10.703  -3.277  -0.407  0.00  0.00    -0.010 C 
ATOM      9  C   UNL     1      11.487  -1.973  -0.587  0.00  0.00    -0.082 C 
ATOM     10  N   UNL     1      11.478  -1.586  -2.003  0.00  0.00    +0.379 N 
ATOM     11  C   UNL     1      10.104  -1.303  -2.435  0.00  0.00    -0.082 C 
ATOM     12  C   UNL     1       9.261  -2.578  -2.333  0.00  0.00    -0.010 C 
ATOM     13  H   UNL     1      12.045  -0.761  -2.128  0.00  0.00    -0.086 HD
ATOM     14  H   UNL     1      11.855  -2.339  -2.558  0.00  0.00    -0.086 HD
ENDROOT
BRANCH   1  16
ATOM     15  C   UNL     1       3.606  -2.102  -0.550  0.00  0.00    +0.233 A 
ATOM     16  C   UNL     1       4.712  -2.607   0.151  0.00  0.00    +0.099 A 
ATOM     17  C   UNL     1       4.566  -3.796   0.875  0.00  0.00    +0.020 A 
ATOM     18  C   UNL     1       3.332  -4.423   0.868  0.00  0.00    +0.021 A 
ATOM     19  C   UNL     1       2.289  -3.863   0.153  0.00  0.00    +0.114 A 
ATOM     20  N   UNL     1       2.447  -2.739  -0.519  0.00  0.00    -0.220 NA
BRANCH  15  21
ATOM     21  O   UNL     1       3.724  -0.954  -1.257  0.00  0.00    -0.437 OA
BRANCH  21  25
ATOM     22  C   UNL     1       0.327   0.608  -3.000  0.00  0.00    +0.000 A 
ATOM     23  C   UNL     1       0.430   0.547  -1.623  0.00  0.00    +0.004 A 
ATOM     24  C   UNL     1       1.567   0.025  -1.037  0.00  0.00    +0.046 A 
ATOM     25  C   UNL     1       2.605  -0.440  -1.831  0.00  0.00    +0.130 A 
ATOM     26  C   UNL     1       2.499  -0.378  -3.213  0.00  0.00    +0.046 A 
ATOM     27  C   UNL     1       1.360   0.145  -3.795  0.00  0.00    +0.004 A 
ENDBRANCH  21  25
ENDBRANCH  15  21
ENDBRANCH   1  16
BRANCH   5  28
ATOM     28  C   UNL     1       9.352  -5.482  -0.219  0.00  0.00    +0.218 C 
ATOM     29  O   UNL     1       9.409  -5.665   0.978  0.00  0.00    -0.275 OA
ATOM     30  N   UNL     1      10.070  -6.260  -1.054  0.00  0.00    -0.315 N 
ATOM     31  H   UNL     1      10.024  -6.114  -2.012  0.00  0.00    +0.149 HD
BRANCH  30  32
ATOM     32  C   UNL     1      10.919  -7.324  -0.515  0.00  0.00    +0.112 C 
BRANCH  32  33
ATOM     33  C   UNL     1      11.619  -8.050  -1.666  0.00  0.00    +0.093 C 
BRANCH  33  34
ATOM     34  C   UNL     1      12.493  -9.146  -1.111  0.00  0.00    +0.106 A 
ATOM     35  C   UNL     1      12.115 -10.419  -0.893  0.00  0.00    +0.044 A 
ATOM     36  C   UNL     1      13.241 -11.096  -0.371  0.00  0.00    +0.041 A 
ATOM     37  C   UNL     1      14.239 -10.197  -0.301  0.00  0.00    +0.195 A 
ATOM     38  O   UNL     1      13.782  -9.019  -0.756  0.00  0.00    -0.468 OA
ENDBRANCH  33  34
ENDBRANCH  32  33
ENDBRANCH  30  32
ENDBRANCH   5  28
TORSDOF 7
