REMARK  Name = ZINC12974858
REMARK  10 active torsions:
REMARK  status: ('A' for Active; 'I' for Inactive)
REMARK    1  A    between atoms: C_1  and  C_2
REMARK    2  A    between atoms: C_2  and  C_3
REMARK    3  A    between atoms: C_2  and  C_4
REMARK    4  A    between atoms: C_2  and  C_5
REMARK    5  A    between atoms: C_8  and  C_11
REMARK    6  A    between atoms: C_14  and  S_17
REMARK    7  A    between atoms: N_15  and  C_16
REMARK    8  A    between atoms: S_17  and  C_18
REMARK    9  A    between atoms: C_18  and  C_19
REMARK   10  A    between atoms: C_28  and  O_30
REMARK                            x       y       z     vdW  Elec       q    Type
REMARK                         _______ _______ _______ _____ _____    ______ ____
ROOT
ATOM      1  C   UNL     1       0.031  -0.023  -0.211  0.00  0.00    +0.165 A 
ATOM      2  N   UNL     1       1.071  -0.781   0.046  0.00  0.00    -0.128 NA
ATOM      3  N   UNL     1       0.694  -1.996   0.230  0.00  0.00    -0.122 NA
ATOM      4  C   UNL     1      -0.611  -2.088   0.101  0.00  0.00    +0.192 A 
ATOM      5  N   UNL     1      -1.079  -0.836  -0.179  0.00  0.00    -0.305 N 
ATOM      6  C   UNL     1      -2.472  -0.441  -0.401  0.00  0.00    +0.153 C 
ENDROOT
BRANCH   1  10
ATOM      7  C   UNL     1       0.079   4.155  -0.977  0.00  0.00    -0.042 A 
ATOM      8  C   UNL     1       1.159   3.556  -0.354  0.00  0.00    +0.005 A 
ATOM      9  C   UNL     1       1.150   2.200  -0.102  0.00  0.00    +0.012 A 
ATOM     10  C   UNL     1       0.048   1.431  -0.478  0.00  0.00    +0.019 A 
ATOM     11  C   UNL     1      -1.037   2.040  -1.112  0.00  0.00    +0.012 A 
ATOM     12  C   UNL     1      -1.017   3.398  -1.353  0.00  0.00    +0.005 A 
BRANCH   7  14
ATOM     13  C   UNL     1       1.282   5.976  -2.154  0.00  0.00    +0.015 C 
ATOM     14  C   UNL     1       0.096   5.637  -1.249  0.00  0.00    -0.013 C 
ATOM     15  C   UNL     1      -1.207   6.043  -1.941  0.00  0.00    +0.015 C 
ATOM     16  C   UNL     1       0.229   6.396   0.073  0.00  0.00    +0.015 C 
ENDBRANCH   7  14
ENDBRANCH   1  10
BRANCH   4  17
ATOM     17  S   UNL     1      -1.577  -3.552   0.264  0.00  0.00    -0.081 S 
BRANCH  17  18
ATOM     18  C   UNL     1      -0.271  -4.750   0.632  0.00  0.00    +0.113 C 
BRANCH  18  19
ATOM     19  C   UNL     1      -0.880  -6.116   0.817  0.00  0.00    -0.020 A 
ATOM     20  C   UNL     1      -1.035  -6.960  -0.237  0.00  0.00    +0.097 A 
ATOM     21  C   UNL     1      -1.608  -8.233  -0.038  0.00  0.00    +0.338 A 
ATOM     22  O   UNL     1      -1.741  -8.979  -0.991  0.00  0.00    -0.245 OA
ATOM     23  O   UNL     1      -2.011  -8.643   1.175  0.00  0.00    -0.422 OA
ATOM     24  C   UNL     1      -1.885  -7.854   2.264  0.00  0.00    +0.143 A 
ATOM     25  C   UNL     1      -1.316  -6.573   2.138  0.00  0.00    +0.023 A 
ATOM     26  C   UNL     1      -1.178  -5.754   3.265  0.00  0.00    +0.035 A 
ATOM     27  C   UNL     1      -1.592  -6.205   4.486  0.00  0.00    +0.083 A 
ATOM     28  C   UNL     1      -2.151  -7.475   4.617  0.00  0.00    +0.139 A 
ATOM     29  C   UNL     1      -2.306  -8.293   3.509  0.00  0.00    +0.093 A 
ATOM     30 CL   UNL     1      -1.421  -5.189   5.883  0.00  0.00    -0.080 Cl
BRANCH  28  31
ATOM     31  O   UNL     1      -2.559  -7.909   5.837  0.00  0.00    -0.505 OA
ATOM     32  H   UNL     1      -3.480  -7.697   6.042  0.00  0.00    +0.292 HD
ENDBRANCH  28  31
ENDBRANCH  18  19
ENDBRANCH  17  18
ENDBRANCH   4  17
TORSDOF 6
