REMARK  Name = ZINC37425649
REMARK  12 active torsions:
REMARK  status: ('A' for Active; 'I' for Inactive)
REMARK    1  A    between atoms: C_1  and  C_2
REMARK    2  A    between atoms: C_7  and  N_8
REMARK    3  A    between atoms: C_11  and  C_13
REMARK    4  A    between atoms: C_13  and  C_14
REMARK    5  A    between atoms: C_13  and  C_15
REMARK    6  A    between atoms: C_13  and  C_16
REMARK    7  A    between atoms: C_17  and  C_31
REMARK    8  A    between atoms: N_23  and  C_24
REMARK    9  A    between atoms: C_24  and  C_25
REMARK   10  A    between atoms: N_27  and  C_28
REMARK   11  A    between atoms: C_28  and  C_29
REMARK   12  A    between atoms: C_28  and  C_30
REMARK                            x       y       z     vdW  Elec       q    Type
REMARK                         _______ _______ _______ _____ _____    ______ ____
ROOT
ATOM      1  N   UNL     1       1.455   3.632   1.195  0.00  0.00    -0.217 N 
ATOM      2  C   UNL     1       2.422   2.772   1.594  0.00  0.00    +0.136 A 
ATOM      3  C   UNL     1       2.210   2.476   2.897  0.00  0.00    +0.034 A 
ATOM      4  C   UNL     1       1.075   3.172   3.316  0.00  0.00    +0.075 A 
ATOM      5  N   UNL     1       0.624   3.869   2.301  0.00  0.00    -0.169 NA
ATOM      6  C   UNL     1       3.073   1.556   3.722  0.00  0.00    +0.112 C 
ATOM      7  S   UNL     1       2.748  -0.168   3.204  0.00  0.00    -0.138 S 
ATOM      8  C   UNL     1       2.631   0.001   1.391  0.00  0.00    +0.166 C 
ATOM      9  C   UNL     1       3.692   0.925   0.875  0.00  0.00    +0.231 C 
ATOM     10  O   UNL     1       4.751   0.474   0.491  0.00  0.00    -0.274 OA
ATOM     11  N   UNL     1       3.476   2.244   0.835  0.00  0.00    -0.246 N 
ENDROOT
BRANCH   1  18
ATOM     12  C   UNL     1       1.126   6.451   0.983  0.00  0.00    +0.046 C 
ATOM     13  C   UNL     1       1.152   5.559  -0.232  0.00  0.00    -0.025 A 
ATOM     14  C   UNL     1       1.019   6.105  -1.494  0.00  0.00    +0.005 A 
ATOM     15  C   UNL     1       1.042   5.287  -2.608  0.00  0.00    +0.000 A 
ATOM     16  C   UNL     1       1.199   3.921  -2.463  0.00  0.00    +0.002 A 
ATOM     17  C   UNL     1       1.333   3.369  -1.204  0.00  0.00    +0.028 A 
ATOM     18  C   UNL     1       1.315   4.189  -0.083  0.00  0.00    +0.070 A 
ENDBRANCH   1  18
BRANCH   6  19
ATOM     19  C   UNL     1       2.736   1.720   5.182  0.00  0.00    -0.030 A 
ATOM     20  C   UNL     1       1.945   0.783   5.819  0.00  0.00    +0.008 A 
ATOM     21  C   UNL     1       1.636   0.932   7.157  0.00  0.00    +0.038 A 
ATOM     22  C   UNL     1       2.120   2.022   7.861  0.00  0.00    +0.123 A 
ATOM     23  C   UNL     1       2.913   2.961   7.223  0.00  0.00    +0.038 A 
ATOM     24  C   UNL     1       3.225   2.806   5.885  0.00  0.00    +0.008 A 
ATOM     25  F   UNL     1       1.819   2.170   9.170  0.00  0.00    -0.205 F 
ENDBRANCH   6  19
BRANCH   4  26
ATOM     26  C   UNL     1       0.475   3.133   4.698  0.00  0.00    +0.007 C 
ATOM     27  C   UNL     1       1.321   3.985   5.646  0.00  0.00    +0.017 C 
ATOM     28  C   UNL     1      -0.951   3.687   4.650  0.00  0.00    +0.017 C 
ATOM     29  C   UNL     1       0.444   1.688   5.200  0.00  0.00    +0.017 C 
ENDBRANCH   4  26
BRANCH  11  30
ATOM     30  C   UNL     1       4.321   3.117   0.017  0.00  0.00    +0.210 C 
BRANCH  30  31
ATOM     31  C   UNL     1       5.550   3.503   0.799  0.00  0.00    +0.231 C 
ATOM     32  O   UNL     1       5.705   3.090   1.928  0.00  0.00    -0.274 OA
ATOM     33  N   UNL     1       6.477   4.308   0.243  0.00  0.00    -0.312 N 
ATOM     34  H   UNL     1       6.354   4.639  -0.661  0.00  0.00    +0.149 HD
BRANCH  33  35
ATOM     35  C   UNL     1       7.672   4.684   1.003  0.00  0.00    +0.067 C 
ATOM     36  C   UNL     1       8.803   5.035   0.035  0.00  0.00    +0.027 C 
ATOM     37  C   UNL     1       7.357   5.897   1.881  0.00  0.00    +0.027 C 
ENDBRANCH  33  35
ENDBRANCH  30  31
ENDBRANCH  11  30
TORSDOF 6
