REMARK  Name = ZINC08749254
REMARK  8 active torsions:
REMARK  status: ('A' for Active; 'I' for Inactive)
REMARK    1  A    between atoms: C_1  and  C_2
REMARK    2  A    between atoms: C_7  and  C_9
REMARK    3  A    between atoms: C_7  and  C_30
REMARK    4  A    between atoms: C_7  and  N_65
REMARK    5  A    between atoms: C_9  and  N_10
REMARK    6  A    between atoms: C_11  and  C_13
REMARK    7  A    between atoms: N_18  and  S_20
REMARK    8  A    between atoms: S_20  and  C_23
REMARK                            x       y       z     vdW  Elec       q    Type
REMARK                         _______ _______ _______ _____ _____    ______ ____
ROOT
ATOM      1  N   UNL     1      -2.488   1.117  -3.102  0.00  0.00    -0.316 N 
ATOM      2  C   UNL     1      -3.533   1.515  -3.854  0.00  0.00    +0.217 C 
ATOM      3  O   UNL     1      -3.357   2.275  -4.783  0.00  0.00    -0.275 OA
ATOM      4  H   UNL     1      -2.628   0.509  -2.359  0.00  0.00    +0.149 HD
ENDROOT
BRANCH   2   5
ATOM      5  C   UNL     1      -4.920   1.015  -3.542  0.00  0.00    +0.091 C 
ATOM      6  C   UNL     1      -5.308   1.438  -2.124  0.00  0.00    +0.015 C 
ATOM      7  C   UNL     1      -6.703   0.903  -1.794  0.00  0.00    +0.018 C 
ATOM      8  C   UNL     1      -7.720   1.500  -2.772  0.00  0.00    +0.109 C 
ATOM      9  N   UNL     1      -7.275   1.222  -4.145  0.00  0.00    -0.176 NA
ATOM     10  C   UNL     1      -5.916   1.614  -4.540  0.00  0.00    +0.122 C 
BRANCH   9  11
ATOM     11  S   UNL     1      -8.287   0.479  -5.225  0.00  0.00    +0.061 S 
ATOM     12  O   UNL     1      -9.613   0.733  -4.780  0.00  0.00    -0.153 OA
ATOM     13  O   UNL     1      -7.836   0.845  -6.522  0.00  0.00    -0.153 OA
BRANCH  11  14
ATOM     14  C   UNL     1      -8.029  -1.257  -5.072  0.00  0.00    +0.106 A 
ATOM     15  C   UNL     1      -7.077  -1.885  -5.854  0.00  0.00    +0.031 A 
ATOM     16  C   UNL     1      -6.870  -3.246  -5.731  0.00  0.00    +0.040 A 
ATOM     17  C   UNL     1      -7.624  -3.982  -4.833  0.00  0.00    +0.124 A 
ATOM     18  C   UNL     1      -8.581  -3.353  -4.055  0.00  0.00    +0.040 A 
ATOM     19  C   UNL     1      -8.782  -1.991  -4.175  0.00  0.00    +0.031 A 
ATOM     20  F   UNL     1      -7.427  -5.314  -4.717  0.00  0.00    -0.205 F 
ENDBRANCH  11  14
ENDBRANCH   9  11
ENDBRANCH   2   5
BRANCH   1  21
ATOM     21  C   UNL     1      -1.139   1.603  -3.405  0.00  0.00    +0.094 C 
BRANCH  21  22
ATOM     22  C   UNL     1      -0.145   1.005  -2.408  0.00  0.00    -0.013 C 
BRANCH  22  29
ATOM     23  C   UNL     1      -1.053   2.708   2.972  0.00  0.00    +0.007 C 
ATOM     24  C   UNL     1      -0.442   2.508   1.584  0.00  0.00    -0.018 C 
ATOM     25  C   UNL     1      -0.163   1.019   1.357  0.00  0.00    -0.015 C 
ATOM     26  C   UNL     1       0.391   0.818  -0.055  0.00  0.00    -0.078 C 
ATOM     27  C   UNL     1      -0.831   2.745  -0.871  0.00  0.00    -0.078 C 
ATOM     28  C   UNL     1      -1.421   3.004   0.517  0.00  0.00    -0.015 C 
ATOM     29  N   UNL     1      -0.609   1.292  -1.035  0.00  0.00    +0.386 N 
ATOM     30  H   UNL     1      -1.494   0.800  -0.872  0.00  0.00    -0.081 HD
ENDBRANCH  22  29
BRANCH  22  31
ATOM     31  C   UNL     1       1.220   1.598  -2.642  0.00  0.00    -0.022 A 
ATOM     32  C   UNL     1       2.327   1.014  -3.162  0.00  0.00    +0.009 A 
ATOM     33  C   UNL     1       3.483   1.762  -3.288  0.00  0.00    +0.008 A 
ATOM     34  C   UNL     1       3.478   3.054  -2.878  0.00  0.00    +0.045 A 
ATOM     35  S   UNL     1       1.801   3.251  -2.299  0.00  0.00    -0.103 S 
ENDBRANCH  22  31
ENDBRANCH  21  22
ENDBRANCH   1  21
TORSDOF 7
