REMARK  Name = ZINC43428171
REMARK  2 active torsions:
REMARK  status: ('A' for Active; 'I' for Inactive)
REMARK    1  A    between atoms: C_15  and  C_17
REMARK    2  A    between atoms: C_18  and  C_19
REMARK                            x       y       z     vdW  Elec       q    Type
REMARK                         _______ _______ _______ _____ _____    ______ ____
ROOT
ATOM      1  C   UNL     1      -0.019   1.534   0.011  0.00  0.00    +0.004 C 
ATOM      2  C   UNL     1       1.457   1.974  -0.001  0.00  0.00    +0.025 C 
ATOM      3  C   UNL     1       2.209   0.837  -0.724  0.00  0.00    +0.106 C 
ATOM      4  C   UNL     1       1.392  -0.426  -0.492  0.00  0.00    +0.139 C 
ATOM      5  C   UNL     1       0.002  -0.004   0.002  0.00  0.00    +0.033 C 
ATOM      6  O   UNL     1       1.275  -1.244  -1.643  0.00  0.00    -0.373 OA
ATOM      7  C   UNL     1       0.828  -0.549  -2.813  0.00  0.00    +0.179 C 
ATOM      8  C   UNL     1       1.962   0.386  -3.247  0.00  0.00    +0.138 C 
ATOM      9  N   UNL     1       2.377   1.182  -2.120  0.00  0.00    -0.278 N 
ATOM     10  C   UNL     1       2.959   2.364  -2.403  0.00  0.00    +0.309 C 
ATOM     11  O   UNL     1       3.320   3.096  -1.502  0.00  0.00    -0.252 OA
ATOM     12  N   UNL     1       3.141   2.736  -3.686  0.00  0.00    -0.236 N 
ATOM     13  C   UNL     1       3.723   3.918  -3.969  0.00  0.00    +0.244 C 
ATOM     14  O   UNL     1       4.083   4.649  -3.068  0.00  0.00    -0.270 OA
ATOM     15  H   UNL     1       2.853   2.152  -4.405  0.00  0.00    +0.159 HD
ENDROOT
BRANCH  13  16
ATOM     16  C   UNL     1       3.922   4.325  -5.376  0.00  0.00    +0.075 C 
ATOM     17  C   UNL     1       4.502   5.503  -5.658  0.00  0.00    +0.101 C 
BRANCH  17  18
ATOM     18  C   UNL     1       4.701   5.910  -7.061  0.00  0.00    +0.380 C 
ATOM     19  O   UNL     1       4.338   5.174  -7.968  0.00  0.00    -0.241 OA
ATOM     20  O   UNL     1       5.228   6.982  -7.319  0.00  0.00    -0.241 OA
ENDBRANCH  17  18
ENDBRANCH  13  16
TORSDOF 2
