REMARK  Name = ZINC11426285
REMARK  4 active torsions:
REMARK  status: ('A' for Active; 'I' for Inactive)
REMARK    1  A    between atoms: C_3  and  C_9
REMARK    2  A    between atoms: C_12  and  S_15
REMARK    3  A    between atoms: N_13  and  N_14
REMARK    4  A    between atoms: S_15  and  C_16
REMARK                            x       y       z     vdW  Elec       q    Type
REMARK                         _______ _______ _______ _____ _____    ______ ____
ROOT
ATOM      1  C   UNL     1      -2.502   1.006   0.024  0.00  0.00    +0.183 A 
ATOM      2  N   UNL     1      -2.639  -0.296  -0.075  0.00  0.00    -0.127 NA
ATOM      3  N   UNL     1      -3.885  -0.609  -0.043  0.00  0.00    -0.121 NA
ATOM      4  C   UNL     1      -4.620   0.473   0.078  0.00  0.00    +0.209 A 
ATOM      5  N   UNL     1      -3.766   1.538   0.131  0.00  0.00    -0.224 N 
ENDROOT
BRANCH   1   8
ATOM      6  C   UNL     1       0.189   3.444   0.983  0.00  0.00    +0.021 A 
ATOM      7  C   UNL     1      -1.003   2.749   0.982  0.00  0.00    +0.014 A 
ATOM      8  C   UNL     1      -1.229   1.758   0.027  0.00  0.00    +0.039 A 
ATOM      9  C   UNL     1      -0.249   1.481  -0.930  0.00  0.00    +0.053 A 
ATOM     10  C   UNL     1       0.939   2.184  -0.919  0.00  0.00    +0.040 A 
ATOM     11  C   UNL     1       1.158   3.163   0.035  0.00  0.00    +0.042 A 
ATOM     12 CL   UNL     1       2.655   4.042   0.043  0.00  0.00    -0.083 Cl
ATOM     13 CL   UNL     1      -0.524   0.254  -2.127  0.00  0.00    -0.083 Cl
ENDBRANCH   1   8
BRANCH   5  14
ATOM     14  N   UNL     1      -4.098   2.857   0.260  0.00  0.00    -0.295 N 
ATOM     15  H   UNL     1      -4.314   3.265  -0.637  0.00  0.00    +0.163 HD
ATOM     16  H   UNL     1      -4.865   2.975   0.905  0.00  0.00    +0.163 HD
ENDBRANCH   5  14
BRANCH   4  17
ATOM     17  S   UNL     1      -6.379   0.538   0.163  0.00  0.00    -0.072 S 
BRANCH  17  18
ATOM     18  C   UNL     1      -6.765  -1.225   0.038  0.00  0.00    +0.140 C 
ATOM     19  C   UNL     1      -8.274  -1.433   0.191  0.00  0.00    +0.024 C 
ATOM     20  C   UNL     1      -8.576  -2.834   0.689  0.00  0.00    +0.003 C 
ATOM     21  C   UNL     1      -8.228  -3.926  -0.306  0.00  0.00    +0.019 C 
ATOM     22  C   UNL     1      -6.715  -4.012  -0.515  0.00  0.00    +0.104 C 
ATOM     23  N   UNL     1      -6.329  -3.054  -1.565  0.00  0.00    -0.314 N 
ATOM     24  C   UNL     1      -6.344  -1.743  -1.321  0.00  0.00    +0.226 C 
ATOM     25  O   UNL     1      -6.020  -0.963  -2.191  0.00  0.00    -0.275 OA
ATOM     26  H   UNL     1      -6.063  -3.379  -2.439  0.00  0.00    +0.149 HD
ENDBRANCH  17  18
ENDBRANCH   4  17
TORSDOF 4
