REMARK  Name = ZINC25488835
REMARK  6 active torsions:
REMARK  status: ('A' for Active; 'I' for Inactive)
REMARK    1  A    between atoms: C_1  and  C_2
REMARK    2  A    between atoms: C_1  and  N_5
REMARK    3  A    between atoms: N_5  and  C_6
REMARK    4  A    between atoms: C_6  and  S_8
REMARK    5  A    between atoms: S_8  and  C_9
REMARK    6  A    between atoms: C_9  and  C_10
REMARK                            x       y       z     vdW  Elec       q    Type
REMARK                         _______ _______ _______ _____ _____    ______ ____
ROOT
ATOM      1  C   UNL     1      -0.016   1.344   0.009  0.00  0.00    +0.108 C 
ATOM      2  S   UNL     1       1.455   2.220   0.000  0.00  0.00    -0.028 S 
ENDROOT
BRANCH   1   3
ATOM      3  N   UNL     1       0.002  -0.004   0.002  0.00  0.00    -0.323 N 
ATOM      4  H   UNL     1      -0.943  -0.567   0.008  0.00  0.00    +0.148 HD
BRANCH   3   5
ATOM      5  C   UNL     1       1.281  -0.719  -0.014  0.00  0.00    +0.228 C 
BRANCH   5   6
ATOM      6  C   UNL     1       1.025  -2.204  -0.020  0.00  0.00    +0.373 C 
ATOM      7  O   UNL     1      -0.108  -2.623  -0.011  0.00  0.00    -0.245 OA
ATOM      8  O   UNL     1       2.057  -3.063  -0.034  0.00  0.00    -0.245 OA
ENDBRANCH   5   6
ENDBRANCH   3   5
ENDBRANCH   1   3
BRANCH   1   9
ATOM      9  S   UNL     1      -1.554   2.204   0.021  0.00  0.00    -0.091 S 
BRANCH   9  10
ATOM     10  C   UNL     1      -0.958   3.913   0.028  0.00  0.00    +0.201 C 
BRANCH  10  11
ATOM     11  C   UNL     1      -2.134   4.855   0.039  0.00  0.00    +0.366 C 
ATOM     12  O   UNL     1      -3.260   4.416   0.042  0.00  0.00    -0.245 OA
ATOM     13  O   UNL     1      -1.931   6.182   0.045  0.00  0.00    -0.245 OA
ENDBRANCH  10  11
ENDBRANCH   9  10
ENDBRANCH   1   9
TORSDOF 6
