REMARK  Name = ZINC10066295
REMARK  11 active torsions:
REMARK  status: ('A' for Active; 'I' for Inactive)
REMARK    1  A    between atoms: C_1  and  N_55
REMARK    2  A    between atoms: C_2  and  N_55
REMARK    3  A    between atoms: C_3  and  C_4
REMARK    4  A    between atoms: C_3  and  N_55
REMARK    5  A    between atoms: C_4  and  N_5
REMARK    6  A    between atoms: C_9  and  O_17
REMARK    7  A    between atoms: C_12  and  O_15
REMARK    8  A    between atoms: O_15  and  C_16
REMARK    9  A    between atoms: O_17  and  C_18
REMARK   10  A    between atoms: C_19  and  C_21
REMARK   11  A    between atoms: C_25  and  N_30
REMARK                            x       y       z     vdW  Elec       q    Type
REMARK                         _______ _______ _______ _____ _____    ______ ____
ROOT
ATOM      1  N   UNL     1       4.534  -3.135  -0.118  0.00  0.00    -0.248 N 
ATOM      2  C   UNL     1       3.456  -2.266  -0.094  0.00  0.00    +0.169 A 
ATOM      3  N   UNL     1       3.453  -0.956  -0.172  0.00  0.00    -0.221 NA
ATOM      4  C   UNL     1       2.314  -0.229  -0.136  0.00  0.00    +0.125 A 
ATOM      5  C   UNL     1       2.172   1.181  -0.210  0.00  0.00    +0.147 A 
ATOM      6  C   UNL     1       0.930   1.765  -0.157  0.00  0.00    +0.051 A 
ATOM      7  C   UNL     1      -0.224   1.005  -0.030  0.00  0.00    +0.050 A 
ATOM      8  C   UNL     1      -0.122  -0.375   0.046  0.00  0.00    +0.136 A 
ATOM      9  C   UNL     1       1.119  -0.970  -0.007  0.00  0.00    +0.086 A 
ATOM     10  S   UNL     1       1.715  -2.643   0.052  0.00  0.00    -0.048 S 
ATOM     11  C   UNL     1       4.330  -4.464  -0.024  0.00  0.00    +0.259 C 
ATOM     12  O   UNL     1       3.206  -4.897   0.144  0.00  0.00    -0.269 OA
ENDROOT
BRANCH  11  13
ATOM     13  C   UNL     1       5.466  -5.391  -0.125  0.00  0.00    +0.076 A 
ATOM     14  C   UNL     1       5.449  -6.749  -0.182  0.00  0.00    +0.029 A 
ATOM     15  C   UNL     1       6.657  -7.462  -0.283  0.00  0.00    -0.008 A 
ATOM     16  C   UNL     1       6.845  -8.867  -0.358  0.00  0.00    +0.041 A 
ATOM     17  C   UNL     1       8.091  -9.398  -0.446  0.00  0.00    +0.127 A 
ATOM     18  C   UNL     1       9.225  -8.595  -0.465  0.00  0.00    +0.034 A 
ATOM     19  C   UNL     1       9.089  -7.223  -0.394  0.00  0.00    +0.018 A 
ATOM     20  C   UNL     1       7.829  -6.670  -0.304  0.00  0.00    +0.020 A 
ATOM     21  S   UNL     1       7.208  -5.010  -0.195  0.00  0.00    -0.084 S 
BRANCH  17  22
ATOM     22  N   UNL     1       8.246 -10.868  -0.522  0.00  0.00    +0.056 N 
ATOM     23  O   UNL     1       7.262 -11.585  -0.506  0.00  0.00    -0.126 OA
ATOM     24  O   UNL     1       9.357 -11.360  -0.601  0.00  0.00    -0.126 OA
ENDBRANCH  17  22
ENDBRANCH  11  13
BRANCH   8  25
ATOM     25  O   UNL     1      -1.242  -1.138   0.171  0.00  0.00    -0.494 OA
ATOM     26  C   UNL     1      -2.494  -0.451   0.219  0.00  0.00    +0.277 C 
ENDBRANCH   8  25
BRANCH   5  27
ATOM     27  O   UNL     1       3.279   1.962  -0.336  0.00  0.00    -0.493 OA
ATOM     28  C   UNL     1       3.071   3.374  -0.405  0.00  0.00    +0.277 C 
ENDBRANCH   5  27
BRANCH   1  29
ATOM     29  C   UNL     1       5.896  -2.610  -0.245  0.00  0.00    +0.097 C 
BRANCH  29  30
ATOM     30  C   UNL     1       6.534  -2.506   1.141  0.00  0.00    -0.060 C 
BRANCH  30  33
ATOM     31  C   UNL     1       7.885  -0.592   0.530  0.00  0.00    -0.097 C 
ATOM     32  C   UNL     1       8.626  -2.086   2.286  0.00  0.00    -0.097 C 
ATOM     33  N   UNL     1       7.913  -1.995   0.994  0.00  0.00    +0.377 N 
ATOM     34  H   UNL     1       8.408  -2.567   0.299  0.00  0.00    -0.083 HD
ENDBRANCH  30  33
ENDBRANCH  29  30
ENDBRANCH   1  29
TORSDOF 7
