REMARK  Name = ZINC19875173
REMARK  8 active torsions:
REMARK  status: ('A' for Active; 'I' for Inactive)
REMARK    1  A    between atoms: C_1  and  C_2
REMARK    2  A    between atoms: C_5  and  N_9
REMARK    3  A    between atoms: C_13  and  N_17
REMARK    4  A    between atoms: N_17  and  C_18
REMARK    5  A    between atoms: C_18  and  C_19
REMARK    6  A    between atoms: C_19  and  C_20
REMARK    7  A    between atoms: C_27  and  O_30
REMARK    8  A    between atoms: O_30  and  C_31
REMARK                            x       y       z     vdW  Elec       q    Type
REMARK                         _______ _______ _______ _____ _____    ______ ____
ROOT
ATOM      1  N   UNL     1      -2.640  -2.194   1.499  0.00  0.00    +0.387 N 
ATOM      2  H   UNL     1      -2.381  -3.070   0.885  0.00  0.00    -0.085 HD
ATOM      3  H   UNL     1      -3.485  -1.660   1.039  0.00  0.00    -0.085 HD
ENDROOT
BRANCH   1   8
ATOM      4  N   UNL     1      -3.060  -4.880   3.465  0.00  0.00    -0.212 N 
ATOM      5  C   UNL     1      -4.352  -4.585   3.278  0.00  0.00    +0.225 C 
ATOM      6  O   UNL     1      -5.276  -5.358   3.416  0.00  0.00    -0.275 OA
ATOM      7  C   UNL     1      -4.478  -3.134   2.867  0.00  0.00    +0.090 C 
ATOM      8  C   UNL     1      -3.018  -2.637   2.848  0.00  0.00    +0.026 C 
ATOM      9  C   UNL     1      -2.221  -3.858   3.250  0.00  0.00    +0.213 C 
ATOM     10  O   UNL     1      -1.015  -3.905   3.361  0.00  0.00    -0.277 OA
BRANCH   4  15
ATOM     11  C   UNL     1      -1.281 -10.037   5.037  0.00  0.00    +0.045 C 
ATOM     12  C   UNL     1      -1.753  -8.668   4.619  0.00  0.00    -0.032 A 
ATOM     13  C   UNL     1      -2.494  -7.896   5.495  0.00  0.00    +0.006 A 
ATOM     14  C   UNL     1      -2.928  -6.641   5.115  0.00  0.00    +0.024 A 
ATOM     15  C   UNL     1      -2.620  -6.154   3.852  0.00  0.00    +0.045 A 
ATOM     16  C   UNL     1      -1.881  -6.932   2.972  0.00  0.00    +0.044 A 
ATOM     17  C   UNL     1      -1.445  -8.185   3.359  0.00  0.00    +0.046 A 
ATOM     18 CL   UNL     1      -0.515  -9.157   2.262  0.00  0.00    -0.083 Cl
ENDBRANCH   4  15
ENDBRANCH   1   8
BRANCH   1  19
ATOM     19  C   UNL     1      -1.482  -1.292   1.546  0.00  0.00    -0.077 C 
BRANCH  19  20
ATOM     20  C   UNL     1      -1.119  -0.854   0.126  0.00  0.00    +0.018 C 
BRANCH  20  21
ATOM     21  C   UNL     1       0.070   0.072   0.174  0.00  0.00    -0.024 A 
ATOM     22  C   UNL     1       0.036   1.413   0.197  0.00  0.00    +0.087 A 
ATOM     23  N   UNL     1       1.310   1.911   0.239  0.00  0.00    -0.360 N 
ATOM     24  H   UNL     1       1.475   2.998   0.263  0.00  0.00    +0.165 HD
ATOM     25  C   UNL     1       2.218   0.874   0.245  0.00  0.00    +0.047 A 
ATOM     26  C   UNL     1       1.480  -0.323   0.204  0.00  0.00    +0.006 A 
ATOM     27  C   UNL     1       2.143  -1.552   0.199  0.00  0.00    +0.056 A 
ATOM     28  C   UNL     1       3.523  -1.583   0.235  0.00  0.00    +0.121 A 
ATOM     29  C   UNL     1       4.251  -0.397   0.276  0.00  0.00    +0.047 A 
ATOM     30  C   UNL     1       3.607   0.821   0.281  0.00  0.00    +0.030 A 
BRANCH  28  31
ATOM     31  O   UNL     1       4.174  -2.777   0.231  0.00  0.00    -0.495 OA
ATOM     32  C   UNL     1       5.602  -2.737   0.270  0.00  0.00    +0.277 C 
ENDBRANCH  28  31
ENDBRANCH  20  21
ENDBRANCH  19  20
ENDBRANCH   1  19
TORSDOF 6
