REMARK  Name = ZINC25783707
REMARK  6 active torsions:
REMARK  status: ('A' for Active; 'I' for Inactive)
REMARK    1  A    between atoms: C_1  and  C_2
REMARK    2  A    between atoms: C_2  and  N_3
REMARK    3  A    between atoms: N_3  and  C_4
REMARK    4  A    between atoms: N_3  and  C_6
REMARK    5  A    between atoms: C_4  and  C_5
REMARK    6  A    between atoms: C_17  and  C_19
REMARK                            x       y       z     vdW  Elec       q    Type
REMARK                         _______ _______ _______ _____ _____    ______ ____
ROOT
ATOM      1  C   UNL     1       1.220  -0.700  -0.025  0.00  0.00    +0.033 A 
ATOM      2  C   UNL     1       0.004  -0.006  -0.020  0.00  0.00    +0.025 A 
ATOM      3  C   UNL     1      -0.015   1.353  -0.017  0.00  0.00    +0.033 A 
ATOM      4  C   UNL     1       1.196   2.076  -0.018  0.00  0.00    +0.107 A 
ATOM      5  C   UNL     1       2.424   1.377  -0.023  0.00  0.00    +0.156 A 
ATOM      6  C   UNL     1       2.423  -0.009  -0.026  0.00  0.00    +0.071 A 
ATOM      7  O   UNL     1       3.596   2.051  -0.024  0.00  0.00    -0.452 OA
ATOM      8  C   UNL     1       3.583   3.402  -0.022  0.00  0.00    +0.156 A 
ATOM      9  C   UNL     1       4.762   4.113  -0.024  0.00  0.00    +0.072 A 
ATOM     10  C   UNL     1       4.770   5.511  -0.021  0.00  0.00    +0.045 A 
ATOM     11  N   UNL     1       5.937   6.167  -0.023  0.00  0.00    -0.281 N 
ATOM     12  C   UNL     1       7.083   5.490   0.063  0.00  0.00    +0.248 C 
ATOM     13  O   UNL     1       7.410   4.729  -0.832  0.00  0.00    -0.270 OA
ATOM     14  C   UNL     1       3.508   6.269  -0.017  0.00  0.00    +0.006 A 
ATOM     15  C   UNL     1       3.510   7.664  -0.015  0.00  0.00    +0.010 A 
ATOM     16  C   UNL     1       2.315   8.351  -0.011  0.00  0.00    +0.001 A 
ATOM     17  C   UNL     1       1.108   7.668  -0.009  0.00  0.00    +0.001 A 
ATOM     18  C   UNL     1       1.084   6.288  -0.011  0.00  0.00    +0.011 A 
ATOM     19  C   UNL     1       2.281   5.576  -0.015  0.00  0.00    +0.013 A 
ATOM     20  C   UNL     1       2.294   4.104  -0.017  0.00  0.00    +0.115 A 
ATOM     21  N   UNL     1       1.171   3.415  -0.016  0.00  0.00    -0.240 NA
ATOM     22  H   UNL     1       5.950   7.265  -0.096  0.00  0.00    +0.155 HD
ENDROOT
BRANCH  12  23
ATOM     23  C   UNL     1       7.957   5.663   1.246  0.00  0.00    +0.038 A 
ATOM     24  C   UNL     1       7.573   6.541   2.274  0.00  0.00    +0.013 A 
ATOM     25  C   UNL     1       8.357   6.716   3.369  0.00  0.00    +0.009 A 
ATOM     26  C   UNL     1       9.570   6.013   3.485  0.00  0.00    -0.018 A 
ATOM     27  C   UNL     1      10.398   6.176   4.609  0.00  0.00    +0.008 A 
ATOM     28  C   UNL     1      11.566   5.482   4.693  0.00  0.00    +0.001 A 
ATOM     29  C   UNL     1      11.957   4.609   3.680  0.00  0.00    +0.001 A 
ATOM     30  C   UNL     1      11.181   4.424   2.577  0.00  0.00    +0.008 A 
ATOM     31  C   UNL     1       9.968   5.125   2.454  0.00  0.00    -0.017 A 
ATOM     32  C   UNL     1       9.142   4.953   1.333  0.00  0.00    +0.021 A 
ENDBRANCH  12  23
BRANCH   1  33
ATOM     33  N   UNL     1       1.221  -2.088  -0.027  0.00  0.00    -0.330 N 
BRANCH  33  35
ATOM     34  C   UNL     1      -0.491  -3.075  -1.468  0.00  0.00    +0.024 C 
ATOM     35  C   UNL     1      -0.046  -2.823  -0.026  0.00  0.00    +0.102 C 
ENDBRANCH  33  35
BRANCH  33  36
ATOM     36  C   UNL     1       2.491  -2.819  -0.032  0.00  0.00    +0.102 C 
ATOM     37  C   UNL     1       2.937  -3.077   1.409  0.00  0.00    +0.024 C 
ENDBRANCH  33  36
ENDBRANCH   1  33
TORSDOF 4
