REMARK  Name = ZINC06148613
REMARK  11 active torsions:
REMARK  status: ('A' for Active; 'I' for Inactive)
REMARK    1  A    between atoms: C_1  and  C_2
REMARK    2  A    between atoms: C_3  and  C_32
REMARK    3  A    between atoms: C_4  and  C_25
REMARK    4  A    between atoms: C_10  and  C_15
REMARK    5  A    between atoms: C_18  and  O_23
REMARK    6  A    between atoms: C_19  and  O_21
REMARK    7  A    between atoms: O_21  and  C_22
REMARK    8  A    between atoms: O_23  and  C_24
REMARK    9  A    between atoms: C_28  and  O_31
REMARK   10  A    between atoms: C_32  and  O_34
REMARK   11  A    between atoms: O_34  and  C_35
REMARK                            x       y       z     vdW  Elec       q    Type
REMARK                         _______ _______ _______ _____ _____    ______ ____
ROOT
ATOM      1  C   UNL     1      -5.038   2.288   2.553  0.00  0.00    +0.061 C 
ATOM      2  C   UNL     1      -4.319   2.632   1.274  0.00  0.00    +0.031 C 
ATOM      3  C   UNL     1      -3.296   3.504   1.297  0.00  0.00    +0.154 C 
ATOM      4  C   UNL     1      -2.554   3.868   0.046  0.00  0.00    +0.073 C 
ATOM      5  C   UNL     1      -3.345   3.493  -1.182  0.00  0.00    +0.025 C 
ATOM      6  C   UNL     1      -4.370   2.619  -1.102  0.00  0.00    +0.049 C 
ATOM      7  N   UNL     1      -4.711   2.056   0.099  0.00  0.00    -0.260 NA
ATOM      8  C   UNL     1      -5.168   2.242  -2.326  0.00  0.00    +0.064 C 
ATOM      9  C   UNL     1      -4.275   2.315  -3.565  0.00  0.00    +0.032 C 
ATOM     10  C   UNL     1      -3.715   3.737  -3.679  0.00  0.00    +0.088 C 
ATOM     11  C   UNL     1      -2.983   4.077  -2.409  0.00  0.00    +0.162 C 
ATOM     12  O   UNL     1      -2.064   4.872  -2.444  0.00  0.00    -0.292 OA
ENDROOT
BRANCH   9  13
ATOM     13  C   UNL     1      -5.084   1.986  -4.793  0.00  0.00    -0.040 A 
ATOM     14  C   UNL     1      -6.178   2.762  -5.127  0.00  0.00    +0.008 A 
ATOM     15  C   UNL     1      -6.923   2.464  -6.253  0.00  0.00    +0.049 A 
ATOM     16  C   UNL     1      -6.574   1.385  -7.049  0.00  0.00    +0.161 A 
ATOM     17  C   UNL     1      -5.473   0.604  -6.713  0.00  0.00    +0.162 A 
ATOM     18  C   UNL     1      -4.727   0.911  -5.586  0.00  0.00    +0.053 A 
BRANCH  17  19
ATOM     19  O   UNL     1      -5.126  -0.457  -7.491  0.00  0.00    -0.491 OA
ATOM     20  C   UNL     1      -3.984  -1.214  -7.085  0.00  0.00    +0.277 C 
ENDBRANCH  17  19
BRANCH  16  21
ATOM     21  O   UNL     1      -7.306   1.090  -8.156  0.00  0.00    -0.491 OA
ATOM     22  C   UNL     1      -8.423   1.936  -8.440  0.00  0.00    +0.277 C 
ENDBRANCH  16  21
ENDBRANCH   9  13
BRANCH   4  23
ATOM     23  C   UNL     1      -1.238   3.134   0.030  0.00  0.00    -0.038 A 
ATOM     24  C   UNL     1      -1.218   1.752   0.017  0.00  0.00    +0.008 A 
ATOM     25  C   UNL     1      -0.012   1.077   0.007  0.00  0.00    +0.045 A 
ATOM     26  C   UNL     1       1.179   1.788  -0.000  0.00  0.00    +0.117 A 
ATOM     27  C   UNL     1       1.157   3.175   0.007  0.00  0.00    +0.045 A 
ATOM     28  C   UNL     1      -0.051   3.845   0.023  0.00  0.00    +0.008 A 
BRANCH  26  29
ATOM     29  O   UNL     1       2.366   1.126  -0.016  0.00  0.00    -0.507 OA
ATOM     30  H   UNL     1       2.701   0.940  -0.904  0.00  0.00    +0.292 HD
ENDBRANCH  26  29
ENDBRANCH   4  23
BRANCH   3  31
ATOM     31  C   UNL     1      -2.915   4.094   2.525  0.00  0.00    +0.317 C 
ATOM     32  O   UNL     1      -3.511   3.811   3.547  0.00  0.00    -0.250 OA
BRANCH  31  33
ATOM     33  O   UNL     1      -1.890   4.971   2.563  0.00  0.00    -0.461 OA
BRANCH  33  34
ATOM     34  C   UNL     1      -1.559   5.528   3.837  0.00  0.00    +0.176 C 
ATOM     35  C   UNL     1      -2.308   6.861   4.041  0.00  0.00    +0.044 C 
ATOM     36  C   UNL     1      -1.293   7.756   4.795  0.00  0.00    +0.004 C 
ATOM     37  C   UNL     1       0.055   7.375   4.133  0.00  0.00    +0.004 C 
ATOM     38  C   UNL     1      -0.057   5.855   3.895  0.00  0.00    +0.044 C 
ENDBRANCH  33  34
ENDBRANCH  31  33
ENDBRANCH   3  31
TORSDOF 8
