REMARK  Name = ZINC09351506
REMARK  12 active torsions:
REMARK  status: ('A' for Active; 'I' for Inactive)
REMARK    1  A    between atoms: C_1  and  C_2
REMARK    2  A    between atoms: C_2  and  O_3
REMARK    3  A    between atoms: O_3  and  C_4
REMARK    4  A    between atoms: C_7  and  N_13
REMARK    5  A    between atoms: C_8  and  N_10
REMARK    6  A    between atoms: C_14  and  C_16
REMARK    7  A    between atoms: C_16  and  O_17
REMARK    8  A    between atoms: O_17  and  C_18
REMARK    9  A    between atoms: C_18  and  C_20
REMARK   10  A    between atoms: C_25  and  S_26
REMARK   11  A    between atoms: S_26  and  C_27
REMARK   12  A    between atoms: C_27  and  C_28
REMARK                            x       y       z     vdW  Elec       q    Type
REMARK                         _______ _______ _______ _____ _____    ______ ____
ROOT
ATOM      1  O   UNL     1       8.346   2.860  -0.123  0.00  0.00    -0.452 OA
ENDROOT
BRANCH   1   2
ATOM      2  C   UNL     1       9.622   3.285  -0.046  0.00  0.00    +0.341 C 
ATOM      3  O   UNL     1       9.861   4.464   0.129  0.00  0.00    -0.245 OA
BRANCH   2   4
ATOM      4  C   UNL     1      10.728   2.322  -0.173  0.00  0.00    +0.072 A 
ATOM      5  C   UNL     1      10.460   0.964  -0.369  0.00  0.00    +0.016 A 
ATOM      6  C   UNL     1      11.499   0.069  -0.493  0.00  0.00    +0.001 A 
ATOM      7  C   UNL     1      12.813   0.504  -0.414  0.00  0.00    +0.001 A 
ATOM      8  C   UNL     1      13.096   1.839  -0.216  0.00  0.00    +0.015 A 
ATOM      9  C   UNL     1      12.061   2.760  -0.094  0.00  0.00    +0.022 A 
BRANCH   9  10
ATOM     10  S   UNL     1      12.418   4.466   0.160  0.00  0.00    -0.115 S 
BRANCH  10  11
ATOM     11  C   UNL     1      14.227   4.410   0.172  0.00  0.00    +0.170 C 
BRANCH  11  12
ATOM     12  C   UNL     1      14.772   5.800   0.382  0.00  0.00    +0.226 C 
ATOM     13  O   UNL     1      14.012   6.736   0.510  0.00  0.00    -0.275 OA
ATOM     14  N   UNL     1      16.104   6.002   0.427  0.00  0.00    -0.301 N 
ATOM     15  C   UNL     1      17.134   4.961   0.293  0.00  0.00    +0.108 C 
ATOM     16  C   UNL     1      18.506   5.653   0.432  0.00  0.00    +0.020 C 
ATOM     17  C   UNL     1      18.160   6.951   1.209  0.00  0.00    +0.020 C 
ATOM     18  C   UNL     1      16.769   7.302   0.625  0.00  0.00    +0.108 C 
ENDBRANCH  11  12
ENDBRANCH  10  11
ENDBRANCH   9  10
ENDBRANCH   2   4
ENDBRANCH   1   2
BRANCH   1  19
ATOM     19  C   UNL     1       7.307   3.865   0.012  0.00  0.00    +0.328 C 
BRANCH  19  21
ATOM     20  N   UNL     1       4.835   3.952  -0.004  0.00  0.00    -0.281 N 
ATOM     21  C   UNL     1       5.955   3.208  -0.100  0.00  0.00    +0.255 C 
ATOM     22  O   UNL     1       5.875   2.011  -0.275  0.00  0.00    -0.272 OA
ATOM     23  H   UNL     1       4.897   4.918   0.059  0.00  0.00    +0.155 HD
BRANCH  20  27
ATOM     24  C   UNL     1       1.099   2.099   0.017  0.00  0.00    +0.123 A 
ATOM     25  C   UNL     1       2.182   1.483   0.627  0.00  0.00    +0.047 A 
ATOM     26  C   UNL     1       3.420   2.093   0.616  0.00  0.00    +0.029 A 
ATOM     27  C   UNL     1       3.579   3.329   0.003  0.00  0.00    +0.064 A 
ATOM     28  C   UNL     1       2.494   3.947  -0.603  0.00  0.00    +0.151 A 
ATOM     29  C   UNL     1       1.257   3.333  -0.596  0.00  0.00    +0.080 A 
BRANCH  28  30
ATOM     30  N   UNL     1       2.663   5.264  -1.257  0.00  0.00    +0.058 N 
ATOM     31  O   UNL     1       1.735   5.765  -1.867  0.00  0.00    -0.126 OA
ATOM     32  O   UNL     1       3.730   5.848  -1.186  0.00  0.00    -0.126 OA
ENDBRANCH  28  30
BRANCH  24  33
ATOM     33  O   UNL     1      -0.119   1.495   0.024  0.00  0.00    -0.492 OA
BRANCH  33  35
ATOM     34  C   UNL     1      -1.646  -0.294   0.580  0.00  0.00    +0.048 C 
ATOM     35  C   UNL     1      -0.210   0.225   0.673  0.00  0.00    +0.225 C 
ENDBRANCH  33  35
ENDBRANCH  24  33
ENDBRANCH  20  27
ENDBRANCH  19  21
ENDBRANCH   1  19
TORSDOF 11
