REMARK  Name = ZINC11867623
REMARK  9 active torsions:
REMARK  status: ('A' for Active; 'I' for Inactive)
REMARK    1  A    between atoms: C_1  and  C_2
REMARK    2  A    between atoms: C_3  and  C_26
REMARK    3  A    between atoms: C_9  and  O_25
REMARK    4  A    between atoms: C_10  and  C_13
REMARK    5  A    between atoms: C_13  and  N_68
REMARK    6  A    between atoms: C_15  and  C_24
REMARK    7  A    between atoms: C_20  and  C_22
REMARK    8  A    between atoms: C_20  and  C_23
REMARK    9  A    between atoms: N_34  and  C_35
REMARK                            x       y       z     vdW  Elec       q    Type
REMARK                         _______ _______ _______ _____ _____    ______ ____
ROOT
ATOM      1  C   UNL     1      -4.821   2.558   2.003  0.00  0.00    +0.087 C 
ATOM      2  C   UNL     1      -3.883   3.597   1.446  0.00  0.00    +0.117 A 
ATOM      3  C   UNL     1      -4.089   4.904   1.768  0.00  0.00    +0.102 A 
ATOM      4  C   UNL     1      -3.163   5.919   1.231  0.00  0.00    +0.203 A 
ATOM      5  O   UNL     1      -3.295   7.103   1.485  0.00  0.00    -0.286 OA
ATOM      6  C   UNL     1      -2.079   5.431   0.358  0.00  0.00    +0.065 A 
ATOM      7  C   UNL     1      -1.160   6.312  -0.214  0.00  0.00    +0.019 A 
ATOM      8  C   UNL     1      -0.168   5.828  -1.019  0.00  0.00    +0.046 A 
ATOM      9  C   UNL     1      -0.071   4.461  -1.270  0.00  0.00    +0.122 A 
ATOM     10  C   UNL     1      -0.975   3.575  -0.709  0.00  0.00    +0.020 A 
ATOM     11  C   UNL     1      -1.993   4.051   0.107  0.00  0.00    +0.144 A 
ATOM     12  O   UNL     1      -2.885   3.202   0.656  0.00  0.00    -0.459 OA
ENDROOT
BRANCH   3  13
ATOM     13  C   UNL     1      -5.207   5.297   2.648  0.00  0.00    +0.149 A 
ATOM     14  N   UNL     1      -6.457   4.928   2.490  0.00  0.00    -0.227 NA
ATOM     15  C   UNL     1      -7.218   5.467   3.474  0.00  0.00    +0.090 A 
ATOM     16  C   UNL     1      -8.582   5.401   3.778  0.00  0.00    +0.030 A 
ATOM     17  C   UNL     1      -9.070   6.069   4.865  0.00  0.00    +0.002 A 
ATOM     18  C   UNL     1      -8.226   6.815   5.675  0.00  0.00    +0.002 A 
ATOM     19  C   UNL     1      -6.878   6.894   5.394  0.00  0.00    +0.028 A 
ATOM     20  C   UNL     1      -6.363   6.223   4.295  0.00  0.00    +0.069 A 
ATOM     21  N   UNL     1      -5.097   6.095   3.755  0.00  0.00    -0.327 N 
ATOM     22  C   UNL     1      -3.867   6.704   4.269  0.00  0.00    +0.151 C 
ENDBRANCH   3  13
BRANCH   9  23
ATOM     23  O   UNL     1       0.920   3.993  -2.071  0.00  0.00    -0.506 OA
ATOM     24  H   UNL     1       0.682   3.949  -3.007  0.00  0.00    +0.292 HD
ENDBRANCH   9  23
BRANCH  10  25
ATOM     25  C   UNL     1      -0.859   2.099  -0.988  0.00  0.00    -0.035 C 
BRANCH  25  36
ATOM     26  C   UNL     1       1.383   1.960  -0.004  0.00  0.00    -0.071 C 
ATOM     27  C   UNL     1       2.272   0.717   0.253  0.00  0.00    -0.048 C 
ATOM     28  C   UNL     1       1.284  -0.316   0.856  0.00  0.00    -0.011 C 
ATOM     29  C   UNL     1       0.021   0.011   0.011  0.00  0.00    -0.067 C 
ATOM     30  C   UNL     1       0.248  -0.552  -1.382  0.00  0.00    -0.009 C 
ATOM     31  C   UNL     1       1.608  -0.311  -1.999  0.00  0.00    -0.036 C 
ATOM     32  C   UNL     1       2.725   0.173  -1.099  0.00  0.00    +0.011 C 
ATOM     33  C   UNL     1       1.459   0.670  -3.179  0.00  0.00    +0.011 C 
ATOM     34  C   UNL     1       2.073  -1.655  -2.620  0.00  0.00    +0.011 C 
ATOM     35  C   UNL     1       3.444   1.027   1.195  0.00  0.00    +0.009 C 
ATOM     36  N   UNL     1       0.001   1.490   0.083  0.00  0.00    +0.385 N 
ATOM     37  H   UNL     1      -0.385   1.768   0.993  0.00  0.00    -0.081 HD
ENDBRANCH  25  36
ENDBRANCH  10  25
TORSDOF 4
