REMARK  Name = ZINC40151689
REMARK  8 active torsions:
REMARK  status: ('A' for Active; 'I' for Inactive)
REMARK    1  A    between atoms: C_1  and  C_2
REMARK    2  A    between atoms: N_6  and  C_7
REMARK    3  A    between atoms: C_7  and  C_8
REMARK    4  A    between atoms: C_8  and  C_9
REMARK    5  A    between atoms: C_9  and  N_10
REMARK    6  A    between atoms: C_11  and  C_13
REMARK    7  A    between atoms: C_15  and  C_25
REMARK    8  A    between atoms: N_16  and  C_18
REMARK                            x       y       z     vdW  Elec       q    Type
REMARK                         _______ _______ _______ _____ _____    ______ ____
ROOT
ATOM      1  C   UNL     1      -4.395   1.164   6.665  0.00  0.00    +0.148 A 
ATOM      2  C   UNL     1      -4.914   1.488   7.936  0.00  0.00    +0.066 A 
ATOM      3  C   UNL     1      -6.235   1.788   7.725  0.00  0.00    +0.110 A 
ATOM      4  N   UNL     1      -6.462   1.640   6.384  0.00  0.00    -0.228 N 
ATOM      5  N   UNL     1      -5.378   1.284   5.794  0.00  0.00    -0.161 NA
ENDROOT
BRANCH   4   6
ATOM      6  C   UNL     1      -7.691   1.851   5.749  0.00  0.00    +0.066 A 
ATOM      7  C   UNL     1      -8.454   2.969   6.063  0.00  0.00    +0.029 A 
ATOM      8  C   UNL     1      -9.666   3.175   5.435  0.00  0.00    +0.022 A 
ATOM      9  C   UNL     1     -10.121   2.269   4.492  0.00  0.00    +0.041 A 
ATOM     10  C   UNL     1      -9.364   1.155   4.177  0.00  0.00    +0.022 A 
ATOM     11  C   UNL     1      -8.148   0.947   4.798  0.00  0.00    +0.029 A 
ATOM     12 CL   UNL     1     -11.646   2.531   3.705  0.00  0.00    -0.084 Cl
ENDBRANCH   4   6
BRANCH   3  13
ATOM     13  C   UNL     1      -7.219   2.190   8.744  0.00  0.00    +0.153 A 
ATOM     14  C   UNL     1      -6.936   2.592  10.014  0.00  0.00    +0.051 A 
ATOM     15  C   UNL     1      -8.169   2.877  10.633  0.00  0.00    +0.042 A 
ATOM     16  C   UNL     1      -9.133   2.639   9.723  0.00  0.00    +0.196 A 
ATOM     17  O   UNL     1      -8.556   2.229   8.581  0.00  0.00    -0.461 OA
ENDBRANCH   3  13
BRANCH   1  19
ATOM     18  N   UNL     1      -2.641   0.492   5.096  0.00  0.00    -0.310 N 
ATOM     19  C   UNL     1      -3.003   0.770   6.364  0.00  0.00    +0.264 C 
ATOM     20  O   UNL     1      -2.185   0.696   7.261  0.00  0.00    -0.268 OA
ATOM     21  H   UNL     1      -3.294   0.551   4.381  0.00  0.00    +0.149 HD
BRANCH  18  22
ATOM     22  C   UNL     1      -1.261   0.100   4.798  0.00  0.00    +0.106 C 
BRANCH  22  23
ATOM     23  C   UNL     1      -1.117  -0.157   3.297  0.00  0.00    +0.040 C 
BRANCH  23  24
ATOM     24  C   UNL     1       0.324  -0.566   2.985  0.00  0.00    +0.124 C 
BRANCH  24  30
ATOM     25  C   UNL     1       0.888   1.591   0.833  0.00  0.00    +0.084 C 
ATOM     26  C   UNL     1       0.707   0.114   0.596  0.00  0.00    +0.084 A 
ATOM     27  N   UNL     1       0.768  -0.484  -0.563  0.00  0.00    -0.350 N 
ATOM     28  C   UNL     1       0.560  -1.798  -0.395  0.00  0.00    +0.101 A 
ATOM     29  C   UNL     1       0.363  -2.024   0.918  0.00  0.00    +0.104 A 
ATOM     30  N   UNL     1       0.462  -0.812   1.548  0.00  0.00    -0.336 N 
ATOM     31  H   UNL     1       0.936  -0.046  -1.412  0.00  0.00    +0.166 HD
ENDBRANCH  24  30
ENDBRANCH  23  24
ENDBRANCH  22  23
ENDBRANCH  18  22
ENDBRANCH   1  19
TORSDOF 7
