REMARK  Name = ZINC49894299
REMARK  2 active torsions:
REMARK  status: ('A' for Active; 'I' for Inactive)
REMARK    1  A    between atoms: C_6  and  C_7
REMARK    2  A    between atoms: C_12  and  C_13
REMARK                            x       y       z     vdW  Elec       q    Type
REMARK                         _______ _______ _______ _____ _____    ______ ____
ROOT
ATOM      1  C   UNL     1      -1.269  -0.764   0.009  0.00  0.00    +0.008 A 
ATOM      2  C   UNL     1      -2.138  -0.697   1.102  0.00  0.00    -0.017 A 
ATOM      3  C   UNL     1      -3.316  -1.415   1.080  0.00  0.00    +0.047 A 
ATOM      4  N   UNL     1      -3.631  -2.167   0.034  0.00  0.00    -0.236 NA
ATOM      5  C   UNL     1      -2.851  -2.270  -1.027  0.00  0.00    +0.135 A 
ATOM      6  C   UNL     1      -1.636  -1.568  -1.090  0.00  0.00    +0.099 A 
ATOM      7  N   UNL     1      -3.237  -3.072  -2.087  0.00  0.00    -0.342 N 
ATOM      8  C   UNL     1      -4.078  -1.179   2.368  0.00  0.00    +0.056 C 
ATOM      9  C   UNL     1      -3.042  -0.596   3.351  0.00  0.00    +0.011 C 
ATOM     10  C   UNL     1      -2.023   0.069   2.401  0.00  0.00    +0.038 C 
ATOM     11  H   UNL     1      -4.076  -3.556  -2.049  0.00  0.00    +0.144 HD
ATOM     12  H   UNL     1      -2.667  -3.151  -2.868  0.00  0.00    +0.144 HD
ENDROOT
BRANCH   1  18
ATOM     13  C   UNL     1      -0.017   1.391   0.010  0.00  0.00    +0.012 A 
ATOM     14  C   UNL     1       1.168   2.096   0.002  0.00  0.00    +0.050 A 
ATOM     15  C   UNL     1       2.383   1.423  -0.013  0.00  0.00    +0.162 A 
ATOM     16  C   UNL     1       2.408   0.031  -0.018  0.00  0.00    +0.163 A 
ATOM     17  C   UNL     1       1.222  -0.681  -0.012  0.00  0.00    +0.058 A 
ATOM     18  C   UNL     1       0.002  -0.004   0.002  0.00  0.00    -0.013 A 
ATOM     19  O   UNL     1       3.590  -0.644  -0.025  0.00  0.00    -0.485 OA
ATOM     20  C   UNL     1       4.753   0.098  -0.406  0.00  0.00    +0.270 C 
ATOM     21  C   UNL     1       4.734   1.439   0.341  0.00  0.00    +0.270 C 
ATOM     22  O   UNL     1       3.540   2.139  -0.024  0.00  0.00    -0.485 OA
ENDBRANCH   1  18
BRANCH   6  23
ATOM     23  C   UNL     1      -0.789  -1.670  -2.240  0.00  0.00    +0.103 C 
ATOM     24  N   UNL     1      -0.117  -1.750  -3.152  0.00  0.00    -0.191 NA
ENDBRANCH   6  23
TORSDOF 2
