REMARK  Name = ZINC55297346
REMARK  3 active torsions:
REMARK  status: ('A' for Active; 'I' for Inactive)
REMARK    1  A    between atoms: C_3  and  N_9
REMARK    2  A    between atoms: C_4  and  N_8
REMARK    3  A    between atoms: C_10  and  C_12
REMARK                            x       y       z     vdW  Elec       q    Type
REMARK                         _______ _______ _______ _____ _____    ______ ____
ROOT
ATOM      1  C   UNL     1       0.075   1.244   0.633  0.00  0.00    +0.017 A 
ATOM      2  C   UNL     1       1.261   1.954   0.616  0.00  0.00    +0.026 A 
ATOM      3  C   UNL     1       2.381   1.419  -0.003  0.00  0.00    +0.054 A 
ATOM      4  C   UNL     1       2.307   0.163  -0.606  0.00  0.00    +0.047 A 
ATOM      5  C   UNL     1       1.113  -0.543  -0.583  0.00  0.00    +0.039 A 
ATOM      6  C   UNL     1       0.001  -0.001   0.035  0.00  0.00    +0.020 A 
ATOM      7 BR   UNL     1      -1.625  -0.966   0.065  0.00  0.00    -0.050 Br
ENDROOT
BRANCH   3   8
ATOM      8  N   UNL     1       3.584   2.138  -0.022  0.00  0.00    -0.282 N 
ATOM      9  C   UNL     1       3.564   3.482  -0.117  0.00  0.00    +0.248 C 
ATOM     10  O   UNL     1       2.506   4.076  -0.103  0.00  0.00    -0.273 OA
ATOM     11  H   UNL     1       4.431   1.668   0.033  0.00  0.00    +0.155 HD
BRANCH   9  12
ATOM     12  C   UNL     1       4.856   4.248  -0.240  0.00  0.00    +0.229 C 
ATOM     13  C   UNL     1       5.675   4.080   1.044  0.00  0.00    +0.201 C 
ATOM     14  O   UNL     1       6.846   4.898   0.964  0.00  0.00    -0.374 OA
ATOM     15  C   UNL     1       6.562   6.287   0.767  0.00  0.00    +0.188 C 
ATOM     16  C   UNL     1       5.744   6.455  -0.516  0.00  0.00    +0.189 C 
ATOM     17  O   UNL     1       4.572   5.636  -0.439  0.00  0.00    -0.363 OA
ENDBRANCH   9  12
ENDBRANCH   3   8
BRANCH   4  18
ATOM     18  N   UNL     1       3.433  -0.382  -1.232  0.00  0.00    -0.357 N 
ATOM     19  H   UNL     1       4.266   0.113  -1.247  0.00  0.00    +0.142 HD
ATOM     20  H   UNL     1       3.379  -1.255  -1.650  0.00  0.00    +0.142 HD
ENDBRANCH   4  18
TORSDOF 3
