REMARK  Name = ZINC09724966
REMARK  12 active torsions:
REMARK  status: ('A' for Active; 'I' for Inactive)
REMARK    1  A    between atoms: C_1  and  C_2
REMARK    2  A    between atoms: C_2  and  C_3
REMARK    3  A    between atoms: C_2  and  O_4
REMARK    4  A    between atoms: O_4  and  C_5
REMARK    5  A    between atoms: C_8  and  S_24
REMARK    6  A    between atoms: C_10  and  N_11
REMARK    7  A    between atoms: N_11  and  C_12
REMARK    8  A    between atoms: C_12  and  C_13
REMARK    9  A    between atoms: C_15  and  N_21
REMARK   10  A    between atoms: C_18  and  O_19
REMARK   11  A    between atoms: O_19  and  C_20
REMARK   12  A    between atoms: S_24  and  N_27
REMARK                            x       y       z     vdW  Elec       q    Type
REMARK                         _______ _______ _______ _____ _____    ______ ____
ROOT
ATOM      1  C   UNL     1      -2.430   2.692  -3.610  0.00  0.00    +0.142 A 
ATOM      2  C   UNL     1      -2.457   1.374  -3.184  0.00  0.00    +0.049 A 
ATOM      3  C   UNL     1      -1.715   0.987  -2.083  0.00  0.00    +0.032 A 
ATOM      4  C   UNL     1      -0.953   1.915  -1.397  0.00  0.00    +0.107 A 
ATOM      5  C   UNL     1      -0.921   3.232  -1.815  0.00  0.00    +0.055 A 
ATOM      6  C   UNL     1      -1.658   3.626  -2.922  0.00  0.00    +0.072 A 
ENDROOT
BRANCH   4   7
ATOM      7  S   UNL     1      -0.016   1.417   0.009  0.00  0.00    +0.061 S 
ATOM      8  O   UNL     1       0.214   0.021  -0.131  0.00  0.00    -0.153 OA
ATOM      9  O   UNL     1       1.044   2.353   0.143  0.00  0.00    -0.153 OA
BRANCH   7  10
ATOM     10  N   UNL     1      -0.986   1.606   1.337  0.00  0.00    -0.177 NA
ATOM     11  C   UNL     1      -0.999   2.873   2.080  0.00  0.00    +0.109 C 
ATOM     12  C   UNL     1      -2.451   3.363   2.186  0.00  0.00    +0.017 C 
ATOM     13  C   UNL     1      -3.311   2.261   2.809  0.00  0.00    +0.003 C 
ATOM     14  C   UNL     1      -3.285   1.022   1.911  0.00  0.00    +0.017 C 
ATOM     15  C   UNL     1      -1.847   0.508   1.798  0.00  0.00    +0.109 C 
ENDBRANCH   7  10
ENDBRANCH   4   7
BRANCH   6  16
ATOM     16  N   UNL     1      -1.628   4.960  -3.348  0.00  0.00    -0.337 N 
ATOM     17  H   UNL     1      -2.144   5.234  -4.122  0.00  0.00    +0.147 HD
BRANCH  16  18
ATOM     18  C   UNL     1      -0.816   5.941  -2.624  0.00  0.00    +0.140 C 
BRANCH  18  19
ATOM     19  C   UNL     1      -0.956   7.290  -3.280  0.00  0.00    +0.013 A 
ATOM     20  C   UNL     1       0.029   7.750  -4.133  0.00  0.00    +0.041 A 
ATOM     21  C   UNL     1      -0.101   8.986  -4.738  0.00  0.00    +0.127 A 
ATOM     22  C   UNL     1      -1.212   9.770  -4.484  0.00  0.00    +0.036 A 
ATOM     23  C   UNL     1      -2.197   9.317  -3.627  0.00  0.00    +0.048 A 
ATOM     24  C   UNL     1      -2.071   8.075  -3.022  0.00  0.00    +0.125 A 
BRANCH  21  25
ATOM     25  N   UNL     1       0.953   9.474  -5.655  0.00  0.00    +0.056 N 
ATOM     26  O   UNL     1       0.841  10.565  -6.186  0.00  0.00    -0.126 OA
ATOM     27  O   UNL     1       1.931   8.785  -5.880  0.00  0.00    -0.126 OA
ENDBRANCH  21  25
BRANCH  24  28
ATOM     28  O   UNL     1      -3.038   7.627  -2.179  0.00  0.00    -0.495 OA
ATOM     29  C   UNL     1      -4.158   8.488  -1.961  0.00  0.00    +0.277 C 
ENDBRANCH  24  28
ENDBRANCH  18  19
ENDBRANCH  16  18
ENDBRANCH   6  16
BRANCH   1  30
ATOM     30  O   UNL     1      -3.155   3.072  -4.696  0.00  0.00    -0.488 OA
BRANCH  30  32
ATOM     31  C   UNL     1      -5.156   2.789  -6.021  0.00  0.00    +0.051 C 
ATOM     32  C   UNL     1      -4.015   2.091  -5.278  0.00  0.00    +0.167 C 
ATOM     33  C   UNL     1      -3.217   1.232  -6.261  0.00  0.00    +0.051 C 
ENDBRANCH  30  32
ENDBRANCH   1  30
TORSDOF 9
