REMARK  Name = ZINC19793162
REMARK  11 active torsions:
REMARK  status: ('A' for Active; 'I' for Inactive)
REMARK    1  A    between atoms: C_1  and  C_2
REMARK    2  A    between atoms: C_2  and  O_3
REMARK    3  A    between atoms: O_3  and  C_4
REMARK    4  A    between atoms: C_9  and  O_10
REMARK    5  A    between atoms: O_10  and  C_11
REMARK    6  A    between atoms: C_17  and  O_37
REMARK    7  A    between atoms: C_18  and  C_26
REMARK    8  A    between atoms: C_21  and  C_22
REMARK    9  A    between atoms: C_26  and  N_27
REMARK   10  A    between atoms: C_29  and  C_36
REMARK   11  A    between atoms: C_32  and  C_35
REMARK                            x       y       z     vdW  Elec       q    Type
REMARK                         _______ _______ _______ _____ _____    ______ ____
ROOT
ATOM      1  C   UNL     1      -0.016   1.344   0.009  0.00  0.00    +0.222 A 
ATOM      2  C   UNL     1       1.213   2.063   0.002  0.00  0.00    +0.235 A 
ATOM      3  O   UNL     1       1.236   3.282   0.008  0.00  0.00    -0.283 OA
ATOM      4  C   UNL     1       2.456   1.272  -0.015  0.00  0.00    +0.068 A 
ATOM      5  C   UNL     1       3.709   1.887  -0.024  0.00  0.00    +0.019 A 
ATOM      6  C   UNL     1       4.839   1.121  -0.039  0.00  0.00    +0.046 A 
ATOM      7  C   UNL     1       4.748  -0.269  -0.046  0.00  0.00    +0.125 A 
ATOM      8  C   UNL     1       3.513  -0.894  -0.037  0.00  0.00    +0.051 A 
ATOM      9  C   UNL     1       2.354  -0.130  -0.021  0.00  0.00    +0.147 A 
ATOM     10  O   UNL     1       1.138  -0.713  -0.013  0.00  0.00    -0.447 OA
ATOM     11  C   UNL     1       0.002  -0.004   0.002  0.00  0.00    +0.254 A 
ENDROOT
BRANCH  11  12
ATOM     12  C   UNL     1      -1.311  -0.744   0.010  0.00  0.00    +0.454 C 
ATOM     13  F   UNL     1      -1.729  -0.966  -1.306  0.00  0.00    -0.163 F 
ATOM     14  F   UNL     1      -1.150  -1.972   0.661  0.00  0.00    -0.163 F 
ATOM     15  F   UNL     1      -2.272   0.018   0.682  0.00  0.00    -0.163 F 
ENDBRANCH  11  12
BRANCH   7  16
ATOM     16  O   UNL     1       5.880  -1.018  -0.062  0.00  0.00    -0.506 OA
ATOM     17  H   UNL     1       5.814  -2.116  -0.067  0.00  0.00    +0.292 HD
ENDBRANCH   7  16
BRANCH   1  18
ATOM     18  O   UNL     1      -1.202   2.013   0.019  0.00  0.00    -0.445 OA
BRANCH  18  24
ATOM     19  C   UNL     1      -2.963   3.004   1.283  0.00  0.00    +0.163 A 
ATOM     20  C   UNL     1      -3.519   3.314   2.514  0.00  0.00    +0.049 A 
ATOM     21  C   UNL     1      -2.872   2.944   3.678  0.00  0.00    +0.004 A 
ATOM     22  C   UNL     1      -1.669   2.265   3.619  0.00  0.00    +0.004 A 
ATOM     23  C   UNL     1      -1.111   1.948   2.395  0.00  0.00    +0.050 A 
ATOM     24  C   UNL     1      -1.752   2.320   1.224  0.00  0.00    +0.170 A 
BRANCH  19  25
ATOM     25  O   UNL     1      -3.598   3.366   0.137  0.00  0.00    -0.489 OA
BRANCH  25  27
ATOM     26  C   UNL     1      -5.399   4.386  -1.111  0.00  0.00    +0.048 C 
ATOM     27  C   UNL     1      -4.837   4.065   0.275  0.00  0.00    +0.226 C 
ENDBRANCH  25  27
ENDBRANCH  19  25
ENDBRANCH  18  24
ENDBRANCH   1  18
BRANCH   8  28
ATOM     28  C   UNL     1       3.426  -2.399  -0.044  0.00  0.00    +0.127 C 
BRANCH  28  29
ATOM     29  N   UNL     1       3.384  -2.881  -1.431  0.00  0.00    -0.293 NA
ATOM     30  C   UNL     1       2.141  -2.463  -2.096  0.00  0.00    +0.116 C 
ATOM     31  C   UNL     1       2.166  -2.933  -3.553  0.00  0.00    +0.130 C 
ATOM     32  O   UNL     1       2.348  -4.351  -3.587  0.00  0.00    -0.371 OA
ATOM     33  C   UNL     1       3.548  -4.793  -2.949  0.00  0.00    +0.130 C 
ATOM     34  C   UNL     1       3.538  -4.342  -1.486  0.00  0.00    +0.116 C 
ATOM     35  C   UNL     1       4.759  -4.188  -3.662  0.00  0.00    +0.039 C 
ATOM     36  C   UNL     1       0.842  -2.571  -4.229  0.00  0.00    +0.039 C 
ENDBRANCH  28  29
ENDBRANCH   8  28
TORSDOF 8
