REMARK  Name = ZINC32124017
REMARK  9 active torsions:
REMARK  status: ('A' for Active; 'I' for Inactive)
REMARK    1  A    between atoms: C_1  and  C_2
REMARK    2  A    between atoms: C_6  and  C_33
REMARK    3  A    between atoms: C_7  and  C_8
REMARK    4  A    between atoms: C_16  and  N_17
REMARK    5  A    between atoms: N_17  and  C_18
REMARK    6  A    between atoms: C_23  and  O_31
REMARK    7  A    between atoms: C_24  and  O_29
REMARK    8  A    between atoms: O_29  and  C_30
REMARK    9  A    between atoms: O_31  and  C_32
REMARK                            x       y       z     vdW  Elec       q    Type
REMARK                         _______ _______ _______ _____ _____    ______ ____
ROOT
ATOM      1  C   UNL     1      -4.044   6.963  -4.858  0.00  0.00    +0.011 C 
ATOM      2  C   UNL     1      -4.462   7.517  -3.494  0.00  0.00    -0.026 C 
ATOM      3  C   UNL     1      -4.979   6.381  -2.603  0.00  0.00    -0.066 C 
ATOM      4  N   UNL     1      -5.332   6.932  -1.285  0.00  0.00    +0.399 N 
ATOM      5  C   UNL     1      -6.429   7.904  -1.407  0.00  0.00    -0.066 C 
ATOM      6  C   UNL     1      -5.955   9.085  -2.263  0.00  0.00    -0.026 C 
ATOM      7  C   UNL     1      -5.573   8.562  -3.654  0.00  0.00    +0.036 C 
ATOM      8  C   UNL     1      -4.712   9.699  -1.609  0.00  0.00    +0.089 C 
ATOM      9  N   UNL     1      -3.678   8.660  -1.480  0.00  0.00    -0.301 NA
ATOM     10  C   UNL     1      -3.261   8.175  -2.805  0.00  0.00    +0.089 C 
ATOM     11  C   UNL     1      -4.160   7.548  -0.648  0.00  0.00    +0.073 C 
ATOM     12  C   UNL     1      -7.064  10.134  -2.369  0.00  0.00    +0.011 C 
ATOM     13  H   UNL     1      -5.674   6.104  -0.646  0.00  0.00    -0.077 HD
ENDROOT
BRANCH   7  14
ATOM     14  C   UNL     1      -5.077   9.702  -4.505  0.00  0.00    -0.006 A 
ATOM     15  C   UNL     1      -5.568  10.167  -5.680  0.00  0.00    +0.011 A 
ATOM     16  C   UNL     1      -4.944  11.239  -6.290  0.00  0.00    +0.008 A 
ATOM     17  C   UNL     1      -3.860  11.794  -5.695  0.00  0.00    +0.045 A 
ATOM     18  S   UNL     1      -3.696  10.797  -4.223  0.00  0.00    -0.101 S 
ENDBRANCH   7  14
BRANCH  11  19
ATOM     19  N   UNL     1      -3.095   6.545  -0.506  0.00  0.00    -0.278 NA
ATOM     20  H   UNL     1      -3.001   5.976  -1.443  0.00  0.00    +0.125 HD
BRANCH  19  21
ATOM     21  C   UNL     1      -3.396   5.609   0.585  0.00  0.00    +0.278 C 
ATOM     22  C   UNL     1      -2.132   5.265   1.334  0.00  0.00    +0.025 A 
ATOM     23  C   UNL     1      -1.224   6.012   2.043  0.00  0.00    +0.013 A 
ATOM     24  C   UNL     1      -0.131   5.400   2.638  0.00  0.00    +0.050 A 
ATOM     25  C   UNL     1       0.050   4.032   2.525  0.00  0.00    +0.162 A 
ATOM     26  C   UNL     1      -0.860   3.264   1.804  0.00  0.00    +0.176 A 
ATOM     27  C   UNL     1      -1.964   3.881   1.204  0.00  0.00    +0.112 A 
ATOM     28  C   UNL     1      -3.081   3.360   0.401  0.00  0.00    +0.345 C 
ATOM     29  O   UNL     1      -3.235   2.192   0.102  0.00  0.00    -0.245 OA
ATOM     30  O   UNL     1      -3.905   4.359   0.045  0.00  0.00    -0.438 OA
BRANCH  26  31
ATOM     31  O   UNL     1      -0.681   1.923   1.688  0.00  0.00    -0.491 OA
ATOM     32  C   UNL     1       0.083   1.465   0.572  0.00  0.00    +0.277 C 
ENDBRANCH  26  31
BRANCH  25  33
ATOM     33  O   UNL     1       1.121   3.438   3.115  0.00  0.00    -0.491 OA
ATOM     34  C   UNL     1       2.015   4.285   3.840  0.00  0.00    +0.277 C 
ENDBRANCH  25  33
ENDBRANCH  19  21
ENDBRANCH  11  19
TORSDOF 5
