REMARK  Name = ZINC44905718
REMARK  12 active torsions:
REMARK  status: ('A' for Active; 'I' for Inactive)
REMARK    1  A    between atoms: C_1  and  C_2
REMARK    2  A    between atoms: C_2  and  O_3
REMARK    3  A    between atoms: O_3  and  C_4
REMARK    4  A    between atoms: C_7  and  C_13
REMARK    5  A    between atoms: C_9  and  O_10
REMARK    6  A    between atoms: O_10  and  C_11
REMARK    7  A    between atoms: C_11  and  C_12
REMARK    8  A    between atoms: C_13  and  C_15
REMARK    9  A    between atoms: C_13  and  N_16
REMARK   10  A    between atoms: C_17  and  C_19
REMARK   11  A    between atoms: N_24  and  C_26
REMARK   12  A    between atoms: C_26  and  C_27
REMARK                            x       y       z     vdW  Elec       q    Type
REMARK                         _______ _______ _______ _____ _____    ______ ____
ROOT
ATOM      1  N   UNL     1       0.780  -7.020  -0.490  0.00  0.00    -0.309 N 
ATOM      2  C   UNL     1       1.546  -8.128  -0.457  0.00  0.00    +0.215 C 
ATOM      3  O   UNL     1       1.919  -8.639  -1.491  0.00  0.00    -0.276 OA
ATOM      4  H   UNL     1       0.482  -6.611   0.338  0.00  0.00    +0.149 HD
ENDROOT
BRANCH   2   5
ATOM      5  C   UNL     1       1.941  -8.732   0.867  0.00  0.00    +0.058 C 
ATOM      6  C   UNL     1       0.682  -9.132   1.642  0.00  0.00    +0.009 C 
ATOM      7  C   UNL     1       1.094  -9.815   2.949  0.00  0.00    -0.018 C 
ATOM      8  C   UNL     1       1.986 -11.017   2.631  0.00  0.00    -0.078 C 
ATOM      9  N   UNL     1       3.185 -10.565   1.913  0.00  0.00    +0.383 N 
ATOM     10  C   UNL     1       2.802  -9.973   0.626  0.00  0.00    -0.066 C 
ATOM     11  H   UNL     1       3.668  -9.875   2.469  0.00  0.00    -0.081 HD
BRANCH   9  12
ATOM     12  C   UNL     1       4.074 -11.711   1.679  0.00  0.00    -0.042 C 
BRANCH  12  13
ATOM     13  C   UNL     1       4.591 -12.223   2.998  0.00  0.00    -0.056 A 
ATOM     14  C   UNL     1       4.066 -13.354   3.546  0.00  0.00    +0.002 A 
ATOM     15  C   UNL     1       4.531 -13.843   4.765  0.00  0.00    +0.001 A 
ATOM     16  C   UNL     1       5.524 -13.205   5.443  0.00  0.00    +0.008 A 
ATOM     17  C   UNL     1       6.090 -12.035   4.909  0.00  0.00    -0.018 A 
ATOM     18  C   UNL     1       5.621 -11.541   3.666  0.00  0.00    -0.017 A 
ATOM     19  C   UNL     1       6.192 -10.374   3.129  0.00  0.00    +0.009 A 
ATOM     20  C   UNL     1       7.188  -9.739   3.805  0.00  0.00    +0.001 A 
ATOM     21  C   UNL     1       7.654 -10.229   5.024  0.00  0.00    +0.001 A 
ATOM     22  C   UNL     1       7.116 -11.348   5.581  0.00  0.00    +0.008 A 
ENDBRANCH  12  13
ENDBRANCH   9  12
ENDBRANCH   2   5
BRANCH   1  23
ATOM     23  C   UNL     1       0.397  -6.433  -1.776  0.00  0.00    +0.100 C 
ATOM     24  C   UNL     1      -0.854  -7.137  -2.306  0.00  0.00    +0.033 C 
BRANCH  23  28
ATOM     25  C   UNL     1      -0.426  -2.269  -1.250  0.00  0.00    +0.162 A 
ATOM     26  C   UNL     1      -0.838  -3.186  -0.296  0.00  0.00    +0.050 A 
ATOM     27  C   UNL     1      -0.571  -4.531  -0.469  0.00  0.00    +0.009 A 
ATOM     28  C   UNL     1       0.107  -4.965  -1.593  0.00  0.00    -0.024 A 
ATOM     29  C   UNL     1       0.521  -4.056  -2.548  0.00  0.00    +0.055 A 
ATOM     30  C   UNL     1       0.251  -2.707  -2.384  0.00  0.00    +0.162 A 
BRANCH  25  31
ATOM     31  O   UNL     1      -0.689  -0.946  -1.081  0.00  0.00    -0.489 OA
BRANCH  31  33
ATOM     32  C   UNL     1      -1.591   0.947   0.120  0.00  0.00    +0.048 C 
ATOM     33  C   UNL     1      -1.388  -0.569   0.107  0.00  0.00    +0.226 C 
ENDBRANCH  31  33
ENDBRANCH  25  31
BRANCH  30  34
ATOM     34  O   UNL     1       0.653  -1.812  -3.326  0.00  0.00    -0.489 OA
BRANCH  34  35
ATOM     35  C   UNL     1       1.343  -2.333  -4.463  0.00  0.00    +0.226 C 
ATOM     36  C   UNL     1       1.712  -1.185  -5.405  0.00  0.00    +0.048 C 
ENDBRANCH  34  35
ENDBRANCH  30  34
ENDBRANCH  23  28
ENDBRANCH   1  23
TORSDOF 9
