REMARK  Name = ZINC61327107
REMARK  3 active torsions:
REMARK  status: ('A' for Active; 'I' for Inactive)
REMARK    1  A    between atoms: C_3  and  N_10
REMARK    2  A    between atoms: C_5  and  N_7
REMARK    3  A    between atoms: N_10  and  C_11
REMARK                            x       y       z     vdW  Elec       q    Type
REMARK                         _______ _______ _______ _____ _____    ______ ____
ROOT
ATOM      1  N   UNL     1       3.582   2.122  -0.021  0.00  0.00    -0.337 N 
ATOM      2  H   UNL     1       4.428   1.647  -0.032  0.00  0.00    +0.147 HD
ENDROOT
BRANCH   1   3
ATOM      3  C   UNL     1       3.564   3.587  -0.014  0.00  0.00    +0.101 C 
ATOM      4  C   UNL     1       4.872   4.112   0.579  0.00  0.00    +0.027 C 
ATOM      5  C   UNL     1       4.943   5.634   0.425  0.00  0.00    +0.007 C 
ATOM      6  C   UNL     1       5.142   5.970  -1.061  0.00  0.00    +0.043 C 
ATOM      7  C   UNL     1       4.160   5.174  -1.858  0.00  0.00    -0.005 A 
ATOM      8  C   UNL     1       3.425   4.104  -1.442  0.00  0.00    -0.017 A 
ATOM      9  C   UNL     1       2.568   3.531  -2.382  0.00  0.00    +0.013 A 
ATOM     10  C   UNL     1       2.496   4.040  -3.633  0.00  0.00    +0.046 A 
ATOM     11  S   UNL     1       3.673   5.389  -3.548  0.00  0.00    -0.101 S 
ENDBRANCH   1   3
BRANCH   1  14
ATOM     12  C   UNL     1      -0.017   1.378   0.010  0.00  0.00    +0.004 A 
ATOM     13  C   UNL     1       1.169   2.087   0.002  0.00  0.00    +0.023 A 
ATOM     14  C   UNL     1       2.381   1.409  -0.013  0.00  0.00    +0.030 A 
ATOM     15  C   UNL     1       2.396   0.020  -0.021  0.00  0.00    +0.055 A 
ATOM     16  C   UNL     1       1.207  -0.682  -0.013  0.00  0.00    +0.128 A 
ATOM     17  C   UNL     1       0.002  -0.004   0.002  0.00  0.00    +0.033 A 
BRANCH  16  18
ATOM     18  N   UNL     1       1.222  -2.162  -0.021  0.00  0.00    +0.056 N 
ATOM     19  O   UNL     1       2.276  -2.756  -0.035  0.00  0.00    -0.126 OA
ATOM     20  O   UNL     1       0.182  -2.778  -0.015  0.00  0.00    -0.126 OA
ENDBRANCH  16  18
ENDBRANCH   1  14
TORSDOF 3
