REMARK  Name = ZINC23486657
REMARK  2 active torsions:
REMARK  status: ('A' for Active; 'I' for Inactive)
REMARK    1  A    between atoms: C_1  and  C_2
REMARK    2  A    between atoms: C_22  and  C_26
REMARK                            x       y       z     vdW  Elec       q    Type
REMARK                         _______ _______ _______ _____ _____    ______ ____
ROOT
ATOM      1  C   UNL     1      -8.963  -0.616   0.413  0.00  0.00    +0.045 C 
ATOM      2  C   UNL     1      -7.757  -1.454   0.075  0.00  0.00    -0.029 A 
ATOM      3  C   UNL     1      -7.887  -2.764  -0.360  0.00  0.00    +0.005 A 
ATOM      4  C   UNL     1      -6.791  -3.542  -0.672  0.00  0.00    +0.001 A 
ATOM      5  C   UNL     1      -5.496  -3.045  -0.564  0.00  0.00    +0.008 A 
ATOM      6  C   UNL     1      -5.359  -1.744  -0.132  0.00  0.00    +0.009 A 
ATOM      7  C   UNL     1      -6.463  -0.944   0.188  0.00  0.00    +0.042 A 
ATOM      8  N   UNL     1      -6.046   0.312   0.592  0.00  0.00    -0.283 N 
ATOM      9  C   UNL     1      -4.702   0.431   0.569  0.00  0.00    +0.248 C 
ATOM     10  O   UNL     1      -4.059   1.415   0.870  0.00  0.00    -0.273 OA
ATOM     11  C   UNL     1      -4.149  -0.896   0.098  0.00  0.00    +0.164 C 
ATOM     12  C   UNL     1      -3.366  -0.709  -1.174  0.00  0.00    +0.055 A 
ATOM     13  C   UNL     1      -2.012  -0.743  -1.212  0.00  0.00    -0.007 A 
ATOM     14  C   UNL     1      -1.617  -0.527  -2.585  0.00  0.00    +0.004 A 
ATOM     15  C   UNL     1      -0.371  -0.457  -3.216  0.00  0.00    +0.010 A 
ATOM     16  C   UNL     1      -0.372  -0.233  -4.571  0.00  0.00    +0.001 A 
ATOM     17  C   UNL     1      -1.546  -0.083  -5.291  0.00  0.00    +0.002 A 
ATOM     18  C   UNL     1      -2.793  -0.147  -4.692  0.00  0.00    +0.026 A 
ATOM     19  C   UNL     1      -2.822  -0.372  -3.318  0.00  0.00    +0.047 A 
ATOM     20  N   UNL     1      -3.856  -0.488  -2.432  0.00  0.00    -0.356 N 
ATOM     21  H   UNL     1      -4.942  -0.430  -2.597  0.00  0.00    +0.166 HD
ATOM     22  C   UNL     1      -1.155  -0.969   0.008  0.00  0.00    +0.072 C 
ATOM     23  C   UNL     1      -2.021  -0.731   1.253  0.00  0.00    +0.096 C 
ATOM     24  N   UNL     1      -3.281  -1.477   1.128  0.00  0.00    -0.294 NA
ATOM     25  H   UNL     1      -6.788   1.071   0.882  0.00  0.00    +0.155 HD
ATOM     26  H   UNL     1      -3.797  -1.454   2.099  0.00  0.00    +0.124 HD
ENDROOT
BRANCH  22  27
ATOM     27  C   UNL     1       0.002  -0.004   0.002  0.00  0.00    -0.002 A 
ATOM     28  C   UNL     1       1.332  -0.266  -0.012  0.00  0.00    +0.012 A 
ATOM     29  C   UNL     1       2.223   0.790  -0.015  0.00  0.00    +0.008 A 
ATOM     30  C   UNL     1       1.742   2.057  -0.004  0.00  0.00    +0.045 A 
ATOM     31  S   UNL     1      -0.022   1.781   0.012  0.00  0.00    -0.101 S 
ENDBRANCH  22  27
TORSDOF 1
