REMARK  Name = ZINC43525413
REMARK  7 active torsions:
REMARK  status: ('A' for Active; 'I' for Inactive)
REMARK    1  A    between atoms: C_1  and  N_2
REMARK    2  A    between atoms: C_3  and  C_13
REMARK    3  A    between atoms: C_5  and  C_7
REMARK    4  A    between atoms: C_22  and  C_24
REMARK    5  A    between atoms: C_24  and  N_25
REMARK    6  A    between atoms: N_25  and  S_26
REMARK    7  A    between atoms: S_26  and  C_29
REMARK                            x       y       z     vdW  Elec       q    Type
REMARK                         _______ _______ _______ _____ _____    ______ ____
ROOT
ATOM      1  C   UNL     1      -0.006  -0.316  -2.526  0.00  0.00    +0.024 C 
ATOM      2  C   UNL     1       1.431  -0.140  -3.022  0.00  0.00    -0.068 C 
ATOM      3  N   UNL     1       1.675  -1.014  -4.171  0.00  0.00    +0.383 N 
ATOM      4  C   UNL     1       1.510  -2.420  -3.794  0.00  0.00    -0.078 C 
ATOM      5  C   UNL     1       0.076  -2.672  -3.323  0.00  0.00    -0.015 C 
ATOM      6  C   UNL     1      -0.713  -1.355  -3.406  0.00  0.00    -0.007 C 
ATOM      7  C   UNL     1      -0.679  -0.863  -4.859  0.00  0.00    -0.010 C 
ATOM      8  C   UNL     1       0.782  -0.670  -5.280  0.00  0.00    -0.053 C 
ATOM      9  H   UNL     1       2.628  -0.882  -4.476  0.00  0.00    -0.081 HD
ENDROOT
BRANCH   1  12
ATOM     10  C   UNL     1      -2.056   0.405  -0.320  0.00  0.00    +0.172 C 
ATOM     11  N   UNL     1      -0.894  -0.469  -0.143  0.00  0.00    -0.271 N 
ATOM     12  C   UNL     1       0.008  -0.790  -1.096  0.00  0.00    +0.041 A 
ATOM     13  C   UNL     1       0.924  -1.613  -0.541  0.00  0.00    +0.053 A 
ATOM     14  C   UNL     1       0.571  -1.806   0.809  0.00  0.00    +0.093 A 
ATOM     15  N   UNL     1      -0.521  -1.110   1.045  0.00  0.00    -0.171 NA
BRANCH  14  16
ATOM     16  C   UNL     1       1.305  -2.640   1.793  0.00  0.00    +0.002 A 
ATOM     17  C   UNL     1       2.460  -3.318   1.411  0.00  0.00    +0.010 A 
ATOM     18  C   UNL     1       3.139  -4.093   2.330  0.00  0.00    +0.001 A 
ATOM     19  C   UNL     1       2.673  -4.196   3.629  0.00  0.00    +0.000 A 
ATOM     20  C   UNL     1       1.527  -3.525   4.013  0.00  0.00    +0.001 A 
ATOM     21  C   UNL     1       0.844  -2.743   3.103  0.00  0.00    +0.010 A 
ENDBRANCH  14  16
ENDBRANCH   1  12
BRANCH   8  22
ATOM     22  C   UNL     1       1.089  -1.571  -6.478  0.00  0.00    +0.091 C 
BRANCH  22  23
ATOM     23  N   UNL     1       2.511  -1.467  -6.816  0.00  0.00    -0.191 NA
ATOM     24  H   UNL     1       3.043  -0.740  -6.457  0.00  0.00    +0.148 HD
BRANCH  23  25
ATOM     25  S   UNL     1       3.209  -2.589  -7.814  0.00  0.00    +0.065 S 
ATOM     26  O   UNL     1       4.568  -2.204  -7.970  0.00  0.00    -0.153 OA
ATOM     27  O   UNL     1       2.832  -3.865  -7.316  0.00  0.00    -0.153 OA
BRANCH  25  28
ATOM     28  C   UNL     1       2.453  -2.422  -9.397  0.00  0.00    +0.142 A 
ATOM     29  C   UNL     1       2.825  -1.642 -10.442  0.00  0.00    +0.036 A 
ATOM     30  C   UNL     1       2.073  -1.673 -11.601  0.00  0.00    +0.010 A 
ATOM     31  C   UNL     1       0.986  -2.482 -11.659  0.00  0.00    +0.047 A 
ATOM     32  S   UNL     1       1.005  -3.240 -10.043  0.00  0.00    -0.077 S 
ENDBRANCH  25  28
ENDBRANCH  23  25
ENDBRANCH  22  23
ENDBRANCH   8  22
TORSDOF 6
