REMARK  Name = ZINC02618087
REMARK  7 active torsions:
REMARK  status: ('A' for Active; 'I' for Inactive)
REMARK    1  A    between atoms: C_1  and  C_2
REMARK    2  A    between atoms: C_5  and  C_32
REMARK    3  A    between atoms: N_8  and  S_10
REMARK    4  A    between atoms: S_10  and  C_13
REMARK    5  A    between atoms: C_16  and  C_19
REMARK    6  A    between atoms: N_21  and  C_22
REMARK    7  A    between atoms: C_22  and  C_23
REMARK                            x       y       z     vdW  Elec       q    Type
REMARK                         _______ _______ _______ _____ _____    ______ ____
ROOT
ATOM      1  C   UNL     1       2.629   2.448   2.067  0.00  0.00    +0.106 A 
ATOM      2  C   UNL     1       3.560   3.147   1.320  0.00  0.00    +0.029 A 
ATOM      3  C   UNL     1       3.377   4.491   1.066  0.00  0.00    +0.015 A 
ATOM      4  C   UNL     1       2.249   5.144   1.565  0.00  0.00    +0.037 A 
ATOM      5  C   UNL     1       1.313   4.433   2.318  0.00  0.00    +0.015 A 
ATOM      6  C   UNL     1       1.506   3.088   2.560  0.00  0.00    +0.029 A 
ENDROOT
BRANCH   4   7
ATOM      7  C   UNL     1       2.046   6.584   1.297  0.00  0.00    +0.244 C 
ATOM      8  O   UNL     1       2.862   7.201   0.641  0.00  0.00    -0.270 OA
ATOM      9  N   UNL     1       0.956   7.212   1.780  0.00  0.00    -0.307 N 
ATOM     10  H   UNL     1       0.304   6.720   2.304  0.00  0.00    +0.149 HD
BRANCH   9  11
ATOM     11  C   UNL     1       0.755   8.639   1.515  0.00  0.00    +0.140 C 
BRANCH  11  12
ATOM     12  C   UNL     1      -0.529   9.094   2.160  0.00  0.00    -0.027 A 
ATOM     13  C   UNL     1      -1.717   9.026   1.457  0.00  0.00    +0.009 A 
ATOM     14  C   UNL     1      -2.897   9.442   2.045  0.00  0.00    +0.050 A 
ATOM     15  C   UNL     1      -2.891   9.928   3.342  0.00  0.00    +0.166 A 
ATOM     16  C   UNL     1      -1.694   9.997   4.051  0.00  0.00    +0.167 A 
ATOM     17  C   UNL     1      -0.517   9.573   3.457  0.00  0.00    +0.054 A 
ATOM     18  O   UNL     1      -1.951  10.505   5.292  0.00  0.00    -0.453 OA
ATOM     19  C   UNL     1      -3.245  11.128   5.192  0.00  0.00    +0.466 C 
ATOM     20  O   UNL     1      -3.897  10.394   4.138  0.00  0.00    -0.453 OA
ENDBRANCH  11  12
ENDBRANCH   9  11
ENDBRANCH   4   7
BRANCH   1  21
ATOM     21  S   UNL     1       2.871   0.732   2.387  0.00  0.00    +0.061 S 
ATOM     22  O   UNL     1       2.133   0.430   3.563  0.00  0.00    -0.153 OA
ATOM     23  O   UNL     1       4.268   0.492   2.281  0.00  0.00    -0.153 OA
BRANCH  21  29
ATOM     24  C   UNL     1      -0.019   1.526   0.010  0.00  0.00    +0.009 C 
ATOM     25  C   UNL     1       0.002  -0.004   0.002  0.00  0.00    +0.002 C 
ATOM     26  C   UNL     1       0.720  -0.498  -1.256  0.00  0.00    +0.009 C 
ATOM     27  C   UNL     1       2.145   0.059  -1.285  0.00  0.00    +0.002 C 
ATOM     28  C   UNL     1       2.912  -0.448  -0.060  0.00  0.00    +0.112 C 
ATOM     29  N   UNL     1       2.153  -0.103   1.150  0.00  0.00    -0.176 NA
ATOM     30  C   UNL     1       0.744  -0.512   1.242  0.00  0.00    +0.112 C 
ATOM     31  C   UNL     1       2.850  -0.408  -2.559  0.00  0.00    +0.009 C 
ENDBRANCH  21  29
ENDBRANCH   1  21
TORSDOF 5
