REMARK  Name = ZINC13193679
REMARK  7 active torsions:
REMARK  status: ('A' for Active; 'I' for Inactive)
REMARK    1  A    between atoms: C_3  and  C_32
REMARK    2  A    between atoms: C_5  and  N_7
REMARK    3  A    between atoms: C_8  and  C_22
REMARK    4  A    between atoms: C_10  and  C_15
REMARK    5  A    between atoms: C_15  and  C_17
REMARK    6  A    between atoms: C_25  and  O_28
REMARK    7  A    between atoms: O_28  and  C_29
REMARK                            x       y       z     vdW  Elec       q    Type
REMARK                         _______ _______ _______ _____ _____    ______ ____
ROOT
ATOM      1  N   UNL     1       1.044  -1.936  -0.008  0.00  0.00    -0.253 N 
ATOM      2  C   UNL     1       0.008  -2.931  -0.307  0.00  0.00    +0.150 C 
ATOM      3  C   UNL     1       0.685  -4.280  -0.230  0.00  0.00    +0.077 C 
ATOM      4  C   UNL     1       1.981  -4.048   0.084  0.00  0.00    +0.250 C 
ATOM      5  C   UNL     1       2.197  -2.594   0.215  0.00  0.00    +0.292 C 
ATOM      6  O   UNL     1       3.258  -2.068   0.486  0.00  0.00    -0.266 OA
ATOM      7  O   UNL     1       2.930  -5.000   0.248  0.00  0.00    -0.282 OA
ENDROOT
BRANCH   1  12
ATOM      8  C   UNL     1      -0.566   1.368  -0.183  0.00  0.00    +0.003 A 
ATOM      9  C   UNL     1       0.495   2.201   0.107  0.00  0.00    +0.015 A 
ATOM     10  C   UNL     1       1.758   1.661   0.362  0.00  0.00    +0.065 A 
ATOM     11  C   UNL     1       1.940   0.278   0.324  0.00  0.00    +0.038 A 
ATOM     12  C   UNL     1       0.867  -0.550   0.032  0.00  0.00    +0.038 A 
ATOM     13  C   UNL     1      -0.385  -0.002  -0.221  0.00  0.00    +0.023 A 
BRANCH  10  14
ATOM     14  C   UNL     1       2.894   2.550   0.671  0.00  0.00    +0.387 C 
ATOM     15  O   UNL     1       2.732   3.762   0.704  0.00  0.00    -0.241 OA
ATOM     16  O   UNL     1       3.999   2.075   0.895  0.00  0.00    -0.241 OA
ENDBRANCH  10  14
ENDBRANCH   1  12
BRANCH   2  17
ATOM     17  C   UNL     1      -0.543  -2.706  -1.691  0.00  0.00    -0.022 A 
ATOM     18  C   UNL     1       0.316  -2.444  -2.743  0.00  0.00    +0.009 A 
ATOM     19  C   UNL     1      -0.187  -2.236  -4.012  0.00  0.00    +0.046 A 
ATOM     20  C   UNL     1      -1.556  -2.291  -4.232  0.00  0.00    +0.127 A 
ATOM     21  C   UNL     1      -2.416  -2.553  -3.176  0.00  0.00    +0.046 A 
ATOM     22  C   UNL     1      -1.907  -2.766  -1.909  0.00  0.00    +0.009 A 
BRANCH  20  23
ATOM     23  O   UNL     1      -2.053  -2.086  -5.480  0.00  0.00    -0.434 OA
BRANCH  23  24
ATOM     24  C   UNL     1      -3.472  -2.157  -5.633  0.00  0.00    +0.541 C 
ATOM     25  F   UNL     1      -3.919  -3.427  -5.254  0.00  0.00    -0.166 F 
ATOM     26  F   UNL     1      -4.077  -1.188  -4.824  0.00  0.00    -0.166 F 
ENDBRANCH  23  24
ENDBRANCH  20  23
ENDBRANCH   2  17
BRANCH   3  27
ATOM     27  C   UNL     1       0.059  -5.588  -0.452  0.00  0.00    +0.202 C 
ATOM     28  O   UNL     1       0.399  -6.273  -1.401  0.00  0.00    -0.286 OA
BRANCH  27  29
ATOM     29  C   UNL     1      -0.975  -6.071   0.467  0.00  0.00    +0.059 A 
ATOM     30  C   UNL     1      -1.642  -7.290   0.473  0.00  0.00    +0.019 A 
ATOM     31  C   UNL     1      -2.570  -7.456   1.471  0.00  0.00    +0.008 A 
ATOM     32  C   UNL     1      -2.770  -6.450   2.361  0.00  0.00    +0.046 A 
ATOM     33  S   UNL     1      -1.700  -5.250   1.874  0.00  0.00    -0.093 S 
ENDBRANCH  27  29
ENDBRANCH   3  27
TORSDOF 7
