REMARK  Name = ZINC28165361
REMARK  6 active torsions:
REMARK  status: ('A' for Active; 'I' for Inactive)
REMARK    1  A    between atoms: C_1  and  C_2
REMARK    2  A    between atoms: C_12  and  S_14
REMARK    3  A    between atoms: S_14  and  C_15
REMARK    4  A    between atoms: C_15  and  C_16
REMARK    5  A    between atoms: N_18  and  C_19
REMARK    6  A    between atoms: C_27  and  C_28
REMARK                            x       y       z     vdW  Elec       q    Type
REMARK                         _______ _______ _______ _____ _____    ______ ____
ROOT
ATOM      1  C   UNL     1       1.316   5.790  -0.412  0.00  0.00    +0.228 C 
ATOM      2  O   UNL     1       0.145   5.970  -0.673  0.00  0.00    -0.275 OA
ATOM      3  N   UNL     1       1.738   4.574  -0.012  0.00  0.00    -0.281 N 
ATOM      4  H   UNL     1       2.787   4.426   0.283  0.00  0.00    +0.155 HD
ENDROOT
BRANCH   3   5
ATOM      5  C   UNL     1       0.847   3.508   0.028  0.00  0.00    +0.092 A 
ATOM      6  C   UNL     1      -0.367   3.339  -0.779  0.00  0.00    +0.042 A 
ATOM      7  C   UNL     1      -0.993   4.104  -1.764  0.00  0.00    +0.013 A 
ATOM      8  C   UNL     1      -2.148   3.656  -2.340  0.00  0.00    +0.001 A 
ATOM      9  C   UNL     1      -2.703   2.445  -1.950  0.00  0.00    +0.004 A 
ATOM     10  C   UNL     1      -2.100   1.675  -0.979  0.00  0.00    +0.047 A 
ATOM     11  C   UNL     1      -0.924   2.111  -0.380  0.00  0.00    +0.138 A 
ATOM     12  O   UNL     1      -0.131   1.591   0.577  0.00  0.00    -0.448 OA
ATOM     13  C   UNL     1       0.923   2.400   0.826  0.00  0.00    +0.211 A 
BRANCH  13  14
ATOM     14  C   UNL     1       1.979   2.135   1.802  0.00  0.00    +0.279 C 
ATOM     15  O   UNL     1       2.824   2.980   2.030  0.00  0.00    -0.267 OA
ATOM     16  N   UNL     1       2.016   0.953   2.450  0.00  0.00    -0.323 N 
ATOM     17  H   UNL     1       2.810   0.754   3.185  0.00  0.00    +0.145 HD
ATOM     18  H   UNL     1       1.252   0.189   2.245  0.00  0.00    +0.145 HD
ENDBRANCH  13  14
ENDBRANCH   3   5
BRANCH   1  19
ATOM     19  C   UNL     1       2.299   6.926  -0.536  0.00  0.00    +0.171 C 
BRANCH  19  20
ATOM     20  S   UNL     1       1.432   8.416  -1.089  0.00  0.00    -0.096 S 
BRANCH  20  32
ATOM     21  C   UNL     1       6.398   9.466  -0.467  0.00  0.00    +0.088 C 
ATOM     22  C   UNL     1       5.035   9.981  -0.851  0.00  0.00    +0.128 A 
ATOM     23  N   UNL     1       4.901  11.243  -1.210  0.00  0.00    -0.225 NA
ATOM     24  C   UNL     1       3.717  11.715  -1.551  0.00  0.00    +0.113 A 
ATOM     25  C   UNL     1       2.572  10.898  -1.549  0.00  0.00    +0.043 A 
ATOM     26  C   UNL     1       1.314  11.551  -1.947  0.00  0.00    -0.025 A 
ATOM     27  C   UNL     1       1.383  12.850  -2.277  0.00  0.00    -0.004 A 
ATOM     28  S   UNL     1       3.095  13.288  -2.079  0.00  0.00    -0.073 S 
ATOM     29  C   UNL     1       0.041  13.409  -2.667  0.00  0.00    +0.043 C 
ATOM     30  C   UNL     1      -0.979  12.385  -2.122  0.00  0.00    +0.010 C 
ATOM     31  C   UNL     1      -0.140  11.093  -2.095  0.00  0.00    +0.037 C 
ATOM     32  C   UNL     1       2.780   9.550  -1.146  0.00  0.00    +0.109 A 
ATOM     33  N   UNL     1       4.003   9.158  -0.820  0.00  0.00    -0.225 NA
ENDBRANCH  20  32
ENDBRANCH  19  20
ENDBRANCH   1  19
TORSDOF 5
