REMARK  Name = ZINC62136473
REMARK  4 active torsions:
REMARK  status: ('A' for Active; 'I' for Inactive)
REMARK    1  A    between atoms: C_1  and  C_2
REMARK    2  A    between atoms: C_2  and  C_4
REMARK    3  A    between atoms: C_2  and  N_9
REMARK    4  A    between atoms: C_15  and  C_18
REMARK                            x       y       z     vdW  Elec       q    Type
REMARK                         _______ _______ _______ _____ _____    ______ ____
ROOT
ATOM      1  N   UNL     1       0.711  -0.489   1.189  0.00  0.00    -0.290 N 
ATOM      2  C   UNL     1       0.051  -0.633   2.355  0.00  0.00    +0.303 C 
ATOM      3  O   UNL     1      -1.132  -0.361   2.423  0.00  0.00    -0.253 OA
ATOM      4  N   UNL     1       0.703  -1.080   3.447  0.00  0.00    -0.285 N 
ATOM      5  C   UNL     1       2.127  -1.439   3.508  0.00  0.00    +0.110 C 
ATOM      6  C   UNL     1       2.431  -1.867   4.959  0.00  0.00    +0.035 C 
ATOM      7  C   UNL     1       1.295  -1.186   5.767  0.00  0.00    +0.121 C 
ATOM      8  C   UNL     1       0.107  -1.283   4.780  0.00  0.00    +0.124 C 
ATOM      9  H   UNL     1       1.654  -0.707   1.135  0.00  0.00    +0.151 HD
ENDROOT
BRANCH   7  10
ATOM     10  C   UNL     1       1.008  -1.942   7.039  0.00  0.00    +0.361 C 
ATOM     11  O   UNL     1       0.776  -1.335   8.070  0.00  0.00    -0.246 OA
ATOM     12  O   UNL     1       1.008  -3.161   7.036  0.00  0.00    -0.246 OA
ENDBRANCH   7  10
BRANCH   1  14
ATOM     13  C   UNL     1      -0.019   1.526   0.010  0.00  0.00    +0.036 C 
ATOM     14  C   UNL     1       0.002  -0.004   0.002  0.00  0.00    +0.143 C 
BRANCH  14  15
ATOM     15  C   UNL     1       0.707  -0.490  -1.238  0.00  0.00    +0.197 A 
ATOM     16  N   UNL     1       0.141  -1.015  -2.315  0.00  0.00    -0.109 NA
ATOM     17  N   UNL     1       1.081  -1.301  -3.149  0.00  0.00    -0.021 NA
ATOM     18  N   UNL     1       2.214  -0.974  -2.633  0.00  0.00    -0.021 NA
ATOM     19  N   UNL     1       2.013  -0.470  -1.463  0.00  0.00    -0.109 NA
ENDBRANCH  14  15
ENDBRANCH   1  14
TORSDOF 3
