REMARK  Name = ZINC59169810
REMARK  15 active torsions:
REMARK  status: ('A' for Active; 'I' for Inactive)
REMARK    1  A    between atoms: C_1  and  C_2
REMARK    2  A    between atoms: C_2  and  O_3
REMARK    3  A    between atoms: O_3  and  C_4
REMARK    4  A    between atoms: C_9  and  C_10
REMARK    5  A    between atoms: C_10  and  N_11
REMARK    6  A    between atoms: N_11  and  C_12
REMARK    7  A    between atoms: N_11  and  C_22
REMARK    8  A    between atoms: C_14  and  C_20
REMARK    9  A    between atoms: C_14  and  C_21
REMARK   10  A    between atoms: C_16  and  C_18
REMARK   11  A    between atoms: C_16  and  C_19
REMARK   12  A    between atoms: C_22  and  N_24
REMARK   13  A    between atoms: N_24  and  C_25
REMARK   14  A    between atoms: C_28  and  O_31
REMARK   15  A    between atoms: O_31  and  C_32
REMARK                            x       y       z     vdW  Elec       q    Type
REMARK                         _______ _______ _______ _____ _____    ______ ____
ROOT
ATOM      1  N   UNL     1      -4.684  -0.491  -1.277  0.00  0.00    -0.305 N 
ENDROOT
BRANCH   1   2
ATOM      2  C   UNL     1      -5.126  -1.429  -2.317  0.00  0.00    +0.073 C 
ATOM      3  C   UNL     1      -3.900  -2.018  -3.017  0.00  0.00    +0.009 C 
ATOM      4  C   UNL     1      -4.345  -2.988  -4.111  0.00  0.00    -0.072 C 
ATOM      5  N   UNL     1      -5.278  -2.373  -5.043  0.00  0.00    +0.386 N 
ATOM      6  C   UNL     1      -6.381  -1.606  -4.487  0.00  0.00    -0.072 C 
ATOM      7  C   UNL     1      -5.956  -0.676  -3.355  0.00  0.00    +0.009 C 
ATOM      8  C   UNL     1      -7.522  -2.512  -4.017  0.00  0.00    -0.010 C 
ATOM      9  C   UNL     1      -6.948  -0.718  -5.621  0.00  0.00    -0.010 C 
ATOM     10  C   UNL     1      -4.910  -4.264  -3.488  0.00  0.00    -0.010 C 
ATOM     11  C   UNL     1      -3.083  -3.388  -4.910  0.00  0.00    -0.010 C 
ATOM     12  H   UNL     1      -4.748  -1.765  -5.673  0.00  0.00    -0.084 HD
ATOM     13  H   UNL     1      -5.665  -3.107  -5.641  0.00  0.00    -0.084 HD
ENDBRANCH   1   2
BRANCH   1  14
ATOM     14  C   UNL     1      -3.954   0.591  -1.613  0.00  0.00    +0.138 C 
ATOM     15  S   UNL     1      -3.578   1.770  -0.430  0.00  0.00    -0.018 S 
BRANCH  14  16
ATOM     16  N   UNL     1      -3.520   0.745  -2.879  0.00  0.00    -0.297 N 
ATOM     17  H   UNL     1      -3.801   0.122  -3.567  0.00  0.00    +0.154 HD
BRANCH  16  18
ATOM     18  C   UNL     1      -2.663   1.805  -3.202  0.00  0.00    +0.033 A 
ATOM     19  C   UNL     1      -1.742   2.262  -2.270  0.00  0.00    +0.027 A 
ATOM     20  C   UNL     1      -0.897   3.307  -2.589  0.00  0.00    +0.048 A 
ATOM     21  C   UNL     1      -0.969   3.900  -3.841  0.00  0.00    +0.129 A 
ATOM     22  C   UNL     1      -1.890   3.444  -4.773  0.00  0.00    +0.048 A 
ATOM     23  C   UNL     1      -2.732   2.396  -4.457  0.00  0.00    +0.027 A 
BRANCH  21  24
ATOM     24  O   UNL     1      -0.138   4.929  -4.154  0.00  0.00    -0.456 OA
BRANCH  24  25
ATOM     25  C   UNL     1       0.820   5.272  -3.253  0.00  0.00    +0.128 A 
ATOM     26  C   UNL     1       1.952   4.484  -3.108  0.00  0.00    +0.046 A 
ATOM     27  C   UNL     1       2.924   4.835  -2.192  0.00  0.00    +0.004 A 
ATOM     28  C   UNL     1       2.770   5.972  -1.420  0.00  0.00    +0.000 A 
ATOM     29  C   UNL     1       1.643   6.760  -1.563  0.00  0.00    +0.004 A 
ATOM     30  C   UNL     1       0.670   6.416  -2.481  0.00  0.00    +0.046 A 
ENDBRANCH  24  25
ENDBRANCH  21  24
ENDBRANCH  16  18
ENDBRANCH  14  16
ENDBRANCH   1  14
BRANCH   1  31
ATOM     31  C   UNL     1      -5.035  -0.732   0.125  0.00  0.00    +0.145 C 
BRANCH  31  37
ATOM     32  C   UNL     1      -2.890  -1.409   1.233  0.00  0.00    +0.125 A 
ATOM     33  C   UNL     1      -2.049  -2.374   1.767  0.00  0.00    +0.046 A 
ATOM     34  C   UNL     1      -2.432  -3.701   1.763  0.00  0.00    +0.004 A 
ATOM     35  C   UNL     1      -3.653  -4.068   1.227  0.00  0.00    +0.001 A 
ATOM     36  C   UNL     1      -4.493  -3.108   0.693  0.00  0.00    +0.009 A 
ATOM     37  C   UNL     1      -4.117  -1.778   0.700  0.00  0.00    +0.011 A 
BRANCH  32  38
ATOM     38  O   UNL     1      -2.516  -0.102   1.236  0.00  0.00    -0.492 OA
BRANCH  38  40
ATOM     39  C   UNL     1      -0.994   1.713   1.716  0.00  0.00    +0.048 C 
ATOM     40  C   UNL     1      -1.240   0.205   1.801  0.00  0.00    +0.225 C 
ENDBRANCH  38  40
ENDBRANCH  32  38
ENDBRANCH  31  37
ENDBRANCH   1  31
TORSDOF 10
