REMARK  Name = ZINC06445629
REMARK  5 active torsions:
REMARK  status: ('A' for Active; 'I' for Inactive)
REMARK    1  A    between atoms: C_5  and  C_7
REMARK    2  A    between atoms: C_12  and  S_28
REMARK    3  A    between atoms: C_20  and  C_25
REMARK    4  A    between atoms: S_28  and  C_29
REMARK    5  A    between atoms: C_34  and  N_35
REMARK                            x       y       z     vdW  Elec       q    Type
REMARK                         _______ _______ _______ _____ _____    ______ ____
ROOT
ATOM      1  C   UNL     1      -1.307  -0.555  -0.544  0.00  0.00    +0.107 C 
ATOM      2  C   UNL     1       0.002  -0.004   0.002  0.00  0.00    +0.024 C 
ATOM      3  C   UNL     1      -0.019   1.539   0.011  0.00  0.00    +0.022 C 
ATOM      4  C   UNL     1       1.474   1.932  -0.002  0.00  0.00    +0.070 C 
ATOM      5  C   UNL     1       2.239   0.734  -0.592  0.00  0.00    +0.101 C 
ATOM      6  C   UNL     1       1.180  -0.342  -0.926  0.00  0.00    +0.045 C 
ATOM      7  C   UNL     1       0.810  -0.190  -2.378  0.00  0.00    -0.021 A 
ATOM      8  C   UNL     1       1.826  -0.213  -3.316  0.00  0.00    +0.021 A 
ATOM      9  C   UNL     1       1.532  -0.075  -4.673  0.00  0.00    +0.064 A 
ATOM     10  C   UNL     1       0.205   0.087  -5.086  0.00  0.00    +0.017 A 
ATOM     11  C   UNL     1      -0.795   0.111  -4.157  0.00  0.00    +0.024 A 
ATOM     12  C   UNL     1      -0.501  -0.026  -2.802  0.00  0.00    +0.031 A 
ATOM     13  N   UNL     1      -1.544   0.003  -1.879  0.00  0.00    -0.336 N 
ATOM     14 CL   UNL     1       3.109   1.232  -2.091  0.00  0.00    -0.120 Cl
ATOM     15  H   UNL     1      -2.406   0.383  -2.114  0.00  0.00    +0.147 HD
ENDROOT
BRANCH   1  20
ATOM     16  C   UNL     1      -4.289   1.260   0.893  0.00  0.00    +0.000 A 
ATOM     17  C   UNL     1      -4.516   0.546   2.055  0.00  0.00    +0.003 A 
ATOM     18  C   UNL     1      -3.704  -0.525   2.378  0.00  0.00    +0.039 A 
ATOM     19  C   UNL     1      -2.667  -0.885   1.534  0.00  0.00    +0.128 A 
ATOM     20  C   UNL     1      -2.438  -0.167   0.373  0.00  0.00    +0.008 A 
ATOM     21  C   UNL     1      -3.251   0.904   0.052  0.00  0.00    +0.008 A 
ATOM     22  F   UNL     1      -1.876  -1.935   1.846  0.00  0.00    -0.205 F 
ENDBRANCH   1  20
BRANCH   9  23
ATOM     23  C   UNL     1       2.617  -0.101  -5.670  0.00  0.00    +0.387 C 
ATOM     24  O   UNL     1       3.769  -0.242  -5.311  0.00  0.00    -0.241 OA
ATOM     25  O   UNL     1       2.331   0.033  -6.980  0.00  0.00    -0.241 OA
ENDBRANCH   9  23
BRANCH   4  26
ATOM     26  S   UNL     1       1.722   3.400  -1.038  0.00  0.00    -0.118 S 
BRANCH  26  27
ATOM     27  C   UNL     1       3.427   3.791  -0.823  0.00  0.00    +0.038 A 
ATOM     28  C   UNL     1       4.221   3.010   0.008  0.00  0.00    +0.017 A 
ATOM     29  C   UNL     1       5.556   3.320   0.174  0.00  0.00    +0.001 A 
ATOM     30  C   UNL     1       6.103   4.406  -0.484  0.00  0.00    +0.002 A 
ATOM     31  C   UNL     1       5.316   5.186  -1.311  0.00  0.00    +0.034 A 
ATOM     32  C   UNL     1       3.981   4.879  -1.487  0.00  0.00    +0.140 A 
BRANCH  32  33
ATOM     33  N   UNL     1       3.140   5.710  -2.377  0.00  0.00    +0.058 N 
ATOM     34  O   UNL     1       3.627   6.663  -2.959  0.00  0.00    -0.126 OA
ATOM     35  O   UNL     1       1.962   5.442  -2.528  0.00  0.00    -0.126 OA
ENDBRANCH  32  33
ENDBRANCH  26  27
ENDBRANCH   4  26
TORSDOF 5
