REMARK  Name = ZINC43743815
REMARK  2 active torsions:
REMARK  status: ('A' for Active; 'I' for Inactive)
REMARK    1  A    between atoms: C_8  and  C_27
REMARK    2  A    between atoms: C_27  and  C_29
REMARK                            x       y       z     vdW  Elec       q    Type
REMARK                         _______ _______ _______ _____ _____    ______ ____
ROOT
ATOM      1  C   UNL     1      -0.093   1.348   0.051  0.00  0.00    +0.000 A 
ATOM      2  C   UNL     1       1.087   2.068   0.072  0.00  0.00    +0.002 A 
ATOM      3  C   UNL     1       2.302   1.415   0.066  0.00  0.00    +0.023 A 
ATOM      4  C   UNL     1       2.349   0.023   0.040  0.00  0.00    +0.038 A 
ATOM      5  C   UNL     1       1.155  -0.692   0.020  0.00  0.00    -0.011 A 
ATOM      6  C   UNL     1      -0.055  -0.035   0.025  0.00  0.00    +0.006 A 
ATOM      7  C   UNL     1       1.544  -2.143  -0.003  0.00  0.00    +0.085 C 
ATOM      8  C   UNL     1       0.996  -2.851  -1.250  0.00  0.00    +0.069 C 
ATOM      9  C   UNL     1       0.128  -4.005  -0.706  0.00  0.00    -0.055 C 
ATOM     10  C   UNL     1       0.439  -5.287  -1.499  0.00  0.00    -0.016 C 
ATOM     11  C   UNL     1       1.577  -5.983  -0.727  0.00  0.00    -0.020 C 
ATOM     12  C   UNL     1       1.887  -5.051   0.462  0.00  0.00    -0.076 C 
ATOM     13  N   UNL     1       0.630  -4.247   0.682  0.00  0.00    +0.395 N 
ATOM     14  C   UNL     1       0.974  -2.905   1.189  0.00  0.00    +0.060 C 
ATOM     15  C   UNL     1       1.955  -2.979   2.325  0.00  0.00    -0.025 A 
ATOM     16  C   UNL     1       3.230  -3.485   2.445  0.00  0.00    +0.005 A 
ATOM     17  C   UNL     1       3.897  -3.402   3.654  0.00  0.00    +0.002 A 
ATOM     18  C   UNL     1       3.281  -2.812   4.742  0.00  0.00    +0.022 A 
ATOM     19  C   UNL     1       2.003  -2.304   4.628  0.00  0.00    +0.062 A 
ATOM     20  C   UNL     1       1.324  -2.383   3.413  0.00  0.00    +0.054 A 
ATOM     21  N   UNL     1       0.046  -1.948   3.051  0.00  0.00    -0.285 N 
ATOM     22  C   UNL     1      -0.235  -2.216   1.762  0.00  0.00    +0.212 C 
ATOM     23  O   UNL     1      -1.265  -1.954   1.176  0.00  0.00    -0.277 OA
ATOM     24 CL   UNL     1       1.238  -1.566   6.000  0.00  0.00    -0.082 Cl
ATOM     25  C   UNL     1       3.050  -2.143   0.004  0.00  0.00    +0.228 C 
ATOM     26  O   UNL     1       3.773  -3.116  -0.010  0.00  0.00    -0.275 OA
ATOM     27  N   UNL     1       3.437  -0.853   0.029  0.00  0.00    -0.285 N 
ATOM     28  H   UNL     1      -0.566  -1.504   3.659  0.00  0.00    +0.155 HD
ATOM     29  H   UNL     1       4.363  -0.566   0.037  0.00  0.00    +0.155 HD
ATOM     30  H   UNL     1      -0.044  -4.726   1.261  0.00  0.00    -0.079 HD
ENDROOT
BRANCH   8  31
ATOM     31  C   UNL     1       0.156  -1.901  -2.065  0.00  0.00    +0.201 C 
ATOM     32  O   UNL     1      -1.046  -1.856  -1.897  0.00  0.00    -0.289 OA
BRANCH  31  33
ATOM     33  C   UNL     1       0.767  -1.062  -3.024  0.00  0.00    +0.170 A 
ATOM     34  C   UNL     1       0.124  -0.145  -3.831  0.00  0.00    +0.053 A 
ATOM     35  C   UNL     1       1.115   0.456  -4.619  0.00  0.00    +0.042 A 
ATOM     36  C   UNL     1       2.297  -0.103  -4.272  0.00  0.00    +0.196 A 
ATOM     37  O   UNL     1       2.086  -1.009  -3.310  0.00  0.00    -0.460 OA
ENDBRANCH  31  33
ENDBRANCH   8  31
TORSDOF 2
