REMARK  Name = ZINC57301213
REMARK  8 active torsions:
REMARK  status: ('A' for Active; 'I' for Inactive)
REMARK    1  A    between atoms: C_1  and  C_2
REMARK    2  A    between atoms: C_2  and  C_3
REMARK    3  A    between atoms: C_3  and  N_4
REMARK    4  A    between atoms: C_5  and  C_7
REMARK    5  A    between atoms: C_7  and  C_8
REMARK    6  A    between atoms: C_8  and  N_9
REMARK    7  A    between atoms: N_12  and  N_13
REMARK    8  A    between atoms: C_14  and  C_16
REMARK                            x       y       z     vdW  Elec       q    Type
REMARK                         _______ _______ _______ _____ _____    ______ ____
ROOT
ATOM      1  N   UNL     1      -3.966  -6.189   0.007  0.00  0.00    -0.298 N 
ATOM      2  C   UNL     1      -5.124  -6.879   0.014  0.00  0.00    +0.316 C 
ATOM      3  O   UNL     1      -6.185  -6.286   0.027  0.00  0.00    -0.251 OA
ATOM      4  N   UNL     1      -5.106  -8.227   0.007  0.00  0.00    -0.218 N 
ATOM      5  H   UNL     1      -3.120  -6.663  -0.004  0.00  0.00    +0.150 HD
ATOM      6  H   UNL     1      -5.939  -8.723   0.012  0.00  0.00    +0.174 HD
ENDROOT
BRANCH   4   7
ATOM      7  N   UNL     1      -3.883  -8.911  -0.009  0.00  0.00    -0.229 N 
ATOM      8  C   UNL     1      -3.865 -10.258  -0.016  0.00  0.00    +0.267 C 
ATOM      9  O   UNL     1      -4.911 -10.881  -0.009  0.00  0.00    -0.268 OA
ATOM     10  H   UNL     1      -3.050  -8.414  -0.014  0.00  0.00    +0.173 HD
BRANCH   8  11
ATOM     11  C   UNL     1      -2.586 -10.974  -0.032  0.00  0.00    +0.076 A 
ATOM     12  C   UNL     1      -2.346 -12.330  -0.047  0.00  0.00    +0.024 A 
ATOM     13  C   UNL     1      -1.009 -12.740  -0.034  0.00  0.00    -0.036 A 
ATOM     14  C   UNL     1      -0.076 -11.771   0.035  0.00  0.00    -0.006 A 
ATOM     15  S   UNL     1      -0.930 -10.320  -0.045  0.00  0.00    -0.088 S 
ATOM     16  C   UNL     1       1.420 -11.810   0.227  0.00  0.00    +0.043 C 
ATOM     17  C   UNL     1       1.948 -13.235   0.389  0.00  0.00    +0.005 C 
ATOM     18  C   UNL     1       2.073 -13.924  -0.960  0.00  0.00    +0.000 C 
ATOM     19  C   UNL     1       0.945 -13.573  -1.909  0.00  0.00    +0.000 C 
ATOM     20  C   UNL     1      -0.222 -14.510  -1.577  0.00  0.00    +0.005 C 
ATOM     21  C   UNL     1      -0.697 -14.224  -0.153  0.00  0.00    +0.036 C 
ENDBRANCH   8  11
ENDBRANCH   4   7
BRANCH   1  22
ATOM     22  C   UNL     1      -3.986  -4.725   0.015  0.00  0.00    +0.115 C 
BRANCH  22  23
ATOM     23  C   UNL     1      -2.551  -4.195   0.004  0.00  0.00    +0.114 C 
BRANCH  23  25
ATOM     24  N   UNL     1      -1.413  -1.998   0.005  0.00  0.00    -0.315 N 
ATOM     25  C   UNL     1      -2.571  -2.688   0.012  0.00  0.00    +0.215 C 
ATOM     26  O   UNL     1      -3.630  -2.096   0.025  0.00  0.00    -0.276 OA
ATOM     27  H   UNL     1      -0.567  -2.472  -0.006  0.00  0.00    +0.149 HD
BRANCH  24  28
ATOM     28  C   UNL     1      -1.433  -0.534   0.013  0.00  0.00    +0.104 C 
BRANCH  28  30
ATOM     29  C   UNL     1      -0.019   1.526   0.010  0.00  0.00    +0.005 C 
ATOM     30  C   UNL     1       0.002  -0.004   0.002  0.00  0.00    +0.015 C 
ENDBRANCH  28  30
ENDBRANCH  24  28
ENDBRANCH  23  25
ENDBRANCH  22  23
ENDBRANCH   1  22
TORSDOF 7
