REMARK  Name = ZINC63289615
REMARK  9 active torsions:
REMARK  status: ('A' for Active; 'I' for Inactive)
REMARK    1  A    between atoms: C_2  and  C_3
REMARK    2  A    between atoms: C_3  and  N_4
REMARK    3  A    between atoms: C_5  and  C_24
REMARK    4  A    between atoms: C_9  and  S_10
REMARK    5  A    between atoms: S_10  and  C_11
REMARK    6  A    between atoms: C_11  and  C_12
REMARK    7  A    between atoms: N_14  and  C_15
REMARK    8  A    between atoms: C_19  and  N_21
REMARK    9  A    between atoms: C_24  and  C_25
REMARK                            x       y       z     vdW  Elec       q    Type
REMARK                         _______ _______ _______ _____ _____    ______ ____
ROOT
ATOM      1  N   UNL     1      -1.329  -1.704  -1.123  0.00  0.00    -0.285 N 
ATOM      2  C   UNL     1      -1.850  -1.427  -2.473  0.00  0.00    +0.181 C 
ATOM      3  N   UNL     1      -1.638  -2.690  -3.200  0.00  0.00    -0.246 N 
ATOM      4  N   UNL     1      -1.044  -3.571  -2.287  0.00  0.00    -0.163 NA
ATOM      5  C   UNL     1      -0.871  -3.013  -1.137  0.00  0.00    +0.176 C 
ATOM      6  H   UNL     1      -1.864  -2.875  -4.125  0.00  0.00    +0.170 HD
ENDROOT
BRANCH   1   7
ATOM      7  C   UNL     1      -1.296  -0.777   0.011  0.00  0.00    +0.135 C 
BRANCH   7   9
ATOM      8  C   UNL     1      -0.020   1.304  -0.005  0.00  0.00    +0.005 C 
ATOM      9  C   UNL     1      -0.002  -0.005  -0.009  0.00  0.00    -0.016 C 
ENDBRANCH   7   9
ENDBRANCH   1   7
BRANCH   5  10
ATOM     10  S   UNL     1      -0.143  -3.819   0.251  0.00  0.00    -0.080 S 
BRANCH  10  11
ATOM     11  C   UNL     1       0.249  -5.481  -0.362  0.00  0.00    +0.173 C 
BRANCH  11  12
ATOM     12  C   UNL     1       0.885  -6.286   0.741  0.00  0.00    +0.227 C 
ATOM     13  O   UNL     1       1.058  -5.788   1.833  0.00  0.00    -0.275 OA
ATOM     14  N   UNL     1       1.263  -7.559   0.514  0.00  0.00    -0.285 N 
ATOM     15  H   UNL     1       1.065  -7.979  -0.338  0.00  0.00    +0.155 HD
BRANCH  14  16
ATOM     16  C   UNL     1       1.941  -8.276   1.506  0.00  0.00    +0.036 A 
ATOM     17  C   UNL     1       2.929  -9.187   1.155  0.00  0.00    +0.023 A 
ATOM     18  C   UNL     1       3.596  -9.892   2.137  0.00  0.00    +0.004 A 
ATOM     19  C   UNL     1       3.282  -9.692   3.469  0.00  0.00    +0.033 A 
ATOM     20  C   UNL     1       2.299  -8.786   3.822  0.00  0.00    +0.128 A 
ATOM     21  C   UNL     1       1.632  -8.073   2.845  0.00  0.00    +0.056 A 
BRANCH  20  22
ATOM     22  N   UNL     1       1.964  -8.576   5.248  0.00  0.00    +0.056 N 
ATOM     23  O   UNL     1       2.551  -9.197   6.104  0.00  0.00    -0.126 OA
ATOM     24  O   UNL     1       1.105  -7.785   5.558  0.00  0.00    -0.126 OA
ENDBRANCH  20  22
ENDBRANCH  14  16
ENDBRANCH  11  12
ENDBRANCH  10  11
ENDBRANCH   5  10
BRANCH   2  25
ATOM     25  C   UNL     1      -3.339  -1.081  -2.413  0.00  0.00    +0.076 C 
BRANCH  25  26
ATOM     26  C   UNL     1      -3.846  -0.802  -3.805  0.00  0.00    -0.038 C 
ATOM     27  C   UNL     1      -4.457  -1.675  -4.638  0.00  0.00    -0.001 A 
ATOM     28  C   UNL     1      -4.817  -3.091  -4.503  0.00  0.00    +0.010 A 
ATOM     29  C   UNL     1      -5.436  -3.711  -5.534  0.00  0.00    +0.001 A 
ATOM     30  C   UNL     1      -5.741  -3.037  -6.724  0.00  0.00    +0.002 A 
ATOM     31  C   UNL     1      -5.441  -1.736  -6.922  0.00  0.00    +0.026 A 
ATOM     32  C   UNL     1      -4.790  -0.985  -5.904  0.00  0.00    +0.043 A 
ATOM     33  N   UNL     1      -4.400   0.266  -5.856  0.00  0.00    -0.380 N 
ATOM     34  C   UNL     1      -3.780   0.512  -4.550  0.00  0.00    +0.144 C 
ATOM     35  H   UNL     1      -4.507   0.919  -6.565  0.00  0.00    +0.160 HD
ENDBRANCH  25  26
ENDBRANCH   2  25
TORSDOF 9
