REMARK  Name = ZINC04708564
REMARK  4 active torsions:
REMARK  status: ('A' for Active; 'I' for Inactive)
REMARK    1  A    between atoms: C_5  and  N_7
REMARK    2  A    between atoms: C_11  and  N_52
REMARK    3  A    between atoms: C_17  and  N_20
REMARK    4  A    between atoms: N_20  and  C_21
REMARK                            x       y       z     vdW  Elec       q    Type
REMARK                         _______ _______ _______ _____ _____    ______ ____
ROOT
ATOM      1  C   UNL     1      -4.362   0.216  -0.710  0.00  0.00    -0.076 C 
ATOM      2  C   UNL     1      -5.682   0.862  -1.137  0.00  0.00    +0.003 C 
ATOM      3  C   UNL     1      -5.757   0.898  -2.666  0.00  0.00    +0.067 C 
ATOM      4  C   UNL     1      -5.624  -0.528  -3.209  0.00  0.00    +0.003 C 
ATOM      5  C   UNL     1      -4.305  -1.133  -2.722  0.00  0.00    -0.076 C 
ATOM      6  N   UNL     1      -4.307  -1.161  -1.244  0.00  0.00    +0.388 N 
ATOM      7  H   UNL     1      -5.135  -1.677  -0.921  0.00  0.00    -0.081 HD
ENDROOT
BRANCH   6  12
ATOM      8  N   UNL     1      -1.202  -0.724   0.009  0.00  0.00    -0.209 N 
ATOM      9  C   UNL     1      -1.814  -1.101   1.139  0.00  0.00    +0.225 C 
ATOM     10  O   UNL     1      -1.417  -0.875   2.261  0.00  0.00    -0.275 OA
ATOM     11  C   UNL     1      -3.080  -1.853   0.791  0.00  0.00    +0.090 C 
ATOM     12  C   UNL     1      -3.094  -1.846  -0.751  0.00  0.00    +0.029 C 
ATOM     13  C   UNL     1      -1.837  -1.085  -1.113  0.00  0.00    +0.213 C 
ATOM     14  O   UNL     1      -1.463  -0.842  -2.240  0.00  0.00    -0.277 OA
BRANCH   8  19
ATOM     15  C   UNL     1       2.399   0.033  -0.021  0.00  0.00    +0.002 A 
ATOM     16  C   UNL     1       2.379   1.415  -0.013  0.00  0.00    +0.003 A 
ATOM     17  C   UNL     1       1.173   2.091   0.002  0.00  0.00    +0.040 A 
ATOM     18  C   UNL     1      -0.017   1.386   0.010  0.00  0.00    +0.145 A 
ATOM     19  C   UNL     1       0.002  -0.004   0.002  0.00  0.00    +0.079 A 
ATOM     20  C   UNL     1       1.215  -0.678  -0.013  0.00  0.00    +0.027 A 
ATOM     21  F   UNL     1      -1.195   2.046   0.019  0.00  0.00    -0.204 F 
ENDBRANCH   8  19
ENDBRANCH   6  12
BRANCH   3  22
ATOM     22  N   UNL     1      -7.043   1.462  -3.081  0.00  0.00    -0.341 N 
ATOM     23  H   UNL     1      -7.787   0.875  -3.287  0.00  0.00    +0.146 HD
BRANCH  22  24
ATOM     24  C   UNL     1      -7.198   2.849  -3.182  0.00  0.00    +0.031 A 
ATOM     25  C   UNL     1      -6.135   3.691  -2.882  0.00  0.00    +0.027 A 
ATOM     26  C   UNL     1      -6.286   5.060  -2.987  0.00  0.00    +0.051 A 
ATOM     27  C   UNL     1      -7.500   5.598  -3.380  0.00  0.00    +0.166 A 
ATOM     28  C   UNL     1      -8.570   4.757  -3.675  0.00  0.00    +0.168 A 
ATOM     29  C   UNL     1      -8.417   3.384  -3.576  0.00  0.00    +0.072 A 
ATOM     30  O   UNL     1      -9.642   5.523  -4.033  0.00  0.00    -0.453 OA
ATOM     31  C   UNL     1      -9.342   6.850  -3.560  0.00  0.00    +0.466 C 
ATOM     32  O   UNL     1      -7.903   6.893  -3.553  0.00  0.00    -0.453 OA
ENDBRANCH  22  24
ENDBRANCH   3  22
TORSDOF 4
