REMARK  Name = ZINC38681155
REMARK  11 active torsions:
REMARK  status: ('A' for Active; 'I' for Inactive)
REMARK    1  A    between atoms: C_1  and  O_2
REMARK    2  A    between atoms: O_2  and  C_3
REMARK    3  A    between atoms: C_5  and  C_13
REMARK    4  A    between atoms: C_8  and  O_9
REMARK    5  A    between atoms: O_9  and  C_10
REMARK    6  A    between atoms: C_10  and  C_11
REMARK    7  A    between atoms: C_18  and  O_27
REMARK    8  A    between atoms: C_22  and  N_26
REMARK    9  A    between atoms: C_23  and  C_24
REMARK   10  A    between atoms: O_27  and  C_28
REMARK   11  A    between atoms: C_28  and  C_30
REMARK                            x       y       z     vdW  Elec       q    Type
REMARK                         _______ _______ _______ _____ _____    ______ ____
ROOT
ATOM      1  C   UNL     1      -4.853   0.314   0.010  0.00  0.00    +0.098 C 
ATOM      2  C   UNL     1      -5.663  -0.030  -1.212  0.00  0.00    +0.008 A 
ATOM      3  C   UNL     1      -5.357   0.569  -2.421  0.00  0.00    +0.012 A 
ATOM      4  C   UNL     1      -6.090   0.266  -3.552  0.00  0.00    +0.047 A 
ATOM      5  C   UNL     1      -7.137  -0.642  -3.478  0.00  0.00    +0.135 A 
ATOM      6  C   UNL     1      -7.445  -1.243  -2.268  0.00  0.00    +0.093 A 
ATOM      7  C   UNL     1      -6.707  -0.938  -1.132  0.00  0.00    +0.138 A 
ATOM      8  O   UNL     1      -7.022  -1.535   0.044  0.00  0.00    -0.441 OA
ATOM      9  C   UNL     1      -6.607  -0.994   1.202  0.00  0.00    +0.199 C 
ATOM     10  C   UNL     1      -5.584  -0.113   1.252  0.00  0.00    +0.098 C 
ENDROOT
BRANCH   1  13
ATOM     11  C   UNL     1      -1.130  -0.316  -0.127  0.00  0.00    +0.162 A 
ATOM     12  C   UNL     1      -2.352   0.335  -0.067  0.00  0.00    +0.054 A 
ATOM     13  C   UNL     1      -3.525  -0.396  -0.055  0.00  0.00    -0.031 A 
ATOM     14  C   UNL     1      -3.483  -1.777  -0.103  0.00  0.00    +0.008 A 
ATOM     15  C   UNL     1      -2.268  -2.433  -0.163  0.00  0.00    +0.050 A 
ATOM     16  C   UNL     1      -1.088  -1.706  -0.181  0.00  0.00    +0.162 A 
BRANCH  11  18
ATOM     17  C   UNL     1      -0.095   1.824  -0.082  0.00  0.00    +0.277 C 
ATOM     18  O   UNL     1       0.025   0.401  -0.140  0.00  0.00    -0.491 OA
ENDBRANCH  11  18
BRANCH  16  19
ATOM     19  O   UNL     1       0.108  -2.350  -0.246  0.00  0.00    -0.484 OA
BRANCH  19  20
ATOM     20  C   UNL     1       0.075  -3.777  -0.299  0.00  0.00    +0.256 C 
BRANCH  20  21
ATOM     21  C   UNL     1       1.483  -4.311  -0.366  0.00  0.00    +0.006 C 
ATOM     22  C   UNL     1       1.837  -5.322   0.387  0.00  0.00    +0.007 C 
ENDBRANCH  20  21
ENDBRANCH  19  20
ENDBRANCH  16  19
ENDBRANCH   1  13
BRANCH   9  23
ATOM     23  N   UNL     1      -7.242  -1.347   2.367  0.00  0.00    -0.328 N 
ATOM     24  H   UNL     1      -7.977  -1.979   2.346  0.00  0.00    +0.145 HD
ATOM     25  H   UNL     1      -6.954  -0.965   3.211  0.00  0.00    +0.145 HD
ENDBRANCH   9  23
BRANCH  10  26
ATOM     26  C   UNL     1      -5.191   0.427   2.518  0.00  0.00    +0.101 C 
ATOM     27  N   UNL     1      -4.878   0.855   3.523  0.00  0.00    -0.191 NA
ENDBRANCH  10  26
BRANCH   5  28
ATOM     28  O   UNL     1      -7.859  -0.940  -4.590  0.00  0.00    -0.422 OA
BRANCH  28  29
ATOM     29  C   UNL     1      -7.255  -1.644  -5.567  0.00  0.00    +0.344 C 
ATOM     30  O   UNL     1      -6.135  -2.082  -5.396  0.00  0.00    -0.245 OA
BRANCH  29  31
ATOM     31  C   UNL     1      -7.955  -1.883  -6.845  0.00  0.00    +0.061 A 
ATOM     32  C   UNL     1      -9.240  -1.376  -7.047  0.00  0.00    +0.015 A 
ATOM     33  C   UNL     1      -9.888  -1.603  -8.243  0.00  0.00    +0.002 A 
ATOM     34  C   UNL     1      -9.268  -2.332  -9.243  0.00  0.00    +0.020 A 
ATOM     35  C   UNL     1      -7.994  -2.837  -9.050  0.00  0.00    +0.042 A 
ATOM     36  C   UNL     1      -7.331  -2.612  -7.860  0.00  0.00    +0.035 A 
ATOM     37 CL   UNL     1      -7.224  -3.750 -10.310  0.00  0.00    -0.084 Cl
ENDBRANCH  29  31
ENDBRANCH  28  29
ENDBRANCH   5  28
TORSDOF 10
