REMARK  Name = ZINC62558085
REMARK  5 active torsions:
REMARK  status: ('A' for Active; 'I' for Inactive)
REMARK    1  A    between atoms: C_1  and  C_2
REMARK    2  A    between atoms: C_2  and  C_3
REMARK    3  A    between atoms: C_2  and  C_4
REMARK    4  A    between atoms: C_6  and  N_22
REMARK    5  A    between atoms: C_13  and  C_16
REMARK                            x       y       z     vdW  Elec       q    Type
REMARK                         _______ _______ _______ _____ _____    ______ ____
ROOT
ATOM      1  C   UNL     1       0.707  -0.490  -1.238  0.00  0.00    -0.041 A 
ATOM      2  C   UNL     1       0.220  -0.149  -2.486  0.00  0.00    +0.030 A 
ATOM      3  C   UNL     1       0.864  -0.595  -3.633  0.00  0.00    +0.069 A 
ATOM      4  C   UNL     1       2.003  -1.384  -3.522  0.00  0.00    +0.164 A 
ATOM      5  C   UNL     1       2.490  -1.723  -2.263  0.00  0.00    +0.078 A 
ATOM      6  C   UNL     1       1.843  -1.270  -1.123  0.00  0.00    +0.031 A 
ATOM      7  N   UNL     1       3.641  -2.518  -2.164  0.00  0.00    -0.279 N 
ATOM      8  C   UNL     1       4.066  -3.193  -3.254  0.00  0.00    +0.263 C 
ATOM      9  O   UNL     1       5.076  -3.863  -3.200  0.00  0.00    -0.271 OA
ATOM     10  C   UNL     1       3.280  -3.111  -4.538  0.00  0.00    +0.289 C 
ATOM     11  O   UNL     1       2.648  -1.831  -4.633  0.00  0.00    -0.471 OA
ATOM     12  H   UNL     1       4.125  -2.582  -1.326  0.00  0.00    +0.155 HD
ENDROOT
BRANCH  10  13
ATOM     13  C   UNL     1       2.229  -4.191  -4.553  0.00  0.00    +0.002 A 
ATOM     14  C   UNL     1       1.005  -3.973  -3.950  0.00  0.00    +0.008 A 
ATOM     15  C   UNL     1       0.041  -4.963  -3.964  0.00  0.00    +0.000 A 
ATOM     16  C   UNL     1       0.302  -6.173  -4.581  0.00  0.00    +0.000 A 
ATOM     17  C   UNL     1       1.526  -6.391  -5.185  0.00  0.00    +0.000 A 
ATOM     18  C   UNL     1       2.488  -5.398  -5.175  0.00  0.00    +0.008 A 
ENDBRANCH  10  13
BRANCH   1  20
ATOM     19  C   UNL     1      -0.019   1.526   0.010  0.00  0.00    +0.012 C 
ATOM     20  C   UNL     1       0.002  -0.004   0.002  0.00  0.00    +0.013 C 
ATOM     21  C   UNL     1      -1.433  -0.534   0.013  0.00  0.00    +0.012 C 
ENDBRANCH   1  20
BRANCH   3  22
ATOM     22  N   UNL     1       0.369  -0.250  -4.896  0.00  0.00    -0.355 N 
ATOM     23  H   UNL     1      -0.426   0.300  -4.971  0.00  0.00    +0.142 HD
ATOM     24  H   UNL     1       0.820  -0.562  -5.695  0.00  0.00    +0.142 HD
ENDBRANCH   3  22
TORSDOF 3
