REMARK  Name = ZINC08740304
REMARK  10 active torsions:
REMARK  status: ('A' for Active; 'I' for Inactive)
REMARK    1  A    between atoms: C_1  and  C_2
REMARK    2  A    between atoms: C_2  and  O_3
REMARK    3  A    between atoms: O_3  and  C_4
REMARK    4  A    between atoms: C_7  and  N_10
REMARK    5  A    between atoms: C_13  and  C_14
REMARK    6  A    between atoms: N_15  and  C_16
REMARK    7  A    between atoms: C_16  and  C_17
REMARK    8  A    between atoms: C_24  and  O_25
REMARK    9  A    between atoms: O_25  and  C_26
REMARK   10  A    between atoms: C_32  and  N_65
REMARK                            x       y       z     vdW  Elec       q    Type
REMARK                         _______ _______ _______ _____ _____    ______ ____
ROOT
ATOM      1  C   UNL     1      -2.104   5.272   1.235  0.00  0.00    +0.099 C 
ATOM      2  N   UNL     1      -2.664   4.645   0.180  0.00  0.00    -0.296 NA
ENDROOT
BRANCH   1   6
ATOM      3  N   UNL     1      -3.005   6.236   4.683  0.00  0.00    -0.193 N 
ATOM      4  C   UNL     1      -2.247   6.121   3.573  0.00  0.00    +0.245 C 
ATOM      5  O   UNL     1      -1.120   6.579   3.535  0.00  0.00    -0.274 OA
ATOM      6  C   UNL     1      -2.821   5.427   2.407  0.00  0.00    +0.202 C 
ATOM      7  C   UNL     1      -4.195   4.911   2.542  0.00  0.00    +0.238 C 
ATOM      8  O   UNL     1      -4.738   4.331   1.621  0.00  0.00    -0.274 OA
ATOM      9  N   UNL     1      -4.832   5.095   3.717  0.00  0.00    -0.238 N 
ATOM     10  C   UNL     1      -4.247   5.737   4.738  0.00  0.00    +0.319 C 
ATOM     11  O   UNL     1      -4.878   5.874   5.768  0.00  0.00    -0.251 OA
ATOM     12  H   UNL     1      -5.735   4.758   3.824  0.00  0.00    +0.159 HD
BRANCH   3  16
ATOM     13  C   UNL     1      -1.445   8.190   8.023  0.00  0.00    +0.121 A 
ATOM     14  C   UNL     1      -2.218   8.890   7.108  0.00  0.00    +0.047 A 
ATOM     15  C   UNL     1      -2.735   8.244   6.002  0.00  0.00    +0.027 A 
ATOM     16  C   UNL     1      -2.480   6.893   5.806  0.00  0.00    +0.046 A 
ATOM     17  C   UNL     1      -1.710   6.192   6.724  0.00  0.00    +0.027 A 
ATOM     18  C   UNL     1      -1.190   6.841   7.827  0.00  0.00    +0.047 A 
BRANCH  13  19
ATOM     19  O   UNL     1      -0.937   8.827   9.111  0.00  0.00    -0.492 OA
BRANCH  19  21
ATOM     20  C   UNL     1       0.332   8.926  11.165  0.00  0.00    +0.048 C 
ATOM     21  C   UNL     1      -0.149   8.045  10.011  0.00  0.00    +0.225 C 
ENDBRANCH  19  21
ENDBRANCH  13  19
ENDBRANCH   3  16
ENDBRANCH   1   6
BRANCH   2  22
ATOM     22  C   UNL     1      -1.904   4.481  -1.062  0.00  0.00    +0.130 C 
BRANCH  22  23
ATOM     23  C   UNL     1      -2.799   3.844  -2.126  0.00  0.00    -0.012 C 
ATOM     24  C   UNL     1      -3.290   2.509  -1.630  0.00  0.00    -0.011 A 
ATOM     25  C   UNL     1      -4.592   2.097  -1.819  0.00  0.00    -0.040 A 
ATOM     26  C   UNL     1      -5.002   0.857  -1.351  0.00  0.00    +0.053 A 
ATOM     27  C   UNL     1      -4.109   0.022  -0.700  0.00  0.00    +0.170 A 
ATOM     28  C   UNL     1      -2.794   0.432  -0.510  0.00  0.00    +0.208 A 
ATOM     29  C   UNL     1      -2.389   1.676  -0.975  0.00  0.00    +0.167 A 
ATOM     30  O   UNL     1      -2.119  -0.555   0.150  0.00  0.00    -0.449 OA
ATOM     31  C   UNL     1      -2.925  -1.738  -0.002  0.00  0.00    +0.467 C 
ATOM     32  O   UNL     1      -4.260  -1.224  -0.162  0.00  0.00    -0.452 OA
ATOM     33  C   UNL     1      -5.604   2.968  -2.519  0.00  0.00    +0.017 C 
ATOM     34  C   UNL     1      -4.889   4.063  -3.312  0.00  0.00    -0.074 C 
ATOM     35  C   UNL     1      -3.462   5.997  -3.003  0.00  0.00    -0.095 C 
ATOM     36  N   UNL     1      -3.938   4.734  -2.399  0.00  0.00    +0.384 N 
ATOM     37  H   UNL     1      -4.415   4.946  -1.515  0.00  0.00    -0.081 HD
BRANCH  29  38
ATOM     38  O   UNL     1      -1.104   2.082  -0.789  0.00  0.00    -0.491 OA
ATOM     39  C   UNL     1      -0.165   1.752  -1.814  0.00  0.00    +0.277 C 
ENDBRANCH  29  38
ENDBRANCH  22  23
ENDBRANCH   2  22
TORSDOF 7
