REMARK  Name = ZINC39746035
REMARK  8 active torsions:
REMARK  status: ('A' for Active; 'I' for Inactive)
REMARK    1  A    between atoms: C_4  and  C_7
REMARK    2  A    between atoms: C_7  and  N_8
REMARK    3  A    between atoms: C_9  and  S_17
REMARK    4  A    between atoms: C_13  and  C_14
REMARK    5  A    between atoms: S_17  and  C_18
REMARK    6  A    between atoms: C_18  and  C_20
REMARK    7  A    between atoms: C_18  and  C_26
REMARK    8  A    between atoms: C_26  and  C_28
REMARK                            x       y       z     vdW  Elec       q    Type
REMARK                         _______ _______ _______ _____ _____    ______ ____
ROOT
ATOM      1  C   UNL     1       2.710   1.389   3.484  0.00  0.00    +0.150 C 
ENDROOT
BRANCH   1   2
ATOM      2  C   UNL     1       1.761   0.358   2.931  0.00  0.00    -0.027 A 
ATOM      3  C   UNL     1       1.234   0.514   1.663  0.00  0.00    +0.005 A 
ATOM      4  C   UNL     1       0.363  -0.432   1.155  0.00  0.00    +0.000 A 
ATOM      5  C   UNL     1       0.019  -1.534   1.916  0.00  0.00    +0.000 A 
ATOM      6  C   UNL     1       0.547  -1.690   3.184  0.00  0.00    +0.000 A 
ATOM      7  C   UNL     1       1.421  -0.747   3.690  0.00  0.00    +0.005 A 
ENDBRANCH   1   2
BRANCH   1   8
ATOM      8  C   UNL     1       1.993   2.706   3.629  0.00  0.00    +0.179 C 
ATOM      9  O   UNL     1       2.064   3.537   2.746  0.00  0.00    -0.291 OA
BRANCH   8  10
ATOM     10  C   UNL     1       1.238   2.974   4.791  0.00  0.00    +0.024 C 
ATOM     11  C   UNL     1       0.521   4.122   5.076  0.00  0.00    +0.006 A 
ATOM     12  C   UNL     1       0.310   5.327   4.364  0.00  0.00    +0.010 A 
ATOM     13  C   UNL     1      -0.456   6.306   4.895  0.00  0.00    +0.001 A 
ATOM     14  C   UNL     1      -1.071   6.186   6.152  0.00  0.00    +0.002 A 
ATOM     15  C   UNL     1      -0.933   5.077   6.911  0.00  0.00    +0.026 A 
ATOM     16  C   UNL     1      -0.114   3.962   6.407  0.00  0.00    +0.043 A 
ATOM     17  N   UNL     1       0.183   2.801   6.918  0.00  0.00    -0.380 N 
ATOM     18  C   UNL     1       1.039   2.064   5.983  0.00  0.00    +0.152 C 
ATOM     19  H   UNL     1      -0.119   2.474   7.780  0.00  0.00    +0.160 HD
ENDBRANCH   8  10
ENDBRANCH   1   8
BRANCH   1  20
ATOM     20  S   UNL     1       4.115   1.587   2.353  0.00  0.00    -0.102 S 
BRANCH  20  22
ATOM     21  N   UNL     1       6.374   0.152   1.935  0.00  0.00    -0.285 N 
ATOM     22  C   UNL     1       5.020   0.021   2.500  0.00  0.00    +0.238 C 
ATOM     23  N   UNL     1       4.393  -1.022   1.670  0.00  0.00    -0.238 N 
ATOM     24  N   UNL     1       5.361  -1.408   0.734  0.00  0.00    -0.174 NA
ATOM     25  C   UNL     1       6.451  -0.750   0.884  0.00  0.00    +0.121 C 
ATOM     26  H   UNL     1       3.492  -1.371   1.755  0.00  0.00    +0.171 HD
BRANCH  25  27
ATOM     27  C   UNL     1       7.674  -0.938   0.024  0.00  0.00    +0.054 C 
ATOM     28  C   UNL     1       7.463  -1.054  -1.487  0.00  0.00    +0.012 C 
ATOM     29  C   UNL     1       7.847  -2.290  -0.672  0.00  0.00    +0.012 C 
ENDBRANCH  25  27
BRANCH  21  30
ATOM     30  C   UNL     1       7.429   1.061   2.389  0.00  0.00    +0.144 C 
BRANCH  30  34
ATOM     31  C   UNL     1       7.172   4.738   0.230  0.00  0.00    +0.000 A 
ATOM     32  C   UNL     1       6.577   4.623   1.472  0.00  0.00    +0.000 A 
ATOM     33  C   UNL     1       6.660   3.433   2.171  0.00  0.00    +0.005 A 
ATOM     34  C   UNL     1       7.338   2.358   1.627  0.00  0.00    -0.030 A 
ATOM     35  C   UNL     1       7.931   2.472   0.384  0.00  0.00    +0.005 A 
ATOM     36  C   UNL     1       7.849   3.663  -0.314  0.00  0.00    +0.000 A 
ENDBRANCH  30  34
ENDBRANCH  21  30
ENDBRANCH  20  22
ENDBRANCH   1  20
TORSDOF 8
