REMARK  Name = ZINC40933149
REMARK  8 active torsions:
REMARK  status: ('A' for Active; 'I' for Inactive)
REMARK    1  A    between atoms: C_1  and  C_2
REMARK    2  A    between atoms: C_2  and  N_3
REMARK    3  A    between atoms: C_4  and  C_18
REMARK    4  A    between atoms: C_5  and  N_17
REMARK    5  A    between atoms: N_8  and  C_9
REMARK    6  A    between atoms: C_18  and  C_19
REMARK    7  A    between atoms: C_18  and  C_20
REMARK    8  A    between atoms: C_18  and  C_21
REMARK                            x       y       z     vdW  Elec       q    Type
REMARK                         _______ _______ _______ _____ _____    ______ ____
ROOT
ATOM      1  N   UNL     1      -1.252  -0.110  -0.095  0.00  0.00    -0.279 N 
ATOM      2  C   UNL     1      -1.652  -0.951  -1.103  0.00  0.00    +0.068 A 
ATOM      3  C   UNL     1      -2.986  -1.139  -1.004  0.00  0.00    +0.113 A 
ATOM      4  C   UNL     1      -3.450  -0.361   0.145  0.00  0.00    +0.293 A 
ATOM      5  O   UNL     1      -4.595  -0.281   0.551  0.00  0.00    -0.264 OA
ATOM      6  N   UNL     1      -2.366   0.245   0.675  0.00  0.00    -0.213 N 
ENDROOT
BRANCH   6   7
ATOM      7  C   UNL     1      -2.359   1.084   1.796  0.00  0.00    +0.103 A 
ATOM      8  C   UNL     1      -2.652   2.434   1.655  0.00  0.00    +0.033 A 
ATOM      9  C   UNL     1      -2.644   3.261   2.762  0.00  0.00    +0.040 A 
ATOM     10  C   UNL     1      -2.344   2.745   4.011  0.00  0.00    +0.126 A 
ATOM     11  C   UNL     1      -2.052   1.399   4.156  0.00  0.00    +0.078 A 
ATOM     12  C   UNL     1      -2.064   0.567   3.052  0.00  0.00    +0.151 A 
ATOM     13  F   UNL     1      -1.784  -0.748   3.193  0.00  0.00    -0.203 F 
ATOM     14  F   UNL     1      -2.337   3.556   5.092  0.00  0.00    -0.205 F 
ENDBRANCH   6   7
BRANCH   2  15
ATOM     15  C   UNL     1      -0.753  -1.563  -2.146  0.00  0.00    +0.006 C 
ATOM     16  C   UNL     1      -1.604  -2.284  -3.193  0.00  0.00    +0.017 C 
ATOM     17  C   UNL     1       0.065  -0.462  -2.824  0.00  0.00    +0.017 C 
ATOM     18  C   UNL     1       0.193  -2.565  -1.480  0.00  0.00    +0.017 C 
ENDBRANCH   2  15
BRANCH   3  19
ATOM     19  N   UNL     1      -3.783  -1.937  -1.851  0.00  0.00    -0.352 N 
ATOM     20  H   UNL     1      -3.581  -1.991  -2.798  0.00  0.00    +0.143 HD
ATOM     21  H   UNL     1      -4.534  -2.431  -1.487  0.00  0.00    +0.143 HD
ENDBRANCH   3  19
BRANCH   1  23
ATOM     22  C   UNL     1       0.353   1.671  -0.575  0.00  0.00    +0.029 C 
ATOM     23  C   UNL     1       0.122   0.340   0.142  0.00  0.00    +0.139 C 
ENDBRANCH   1  23
TORSDOF 4
