REMARK  Name = ZINC32836179
REMARK  11 active torsions:
REMARK  status: ('A' for Active; 'I' for Inactive)
REMARK    1  A    between atoms: C_1  and  C_2
REMARK    2  A    between atoms: C_2  and  C_4
REMARK    3  A    between atoms: C_2  and  N_10
REMARK    4  A    between atoms: C_4  and  C_5
REMARK    5  A    between atoms: N_10  and  C_11
REMARK    6  A    between atoms: N_10  and  C_20
REMARK    7  A    between atoms: C_11  and  C_12
REMARK    8  A    between atoms: C_15  and  O_18
REMARK    9  A    between atoms: O_18  and  C_19
REMARK   10  A    between atoms: C_20  and  C_21
REMARK   11  A    between atoms: C_24  and  C_26
REMARK                            x       y       z     vdW  Elec       q    Type
REMARK                         _______ _______ _______ _____ _____    ______ ____
ROOT
ATOM      1  N   UNL     1      -1.604   5.487   2.199  0.00  0.00    +0.390 N 
ATOM      2  H   UNL     1      -1.570   6.305   1.465  0.00  0.00    -0.080 HD
ENDROOT
BRANCH   1   4
ATOM      3  C   UNL     1      -2.467   4.395   0.184  0.00  0.00    -0.013 C 
ATOM      4  C   UNL     1      -2.554   4.479   1.710  0.00  0.00    -0.066 C 
BRANCH   4   5
ATOM      5  C   UNL     1      -2.211   3.117   2.316  0.00  0.00    +0.027 C 
BRANCH   5   6
ATOM      6  C   UNL     1      -2.393   3.172   3.811  0.00  0.00    -0.012 A 
ATOM      7  C   UNL     1      -3.528   3.027   4.538  0.00  0.00    +0.011 A 
ATOM      8  C   UNL     1      -3.458   3.121   5.915  0.00  0.00    +0.008 A 
ATOM      9  C   UNL     1      -2.255   3.344   6.499  0.00  0.00    +0.045 A 
ATOM     10  S   UNL     1      -1.170   3.437   5.084  0.00  0.00    -0.102 S 
ENDBRANCH   5   6
ENDBRANCH   4   5
ENDBRANCH   1   4
BRANCH   1  11
ATOM     11  C   UNL     1      -2.048   6.050   3.482  0.00  0.00    -0.042 C 
BRANCH  11  12
ATOM     12  C   UNL     1      -3.165   7.032   3.240  0.00  0.00    -0.064 A 
ATOM     13  C   UNL     1      -2.872   8.342   2.910  0.00  0.00    +0.005 A 
ATOM     14  C   UNL     1      -3.895   9.243   2.682  0.00  0.00    +0.046 A 
ATOM     15  C   UNL     1      -5.216   8.834   2.795  0.00  0.00    +0.120 A 
ATOM     16  C   UNL     1      -5.506   7.520   3.131  0.00  0.00    +0.046 A 
ATOM     17  C   UNL     1      -4.481   6.622   3.353  0.00  0.00    +0.005 A 
BRANCH  15  18
ATOM     18  O   UNL     1      -6.223   9.720   2.576  0.00  0.00    -0.495 OA
ATOM     19  C   UNL     1      -5.849  11.056   2.234  0.00  0.00    +0.277 C 
ENDBRANCH  15  18
ENDBRANCH  11  12
ENDBRANCH   1  11
BRANCH   1  20
ATOM     20  C   UNL     1      -0.252   4.925   2.311  0.00  0.00    +0.021 C 
BRANCH  20  21
ATOM     21  C   UNL     1       0.347   4.780   0.936  0.00  0.00    +0.202 A 
ATOM     22  N   UNL     1       0.932   5.720   0.248  0.00  0.00    -0.114 NA
ATOM     23  N   UNL     1       1.327   5.245  -0.881  0.00  0.00    -0.107 NA
ATOM     24  C   UNL     1       0.998   3.977  -0.956  0.00  0.00    +0.249 A 
ATOM     25  O   UNL     1       0.370   3.659   0.194  0.00  0.00    -0.422 OA
BRANCH  24  26
ATOM     26  C   UNL     1       1.265   3.067  -2.090  0.00  0.00    +0.052 A 
ATOM     27  C   UNL     1       0.761   1.766  -2.078  0.00  0.00    +0.014 A 
ATOM     28  C   UNL     1       1.011   0.923  -3.141  0.00  0.00    +0.001 A 
ATOM     29  C   UNL     1       1.767   1.362  -4.214  0.00  0.00    +0.001 A 
ATOM     30  C   UNL     1       2.273   2.649  -4.231  0.00  0.00    +0.016 A 
ATOM     31  C   UNL     1       2.027   3.504  -3.175  0.00  0.00    +0.030 A 
ATOM     32 BR   UNL     1       2.721   5.263  -3.199  0.00  0.00    -0.050 Br
ENDBRANCH  24  26
ENDBRANCH  20  21
ENDBRANCH   1  20
TORSDOF 9
