REMARK  Name = ZINC36701745
REMARK  6 active torsions:
REMARK  status: ('A' for Active; 'I' for Inactive)
REMARK    1  A    between atoms: C_1  and  C_2
REMARK    2  A    between atoms: C_4  and  C_21
REMARK    3  A    between atoms: C_6  and  C_16
REMARK    4  A    between atoms: C_11  and  S_13
REMARK    5  A    between atoms: S_13  and  C_14
REMARK    6  A    between atoms: N_23  and  C_24
REMARK                            x       y       z     vdW  Elec       q    Type
REMARK                         _______ _______ _______ _____ _____    ______ ____
ROOT
ATOM      1  C   UNL     1      -1.246   0.479   0.639  0.00  0.00    +0.028 C 
ATOM      2  C   UNL     1      -1.305  -1.050   0.615  0.00  0.00    +0.084 C 
ATOM      3  C   UNL     1      -2.598  -1.504  -0.072  0.00  0.00    +0.125 C 
ATOM      4  C   UNL     1      -2.635  -3.035  -0.146  0.00  0.00    +0.161 C 
ATOM      5  N   UNL     1      -2.324  -3.579   1.176  0.00  0.00    -0.223 N 
ATOM      6  C   UNL     1      -1.706  -2.885   2.161  0.00  0.00    +0.215 A 
ATOM      7  N   UNL     1      -1.589  -3.668   3.200  0.00  0.00    -0.188 NA
ATOM      8  C   UNL     1      -2.118  -4.868   2.917  0.00  0.00    +0.210 A 
ATOM      9  N   UNL     1      -2.578  -4.853   1.685  0.00  0.00    -0.141 NA
ATOM     10  N   UNL     1      -1.295  -1.567   1.997  0.00  0.00    -0.310 N 
ATOM     11  H   UNL     1      -1.020  -1.018   2.748  0.00  0.00    +0.149 HD
ENDROOT
BRANCH   4  12
ATOM     12  C   UNL     1      -4.008  -3.488  -0.571  0.00  0.00    +0.015 A 
ATOM     13  C   UNL     1      -4.394  -4.065  -1.735  0.00  0.00    +0.013 A 
ATOM     14  C   UNL     1      -5.723  -4.401  -1.908  0.00  0.00    +0.008 A 
ATOM     15  C   UNL     1      -6.602  -4.144  -0.908  0.00  0.00    +0.045 A 
ATOM     16  S   UNL     1      -5.546  -3.411   0.331  0.00  0.00    -0.099 S 
ENDBRANCH   4  12
BRANCH   3  17
ATOM     17  C   UNL     1      -3.784  -1.013   0.718  0.00  0.00    +0.224 C 
ATOM     18  O   UNL     1      -3.928  -1.355   1.873  0.00  0.00    -0.275 OA
ATOM     19  N   UNL     1      -4.686  -0.195   0.141  0.00  0.00    -0.285 N 
ATOM     20  H   UNL     1      -4.537   0.134  -0.760  0.00  0.00    +0.155 HD
BRANCH  19  21
ATOM     21  C   UNL     1      -5.838   0.182   0.841  0.00  0.00    +0.033 A 
ATOM     22  C   UNL     1      -5.780   0.396   2.212  0.00  0.00    +0.023 A 
ATOM     23  C   UNL     1      -6.918   0.767   2.900  0.00  0.00    +0.002 A 
ATOM     24  C   UNL     1      -8.114   0.928   2.225  0.00  0.00    +0.000 A 
ATOM     25  C   UNL     1      -8.175   0.716   0.860  0.00  0.00    +0.002 A 
ATOM     26  C   UNL     1      -7.039   0.350   0.165  0.00  0.00    +0.023 A 
ENDBRANCH  19  21
ENDBRANCH   3  17
BRANCH   8  27
ATOM     27  S   UNL     1      -2.185  -6.242   4.019  0.00  0.00    -0.088 S 
ATOM     28  C   UNL     1      -1.398  -5.628   5.533  0.00  0.00    +0.093 C 
ENDBRANCH   8  27
TORSDOF 4
