REMARK  Name = ZINC63281278
REMARK  5 active torsions:
REMARK  status: ('A' for Active; 'I' for Inactive)
REMARK    1  A    between atoms: C_7  and  C_10
REMARK    2  A    between atoms: C_10  and  C_11
REMARK    3  A    between atoms: C_19  and  C_21
REMARK    4  A    between atoms: C_21  and  O_22
REMARK    5  A    between atoms: O_22  and  C_23
REMARK                            x       y       z     vdW  Elec       q    Type
REMARK                         _______ _______ _______ _____ _____    ______ ____
ROOT
ATOM      1  C   UNL     1       0.457  -3.653  -1.462  0.00  0.00    +0.179 C 
ATOM      2  N   UNL     1      -0.195  -2.580  -2.251  0.00  0.00    -0.232 NA
ATOM      3  N   UNL     1      -1.437  -3.156  -2.796  0.00  0.00    -0.224 NA
ATOM      4  C   UNL     1      -1.147  -4.604  -2.818  0.00  0.00    +0.240 C 
ATOM      5  N   UNL     1      -0.490  -4.792  -1.482  0.00  0.00    -0.208 N 
ATOM      6  N   UNL     1      -1.019  -5.830  -0.746  0.00  0.00    -0.175 NA
ATOM      7  C   UNL     1      -2.139  -6.405  -1.035  0.00  0.00    +0.132 C 
ATOM      8  S   UNL     1      -2.664  -5.601  -2.581  0.00  0.00    -0.064 S 
ATOM      9  H   UNL     1       0.410  -2.258  -2.991  0.00  0.00    +0.143 HD
ATOM     10  H   UNL     1      -2.223  -2.954  -2.197  0.00  0.00    +0.144 HD
ENDROOT
BRANCH   1  11
ATOM     11  C   UNL     1       0.691  -3.186  -0.024  0.00  0.00    +0.074 C 
BRANCH  11  18
ATOM     12  C   UNL     1      -0.016   1.348   0.009  0.00  0.00    +0.001 A 
ATOM     13  C   UNL     1       1.166   2.101   0.002  0.00  0.00    +0.002 A 
ATOM     14  C   UNL     1       2.391   1.535  -0.013  0.00  0.00    +0.026 A 
ATOM     15  C   UNL     1       2.529   0.120  -0.022  0.00  0.00    +0.043 A 
ATOM     16  N   UNL     1       3.587  -0.654  -0.037  0.00  0.00    -0.380 N 
ATOM     17  C   UNL     1       3.143  -2.053  -0.041  0.00  0.00    +0.144 C 
ATOM     18  C   UNL     1       1.631  -2.008  -0.025  0.00  0.00    -0.038 C 
ATOM     19  C   UNL     1       1.295  -0.698  -0.014  0.00  0.00    -0.001 A 
ATOM     20  C   UNL     1       0.002  -0.004   0.002  0.00  0.00    +0.010 A 
ATOM     21  H   UNL     1       4.509  -0.353  -0.045  0.00  0.00    +0.160 HD
ENDBRANCH  11  18
ENDBRANCH   1  11
BRANCH   7  22
ATOM     22  C   UNL     1      -2.845  -7.498  -0.275  0.00  0.00    +0.293 C 
BRANCH  22  23
ATOM     23  O   UNL     1      -2.079  -7.846   0.880  0.00  0.00    -0.485 OA
BRANCH  23  24
ATOM     24  C   UNL     1      -2.579  -8.823   1.682  0.00  0.00    +0.121 A 
ATOM     25  C   UNL     1      -3.779  -9.439   1.359  0.00  0.00    +0.048 A 
ATOM     26  C   UNL     1      -4.287 -10.432   2.174  0.00  0.00    +0.042 A 
ATOM     27  C   UNL     1      -3.598 -10.813   3.313  0.00  0.00    +0.124 A 
ATOM     28  C   UNL     1      -2.400 -10.199   3.637  0.00  0.00    +0.042 A 
ATOM     29  C   UNL     1      -1.887  -9.210   2.820  0.00  0.00    +0.048 A 
ATOM     30  F   UNL     1      -4.096 -11.784   4.109  0.00  0.00    -0.205 F 
ENDBRANCH  23  24
ENDBRANCH  22  23
ENDBRANCH   7  22
TORSDOF 5
