REMARK  Name = ZINC08793601
REMARK  9 active torsions:
REMARK  status: ('A' for Active; 'I' for Inactive)
REMARK    1  A    between atoms: C_1  and  C_2
REMARK    2  A    between atoms: C_2  and  C_3
REMARK    3  A    between atoms: C_3  and  C_5
REMARK    4  A    between atoms: C_3  and  S_6
REMARK    5  A    between atoms: S_6  and  C_7
REMARK    6  A    between atoms: C_10  and  C_19
REMARK    7  A    between atoms: N_11  and  C_12
REMARK    8  A    between atoms: C_19  and  N_20
REMARK    9  A    between atoms: C_21  and  C_23
REMARK                            x       y       z     vdW  Elec       q    Type
REMARK                         _______ _______ _______ _____ _____    ______ ____
ROOT
ATOM      1  C   UNL     1      -5.213   3.415   0.665  0.00  0.00    +0.196 A 
ATOM      2  N   UNL     1      -5.154   3.367  -0.646  0.00  0.00    -0.122 NA
ATOM      3  N   UNL     1      -4.207   2.580  -1.014  0.00  0.00    -0.132 NA
ATOM      4  C   UNL     1      -3.608   2.080   0.030  0.00  0.00    +0.156 A 
ATOM      5  N   UNL     1      -4.230   2.590   1.139  0.00  0.00    -0.273 N 
ENDROOT
BRANCH   5   6
ATOM      6  C   UNL     1      -3.923   2.323   2.481  0.00  0.00    +0.053 A 
ATOM      7  C   UNL     1      -3.448   3.338   3.301  0.00  0.00    +0.026 A 
ATOM      8  C   UNL     1      -3.145   3.074   4.622  0.00  0.00    +0.005 A 
ATOM      9  C   UNL     1      -3.314   1.800   5.131  0.00  0.00    +0.038 A 
ATOM     10  C   UNL     1      -3.788   0.784   4.317  0.00  0.00    +0.125 A 
ATOM     11  C   UNL     1      -4.098   1.045   2.994  0.00  0.00    +0.064 A 
ATOM     12  F   UNL     1      -3.953  -0.460   4.816  0.00  0.00    -0.205 F 
ENDBRANCH   5   6
BRANCH   1  13
ATOM     13  S   UNL     1      -6.347   4.357   1.629  0.00  0.00    -0.083 S 
BRANCH  13  14
ATOM     14  C   UNL     1      -7.298   5.151   0.310  0.00  0.00    +0.051 C 
ATOM     15  C   UNL     1      -6.388   6.095  -0.478  0.00  0.00    +0.019 C 
BRANCH  14  17
ATOM     16  C   UNL     1      -9.429   4.987   1.604  0.00  0.00    +0.005 C 
ATOM     17  C   UNL     1      -8.453   5.947   0.921  0.00  0.00    +0.011 C 
ENDBRANCH  14  17
ENDBRANCH  13  14
ENDBRANCH   1  13
BRANCH   4  18
ATOM     18  C   UNL     1      -2.449   1.117   0.020  0.00  0.00    +0.181 C 
BRANCH  18  19
ATOM     19  N   UNL     1      -1.191   1.867   0.018  0.00  0.00    -0.308 N 
ATOM     20  C   UNL     1      -0.014   1.209   0.009  0.00  0.00    +0.220 C 
ATOM     21  O   UNL     1       0.002  -0.004   0.002  0.00  0.00    -0.275 OA
ATOM     22  H   UNL     1      -1.204   2.837   0.023  0.00  0.00    +0.149 HD
BRANCH  20  23
ATOM     23  C   UNL     1       1.280   1.980   0.001  0.00  0.00    +0.048 C 
ATOM     24  C   UNL     1       1.337   2.867  -1.245  0.00  0.00    +0.019 C 
ATOM     25  C   UNL     1       2.652   3.650  -1.253  0.00  0.00    -0.009 C 
ATOM     26  C   UNL     1       3.828   2.672  -1.270  0.00  0.00    +0.007 C 
ATOM     27  C   UNL     1       3.771   1.784  -0.024  0.00  0.00    -0.009 C 
ATOM     28  C   UNL     1       2.457   1.002  -0.016  0.00  0.00    +0.019 C 
ATOM     29  C   UNL     1       3.852   2.658   1.229  0.00  0.00    +0.007 C 
ATOM     30  C   UNL     1       2.676   3.637   1.245  0.00  0.00    -0.009 C 
ATOM     31  C   UNL     1       2.733   4.524   0.000  0.00  0.00    +0.007 C 
ATOM     32  C   UNL     1       1.361   2.854   1.254  0.00  0.00    +0.019 C 
ENDBRANCH  20  23
ENDBRANCH  18  19
ENDBRANCH   4  18
TORSDOF 7
