REMARK  Name = ZINC45661385
REMARK  6 active torsions:
REMARK  status: ('A' for Active; 'I' for Inactive)
REMARK    1  A    between atoms: C_1  and  C_2
REMARK    2  A    between atoms: C_7  and  C_9
REMARK    3  A    between atoms: C_7  and  C_10
REMARK    4  A    between atoms: C_11  and  C_13
REMARK    5  A    between atoms: C_16  and  N_20
REMARK    6  A    between atoms: C_18  and  N_19
REMARK                            x       y       z     vdW  Elec       q    Type
REMARK                         _______ _______ _______ _____ _____    ______ ____
ROOT
ATOM      1  C   UNL     1      -2.959  -2.259  -1.656  0.00  0.00    +0.058 A 
ATOM      2  C   UNL     1      -3.977  -1.370  -1.296  0.00  0.00    +0.017 A 
ATOM      3  C   UNL     1      -4.802  -0.850  -2.251  0.00  0.00    +0.023 A 
ATOM      4  C   UNL     1      -4.639  -1.200  -3.591  0.00  0.00    +0.026 A 
ATOM      5  C   UNL     1      -3.634  -2.081  -3.966  0.00  0.00    +0.046 A 
ATOM      6  C   UNL     1      -2.786  -2.611  -3.006  0.00  0.00    +0.039 A 
ENDROOT
BRANCH   1  16
ATOM      7  C   UNL     1      -0.062   1.534   0.076  0.00  0.00    +0.039 C 
ATOM      8  C   UNL     1      -0.030   0.005   0.057  0.00  0.00    +0.133 C 
ATOM      9  C   UNL     1      -1.464  -0.537   0.042  0.00  0.00    +0.139 C 
ATOM     10  N   UNL     1      -1.410  -1.997   0.213  0.00  0.00    -0.292 N 
ATOM     11  C   UNL     1      -0.614  -2.534   1.329  0.00  0.00    +0.142 C 
ATOM     12  C   UNL     1       0.778  -1.895   1.281  0.00  0.00    +0.080 C 
ATOM     13  O   UNL     1       0.643  -0.473   1.225  0.00  0.00    -0.368 OA
ATOM     14  C   UNL     1       1.562  -2.284   2.536  0.00  0.00    +0.043 C 
ATOM     15  C   UNL     1       1.524  -2.386   0.039  0.00  0.00    +0.043 C 
ATOM     16  C   UNL     1      -2.069  -2.819  -0.627  0.00  0.00    +0.249 C 
ATOM     17  O   UNL     1      -1.929  -4.024  -0.534  0.00  0.00    -0.270 OA
ENDBRANCH   1  16
BRANCH   6  18
ATOM     18  N   UNL     1      -1.775  -3.489  -3.375  0.00  0.00    -0.357 N 
ATOM     19  H   UNL     1      -1.232  -3.918  -2.695  0.00  0.00    +0.142 HD
ATOM     20  H   UNL     1      -1.612  -3.675  -4.313  0.00  0.00    +0.142 HD
ENDBRANCH   6  18
BRANCH   4  21
ATOM     21  N   UNL     1      -5.486  -0.664  -4.554  0.00  0.00    -0.358 N 
ATOM     22  H   UNL     1      -6.189  -0.049  -4.294  0.00  0.00    +0.142 HD
ATOM     23  H   UNL     1      -5.375  -0.906  -5.487  0.00  0.00    +0.142 HD
ENDBRANCH   4  21
TORSDOF 3
