REMARK  Name = ZINC40982094
REMARK  14 active torsions:
REMARK  status: ('A' for Active; 'I' for Inactive)
REMARK    1  A    between atoms: C_1  and  C_2
REMARK    2  A    between atoms: C_2  and  C_3
REMARK    3  A    between atoms: C_3  and  S_4
REMARK    4  A    between atoms: S_4  and  C_5
REMARK    5  A    between atoms: C_10  and  C_22
REMARK    6  A    between atoms: C_12  and  C_16
REMARK    7  A    between atoms: C_13  and  C_15
REMARK    8  A    between atoms: C_16  and  O_18
REMARK    9  A    between atoms: O_18  and  C_19
REMARK   10  A    between atoms: C_19  and  C_20
REMARK   11  A    between atoms: C_19  and  C_21
REMARK   12  A    between atoms: C_26  and  O_28
REMARK   13  A    between atoms: O_28  and  C_29
REMARK   14  A    between atoms: C_29  and  C_30
REMARK                            x       y       z     vdW  Elec       q    Type
REMARK                         _______ _______ _______ _____ _____    ______ ____
ROOT
ATOM      1  C   UNL     1      -3.140  -2.839  -0.439  0.00  0.00    +0.210 A 
ATOM      2  N   UNL     1      -4.161  -1.972  -0.378  0.00  0.00    -0.187 NA
ATOM      3  C   UNL     1      -5.274  -2.623  -0.173  0.00  0.00    +0.219 A 
ATOM      4  N   UNL     1      -4.981  -3.944  -0.093  0.00  0.00    -0.220 N 
ATOM      5  N   UNL     1      -3.603  -4.059  -0.275  0.00  0.00    -0.141 NA
ATOM      6  C   UNL     1      -5.981  -4.981   0.141  0.00  0.00    +0.179 C 
ATOM      7  C   UNL     1      -7.359  -4.396  -0.024  0.00  0.00    +0.082 C 
ATOM      8  C   UNL     1      -7.588  -3.075  -0.102  0.00  0.00    +0.020 C 
ATOM      9  N   UNL     1      -6.574  -2.152  -0.047  0.00  0.00    -0.287 N 
ATOM     10  C   UNL     1      -9.007  -2.591  -0.255  0.00  0.00    +0.061 C 
ATOM     11  H   UNL     1      -6.758  -1.208   0.075  0.00  0.00    +0.155 HD
ENDROOT
BRANCH   6  12
ATOM     12  C   UNL     1      -5.829  -5.520   1.540  0.00  0.00    -0.015 A 
ATOM     13  C   UNL     1      -5.971  -4.675   2.625  0.00  0.00    +0.006 A 
ATOM     14  C   UNL     1      -5.832  -5.166   3.910  0.00  0.00    +0.004 A 
ATOM     15  C   UNL     1      -5.550  -6.503   4.113  0.00  0.00    +0.045 A 
ATOM     16  C   UNL     1      -5.408  -7.353   3.026  0.00  0.00    +0.121 A 
ATOM     17  C   UNL     1      -5.554  -6.859   1.738  0.00  0.00    +0.051 A 
BRANCH  16  18
ATOM     18  O   UNL     1      -5.131  -8.669   3.223  0.00  0.00    -0.487 OA
BRANCH  18  19
ATOM     19  C   UNL     1      -5.000  -9.109   4.577  0.00  0.00    +0.264 C 
BRANCH  19  20
ATOM     20  C   UNL     1      -4.695 -10.585   4.598  0.00  0.00    -0.010 A 
ATOM     21  C   UNL     1      -5.728 -11.503   4.637  0.00  0.00    +0.008 A 
ATOM     22  C   UNL     1      -5.449 -12.856   4.657  0.00  0.00    +0.020 A 
ATOM     23  C   UNL     1      -4.137 -13.293   4.637  0.00  0.00    +0.041 A 
ATOM     24  C   UNL     1      -3.103 -12.373   4.598  0.00  0.00    +0.020 A 
ATOM     25  C   UNL     1      -3.383 -11.020   4.572  0.00  0.00    +0.008 A 
ATOM     26 CL   UNL     1      -3.786 -14.993   4.662  0.00  0.00    -0.084 Cl
ENDBRANCH  19  20
ENDBRANCH  18  19
ENDBRANCH  16  18
ENDBRANCH   6  12
BRANCH   7  27
ATOM     27  C   UNL     1      -8.460  -5.276  -0.101  0.00  0.00    +0.339 C 
ATOM     28  O   UNL     1      -8.655  -5.920  -1.116  0.00  0.00    -0.245 OA
BRANCH  27  29
ATOM     29  O   UNL     1      -9.297  -5.404   0.950  0.00  0.00    -0.459 OA
BRANCH  29  30
ATOM     30  C   UNL     1     -10.390  -6.313   0.803  0.00  0.00    +0.171 C 
ATOM     31  C   UNL     1      -9.962  -7.705   1.271  0.00  0.00    +0.052 C 
ATOM     32  C   UNL     1     -11.571  -5.831   1.647  0.00  0.00    +0.052 C 
ENDBRANCH  29  30
ENDBRANCH  27  29
ENDBRANCH   7  27
BRANCH   1  33
ATOM     33  S   UNL     1      -1.451  -2.412  -0.703  0.00  0.00    -0.084 S 
BRANCH  33  34
ATOM     34  C   UNL     1      -1.472  -0.605  -0.850  0.00  0.00    +0.077 C 
BRANCH  34  36
ATOM     35  C   UNL     1      -0.067   1.430  -1.209  0.00  0.00    +0.004 C 
ATOM     36  C   UNL     1      -0.049  -0.095  -1.085  0.00  0.00    +0.008 C 
ENDBRANCH  34  36
ENDBRANCH  33  34
ENDBRANCH   1  33
TORSDOF 10
