REMARK  Name = ZINC63376007
REMARK  8 active torsions:
REMARK  status: ('A' for Active; 'I' for Inactive)
REMARK    1  A    between atoms: C_1  and  C_2
REMARK    2  A    between atoms: C_2  and  C_3
REMARK    3  A    between atoms: C_3  and  C_4
REMARK    4  A    between atoms: C_4  and  C_5
REMARK    5  A    between atoms: C_5  and  C_6
REMARK    6  A    between atoms: C_6  and  N_7
REMARK    7  A    between atoms: C_8  and  O_32
REMARK    8  A    between atoms: C_10  and  C_17
REMARK                            x       y       z     vdW  Elec       q    Type
REMARK                         _______ _______ _______ _____ _____    ______ ____
ROOT
ATOM      1  N   UNL     1      -4.194  -4.614   0.030  0.00  0.00    -0.286 N 
ATOM      2  C   UNL     1      -4.865  -4.863   1.307  0.00  0.00    +0.217 C 
ATOM      3  C   UNL     1      -6.353  -4.527   1.177  0.00  0.00    +0.141 C 
ATOM      4  C   UNL     1      -6.891  -5.141  -0.091  0.00  0.00    +0.227 C 
ATOM      5  O   UNL     1      -8.030  -5.555  -0.129  0.00  0.00    -0.275 OA
ATOM      6  N   UNL     1      -6.106  -5.228  -1.181  0.00  0.00    -0.267 N 
ATOM      7  C   UNL     1      -4.817  -4.852  -1.136  0.00  0.00    +0.141 C 
ATOM      8  S   UNL     1      -3.947  -4.679  -2.599  0.00  0.00    -0.018 S 
ATOM      9  H   UNL     1      -6.478  -5.564  -2.011  0.00  0.00    +0.157 HD
ENDROOT
BRANCH   3  10
ATOM     10  C   UNL     1      -7.111  -5.090   2.381  0.00  0.00    +0.096 C 
ATOM     11  C   UNL     1      -6.531  -4.511   3.673  0.00  0.00    +0.124 C 
ATOM     12  C   UNL     1      -7.220  -5.246   4.817  0.00  0.00    -0.036 C 
ATOM     13  C   UNL     1      -7.738  -4.314   5.604  0.00  0.00    -0.001 A 
ATOM     14  C   UNL     1      -8.439  -4.398   6.896  0.00  0.00    +0.010 A 
ATOM     15  C   UNL     1      -8.856  -3.220   7.429  0.00  0.00    +0.001 A 
ATOM     16  C   UNL     1      -8.649  -1.981   6.815  0.00  0.00    +0.002 A 
ATOM     17  C   UNL     1      -8.009  -1.809   5.631  0.00  0.00    +0.026 A 
ATOM     18  C   UNL     1      -7.519  -2.975   4.975  0.00  0.00    +0.043 A 
ATOM     19  N   UNL     1      -6.848  -3.094   3.846  0.00  0.00    -0.376 N 
ATOM     20  C   UNL     1      -7.303  -6.753   4.853  0.00  0.00    +0.048 C 
ATOM     21  C   UNL     1      -7.779  -7.191   3.456  0.00  0.00    +0.085 C 
ATOM     22  N   UNL     1      -6.961  -6.554   2.421  0.00  0.00    -0.310 NA
ATOM     23  H   UNL     1      -7.141  -6.961   1.515  0.00  0.00    +0.122 HD
ATOM     24  H   UNL     1      -6.608  -2.380   3.234  0.00  0.00    +0.160 HD
ENDBRANCH   3  10
BRANCH   2  25
ATOM     25  O   UNL     1      -4.717  -6.239   1.662  0.00  0.00    -0.373 OA
ATOM     26  H   UNL     1      -3.798  -6.523   1.762  0.00  0.00    +0.212 HD
ENDBRANCH   2  25
BRANCH   1  27
ATOM     27  C   UNL     1      -2.826  -4.091   0.023  0.00  0.00    +0.109 C 
BRANCH  27  28
ATOM     28  C   UNL     1      -2.864  -2.561   0.020  0.00  0.00    +0.019 C 
BRANCH  28  29
ATOM     29  C   UNL     1      -1.435  -2.015   0.013  0.00  0.00    +0.002 C 
BRANCH  29  30
ATOM     30  C   UNL     1      -1.474  -0.485   0.010  0.00  0.00    -0.000 C 
BRANCH  30  32
ATOM     31  C   UNL     1      -0.083   1.590   0.000  0.00  0.00    +0.004 C 
ATOM     32  C   UNL     1      -0.044   0.061   0.003  0.00  0.00    -0.003 C 
ENDBRANCH  30  32
ENDBRANCH  29  30
ENDBRANCH  28  29
ENDBRANCH  27  28
ENDBRANCH   1  27
TORSDOF 7
