REMARK  Name = ZINC23617823
REMARK  6 active torsions:
REMARK  status: ('A' for Active; 'I' for Inactive)
REMARK    1  A    between atoms: C_1  and  C_2
REMARK    2  A    between atoms: C_5  and  C_8
REMARK    3  A    between atoms: C_13  and  N_17
REMARK    4  A    between atoms: N_17  and  C_18
REMARK    5  A    between atoms: C_18  and  C_19
REMARK    6  A    between atoms: N_28  and  C_31
REMARK                            x       y       z     vdW  Elec       q    Type
REMARK                         _______ _______ _______ _____ _____    ______ ____
ROOT
ATOM      1  N   UNL     1       0.003  -0.005   0.015  0.00  0.00    -0.324 N 
ATOM      2  H   UNL     1       0.951  -0.525  -0.185  0.00  0.00    +0.148 HD
ENDROOT
BRANCH   1   8
ATOM      3  C   UNL     1      -0.054  -3.046  -0.241  0.00  0.00    +0.002 A 
ATOM      4  C   UNL     1      -0.304  -4.373  -0.340  0.00  0.00    +0.056 A 
ATOM      5  S   UNL     1      -2.082  -4.470  -0.248  0.00  0.00    -0.076 S 
ATOM      6  C   UNL     1      -2.449  -2.743  -0.080  0.00  0.00    +0.114 A 
ATOM      7  C   UNL     1      -1.180  -2.128  -0.099  0.00  0.00    +0.055 A 
ATOM      8  C   UNL     1      -1.186  -0.713   0.021  0.00  0.00    +0.131 A 
ATOM      9  N   UNL     1      -2.342  -0.080   0.145  0.00  0.00    -0.220 NA
ATOM     10  C   UNL     1      -3.496  -0.721   0.151  0.00  0.00    +0.224 A 
ATOM     11  N   UNL     1      -3.554  -2.034   0.043  0.00  0.00    -0.228 NA
BRANCH   3  16
ATOM     12  C   UNL     1       5.349  -1.062  -0.374  0.00  0.00    +0.044 C 
ATOM     13  C   UNL     1       3.935  -1.581  -0.340  0.00  0.00    -0.050 A 
ATOM     14  C   UNL     1       3.140  -1.341   0.767  0.00  0.00    +0.004 A 
ATOM     15  C   UNL     1       1.844  -1.814   0.804  0.00  0.00    +0.009 A 
ATOM     16  C   UNL     1       1.337  -2.535  -0.276  0.00  0.00    -0.017 A 
ATOM     17  C   UNL     1       2.144  -2.778  -1.386  0.00  0.00    +0.009 A 
ATOM     18  C   UNL     1       3.437  -2.296  -1.414  0.00  0.00    +0.004 A 
ENDBRANCH   3  16
ENDBRANCH   1   8
BRANCH   1  19
ATOM     19  C   UNL     1      -0.002   1.437   0.275  0.00  0.00    +0.139 C 
BRANCH  19  20
ATOM     20  C   UNL     1       1.409   1.963   0.211  0.00  0.00    -0.014 A 
ATOM     21  C   UNL     1       1.933   2.419  -0.992  0.00  0.00    +0.010 A 
ATOM     22  C   UNL     1       3.232   2.895  -1.007  0.00  0.00    +0.042 A 
ATOM     23  C   UNL     1       3.965   2.900   0.176  0.00  0.00    +0.099 A 
ATOM     24  N   UNL     1       3.429   2.457   1.302  0.00  0.00    -0.349 N 
ATOM     25  C   UNL     1       2.190   2.003   1.348  0.00  0.00    +0.089 A 
ATOM     26  N   UNL     1       5.271   3.376   0.175  0.00  0.00    -0.314 N 
ATOM     27  C   UNL     1       6.094   2.652  -0.804  0.00  0.00    +0.122 C 
ATOM     28  C   UNL     1       7.500   3.256  -0.831  0.00  0.00    +0.103 C 
ATOM     29  N   UNL     1       8.091   3.175   0.512  0.00  0.00    -0.302 NA
ATOM     30  C   UNL     1       7.268   3.899   1.491  0.00  0.00    +0.103 C 
ATOM     31  C   UNL     1       5.862   3.295   1.518  0.00  0.00    +0.122 C 
ATOM     32  C   UNL     1       9.471   3.677   0.511  0.00  0.00    +0.105 C 
ATOM     33  H   UNL     1       4.018   2.461   2.231  0.00  0.00    +0.167 HD
ENDBRANCH  19  20
ENDBRANCH   1  19
TORSDOF 4
