REMARK  Name = ZINC39634438
REMARK  7 active torsions:
REMARK  status: ('A' for Active; 'I' for Inactive)
REMARK    1  A    between atoms: C_1  and  C_2
REMARK    2  A    between atoms: C_5  and  C_8
REMARK    3  A    between atoms: C_8  and  N_9
REMARK    4  A    between atoms: C_10  and  C_12
REMARK    5  A    between atoms: C_23  and  C_25
REMARK    6  A    between atoms: C_32  and  C_36
REMARK    7  A    between atoms: N_34  and  C_35
REMARK                            x       y       z     vdW  Elec       q    Type
REMARK                         _______ _______ _______ _____ _____    ______ ____
ROOT
ATOM      1  C   UNL     1       3.139  -6.545  -0.050  0.00  0.00    +0.100 C 
ATOM      2  C   UNL     1       3.906  -6.003   1.176  0.00  0.00    +0.121 C 
ATOM      3  N   UNL     1       3.804  -7.081   2.188  0.00  0.00    -0.296 N 
ATOM      4  C   UNL     1       3.955  -8.333   1.409  0.00  0.00    +0.115 C 
ATOM      5  C   UNL     1       3.176  -8.075   0.104  0.00  0.00    -0.004 C 
ATOM      6  C   UNL     1       1.759  -8.629   0.218  0.00  0.00    -0.010 C 
ATOM      7  C   UNL     1       1.820 -10.156   0.314  0.00  0.00    -0.082 C 
ATOM      8  N   UNL     1       2.484 -10.697  -0.878  0.00  0.00    +0.379 N 
ATOM      9  C   UNL     1       3.875 -10.232  -0.930  0.00  0.00    -0.082 C 
ATOM     10  C   UNL     1       3.901  -8.708  -1.078  0.00  0.00    -0.010 C 
ATOM     11  C   UNL     1       3.615  -6.952   3.517  0.00  0.00    +0.250 C 
ATOM     12  O   UNL     1       3.411  -5.854   3.998  0.00  0.00    -0.270 OA
ATOM     13  H   UNL     1       2.468 -11.705  -0.842  0.00  0.00    -0.086 HD
ATOM     14  H   UNL     1       1.995 -10.385  -1.704  0.00  0.00    -0.086 HD
ENDROOT
BRANCH  11  15
ATOM     15  C   UNL     1       3.657  -8.143   4.387  0.00  0.00    +0.074 A 
ATOM     16  C   UNL     1       4.536  -9.198   4.105  0.00  0.00    +0.127 A 
ATOM     17  N   UNL     1       4.589 -10.265   4.866  0.00  0.00    -0.235 NA
ATOM     18  C   UNL     1       3.816 -10.402   5.939  0.00  0.00    +0.160 A 
ATOM     19  C   UNL     1       2.905  -9.386   6.292  0.00  0.00    +0.060 A 
ATOM     20  C   UNL     1       2.825  -8.232   5.506  0.00  0.00    +0.067 A 
ATOM     21 CL   UNL     1       1.723  -6.951   5.905  0.00  0.00    -0.082 Cl
ATOM     22  C   UNL     1       2.223  -9.842   7.498  0.00  0.00    +0.071 A 
ATOM     23  N   UNL     1       2.704 -11.013   7.803  0.00  0.00    -0.174 NA
ATOM     24  N   UNL     1       3.679 -11.389   6.874  0.00  0.00    -0.249 N 
ATOM     25  C   UNL     1       4.435 -12.643   6.900  0.00  0.00    +0.174 C 
ATOM     26  C   UNL     1       1.156  -9.094   8.255  0.00  0.00    +0.068 C 
ENDBRANCH  11  15
BRANCH   1  28
ATOM     27  N   UNL     1       1.060  -5.854  -1.200  0.00  0.00    -0.311 N 
ATOM     28  C   UNL     1       1.715  -6.051  -0.039  0.00  0.00    +0.218 C 
ATOM     29  O   UNL     1       1.158  -5.830   1.016  0.00  0.00    -0.275 OA
ATOM     30  H   UNL     1       1.506  -6.030  -2.044  0.00  0.00    +0.149 HD
BRANCH  27  31
ATOM     31  C   UNL     1      -0.324  -5.374  -1.189  0.00  0.00    +0.139 C 
BRANCH  31  36
ATOM     32  C   UNL     1      -2.230  -4.854  -6.620  0.00  0.00    +0.044 C 
ATOM     33  C   UNL     1      -1.732  -4.989  -5.203  0.00  0.00    -0.050 A 
ATOM     34  C   UNL     1      -1.896  -6.183  -4.525  0.00  0.00    +0.003 A 
ATOM     35  C   UNL     1      -1.440  -6.307  -3.226  0.00  0.00    +0.005 A 
ATOM     36  C   UNL     1      -0.820  -5.239  -2.606  0.00  0.00    -0.030 A 
ATOM     37  C   UNL     1      -0.656  -4.045  -3.284  0.00  0.00    +0.005 A 
ATOM     38  C   UNL     1      -1.108  -3.922  -4.585  0.00  0.00    +0.003 A 
ENDBRANCH  31  36
ENDBRANCH  27  31
ENDBRANCH   1  28
TORSDOF 4
