REMARK  Name = ZINC39664170
REMARK  10 active torsions:
REMARK  status: ('A' for Active; 'I' for Inactive)
REMARK    1  A    between atoms: C_1  and  C_2
REMARK    2  A    between atoms: C_5  and  C_9
REMARK    3  A    between atoms: C_6  and  C_8
REMARK    4  A    between atoms: C_13  and  C_22
REMARK    5  A    between atoms: N_24  and  C_25
REMARK    6  A    between atoms: C_25  and  C_26
REMARK    7  A    between atoms: C_26  and  C_28
REMARK    8  A    between atoms: C_26  and  N_36
REMARK    9  A    between atoms: C_31  and  O_34
REMARK   10  A    between atoms: O_34  and  C_35
REMARK                            x       y       z     vdW  Elec       q    Type
REMARK                         _______ _______ _______ _____ _____    ______ ____
ROOT
ATOM      1  C   UNL     1       0.240  -4.820  -0.208  0.00  0.00    +0.247 C 
ATOM      2  O   UNL     1       0.369  -3.652   0.104  0.00  0.00    -0.270 OA
ATOM      3  N   UNL     1       0.145  -5.163  -1.508  0.00  0.00    -0.296 N 
ATOM      4  C   UNL     1       0.282  -4.283  -2.692  0.00  0.00    +0.121 C 
ATOM      5  C   UNL     1       1.062  -5.132  -3.721  0.00  0.00    +0.100 C 
ATOM      6  C   UNL     1       0.791  -6.590  -3.313  0.00  0.00    -0.004 C 
ATOM      7  C   UNL     1      -0.116  -6.508  -2.076  0.00  0.00    +0.115 C 
ATOM      8  C   UNL     1       0.081  -7.332  -4.441  0.00  0.00    -0.010 C 
ATOM      9  C   UNL     1      -0.126  -8.793  -4.034  0.00  0.00    -0.082 C 
ATOM     10  N   UNL     1       1.175  -9.414  -3.756  0.00  0.00    +0.379 N 
ATOM     11  C   UNL     1       1.810  -8.754  -2.609  0.00  0.00    -0.082 C 
ATOM     12  C   UNL     1       2.098  -7.290  -2.955  0.00  0.00    -0.010 C 
ATOM     13  H   UNL     1       1.041 -10.393  -3.547  0.00  0.00    -0.086 HD
ATOM     14  H   UNL     1       1.770  -9.324  -4.566  0.00  0.00    -0.086 HD
ENDROOT
BRANCH   1  19
ATOM     15  C   UNL     1       0.041  -8.883   3.862  0.00  0.00    +0.044 C 
ATOM     16  C   UNL     1       0.093  -7.819   2.796  0.00  0.00    -0.050 A 
ATOM     17  C   UNL     1      -0.765  -7.887   1.712  0.00  0.00    +0.004 A 
ATOM     18  C   UNL     1      -0.722  -6.916   0.734  0.00  0.00    +0.013 A 
ATOM     19  C   UNL     1       0.189  -5.864   0.838  0.00  0.00    +0.040 A 
ATOM     20  C   UNL     1       1.051  -5.802   1.933  0.00  0.00    -0.038 A 
ATOM     21  C   UNL     1       0.995  -6.776   2.908  0.00  0.00    +0.007 A 
ATOM     22  C   UNL     1       2.038  -4.669   2.054  0.00  0.00    +0.044 C 
ENDBRANCH   1  19
BRANCH   5  23
ATOM     23  C   UNL     1       2.536  -4.829  -3.643  0.00  0.00    +0.218 C 
ATOM     24  O   UNL     1       3.024  -4.459  -2.596  0.00  0.00    -0.275 OA
ATOM     25  N   UNL     1       3.311  -4.967  -4.737  0.00  0.00    -0.316 N 
ATOM     26  H   UNL     1       2.910  -5.193  -5.590  0.00  0.00    +0.149 HD
BRANCH  25  27
ATOM     27  C   UNL     1       4.760  -4.777  -4.636  0.00  0.00    +0.093 C 
BRANCH  27  28
ATOM     28  C   UNL     1       5.388  -4.895  -6.026  0.00  0.00    -0.020 C 
BRANCH  28  29
ATOM     29  C   UNL     1       5.193  -6.295  -6.548  0.00  0.00    -0.059 A 
ATOM     30  C   UNL     1       6.023  -7.314  -6.118  0.00  0.00    +0.005 A 
ATOM     31  C   UNL     1       5.847  -8.598  -6.595  0.00  0.00    +0.046 A 
ATOM     32  C   UNL     1       4.835  -8.866  -7.506  0.00  0.00    +0.120 A 
ATOM     33  C   UNL     1       4.003  -7.843  -7.935  0.00  0.00    +0.046 A 
ATOM     34  C   UNL     1       4.181  -6.561  -7.452  0.00  0.00    +0.005 A 
BRANCH  32  35
ATOM     35  O   UNL     1       4.660 -10.129  -7.977  0.00  0.00    -0.495 OA
ATOM     36  C   UNL     1       3.599 -10.331  -8.912  0.00  0.00    +0.277 C 
ENDBRANCH  32  35
ENDBRANCH  28  29
BRANCH  28  37
ATOM     37  N   UNL     1       6.824  -4.600  -5.942  0.00  0.00    +0.385 N 
ATOM     38  C   UNL     1       7.455  -4.737  -7.280  0.00  0.00    -0.078 C 
ATOM     39  C   UNL     1       8.742  -3.884  -7.154  0.00  0.00    -0.020 C 
ATOM     40  C   UNL     1       8.282  -2.689  -6.288  0.00  0.00    -0.020 C 
ATOM     41  C   UNL     1       7.033  -3.191  -5.541  0.00  0.00    -0.078 C 
ATOM     42  H   UNL     1       7.269  -5.219  -5.281  0.00  0.00    -0.081 HD
ENDBRANCH  28  37
ENDBRANCH  27  28
ENDBRANCH  25  27
ENDBRANCH   5  23
TORSDOF 7
