REMARK  Name = ZINC00626302
REMARK  13 active torsions:
REMARK  status: ('A' for Active; 'I' for Inactive)
REMARK    1  A    between atoms: C_1  and  C_2
REMARK    2  A    between atoms: C_2  and  O_3
REMARK    3  A    between atoms: O_3  and  C_4
REMARK    4  A    between atoms: C_4  and  C_6
REMARK    5  A    between atoms: C_7  and  C_21
REMARK    6  A    between atoms: N_8  and  C_20
REMARK    7  A    between atoms: C_11  and  C_17
REMARK    8  A    between atoms: C_12  and  O_16
REMARK    9  A    between atoms: C_17  and  N_54
REMARK   10  A    between atoms: C_18  and  N_54
REMARK   11  A    between atoms: C_19  and  N_54
REMARK   12  A    between atoms: C_21  and  S_22
REMARK   13  A    between atoms: S_22  and  C_23
REMARK                            x       y       z     vdW  Elec       q    Type
REMARK                         _______ _______ _______ _____ _____    ______ ____
ROOT
ATOM      1  C   UNL     1       4.068   2.826   2.227  0.00  0.00    +0.088 A 
ATOM      2  C   UNL     1       5.158   3.336   1.584  0.00  0.00    +0.044 A 
ATOM      3  N   UNL     1       4.975   3.264   0.244  0.00  0.00    -0.345 N 
ATOM      4  C   UNL     1       3.748   2.700  -0.045  0.00  0.00    +0.051 A 
ATOM      5  C   UNL     1       3.124   2.400   1.177  0.00  0.00    +0.019 A 
ATOM      6  C   UNL     1       1.858   1.821   1.192  0.00  0.00    -0.011 A 
ATOM      7  C   UNL     1       1.224   1.533  -0.001  0.00  0.00    +0.133 A 
ATOM      8  C   UNL     1       1.842   1.830  -1.212  0.00  0.00    +0.061 A 
ATOM      9  C   UNL     1       3.093   2.408  -1.237  0.00  0.00    +0.045 A 
ATOM     10 BR   UNL     1       0.959   1.438  -2.838  0.00  0.00    -0.046 Br
ATOM     11  C   UNL     1       5.942   3.720  -0.757  0.00  0.00    +0.149 C 
ENDROOT
BRANCH   1  12
ATOM     12  C   UNL     1       3.873   2.723   3.678  0.00  0.00    +0.342 C 
ATOM     13  O   UNL     1       3.350   3.636   4.287  0.00  0.00    -0.245 OA
BRANCH  12  14
ATOM     14  O   UNL     1       4.273   1.615   4.335  0.00  0.00    -0.461 OA
BRANCH  14  16
ATOM     15  C   UNL     1       4.563   0.258   6.335  0.00  0.00    +0.048 C 
ATOM     16  C   UNL     1       4.048   1.582   5.769  0.00  0.00    +0.229 C 
ENDBRANCH  14  16
ENDBRANCH  12  14
ENDBRANCH   1  12
BRANCH   7  17
ATOM     17  O   UNL     1      -0.011   0.963   0.007  0.00  0.00    -0.505 OA
ATOM     18  H   UNL     1       0.002  -0.004   0.002  0.00  0.00    +0.292 HD
ENDBRANCH   7  17
BRANCH   6  19
ATOM     19  C   UNL     1       1.186   1.504   2.503  0.00  0.00    -0.039 C 
BRANCH  19  22
ATOM     20  C   UNL     1       1.110  -0.116   4.301  0.00  0.00    -0.096 C 
ATOM     21  C   UNL     1       1.000  -0.857   1.999  0.00  0.00    -0.096 C 
ATOM     22  N   UNL     1       1.577   0.142   2.923  0.00  0.00    +0.379 N 
ATOM     23  H   UNL     1       2.601   0.066   2.898  0.00  0.00    -0.082 HD
ENDBRANCH  19  22
ENDBRANCH   6  19
BRANCH   2  24
ATOM     24  C   UNL     1       6.382   3.895   2.263  0.00  0.00    +0.128 C 
BRANCH  24  25
ATOM     25  S   UNL     1       6.156   5.672   2.550  0.00  0.00    -0.119 S 
BRANCH  25  26
ATOM     26  C   UNL     1       7.651   6.170   3.339  0.00  0.00    +0.008 A 
ATOM     27  C   UNL     1       8.648   5.236   3.593  0.00  0.00    +0.016 A 
ATOM     28  C   UNL     1       9.821   5.631   4.207  0.00  0.00    +0.021 A 
ATOM     29  C   UNL     1       9.999   6.952   4.578  0.00  0.00    +0.041 A 
ATOM     30  C   UNL     1       9.005   7.883   4.331  0.00  0.00    +0.021 A 
ATOM     31  C   UNL     1       7.832   7.496   3.712  0.00  0.00    +0.016 A 
ATOM     32 CL   UNL     1      11.472   7.443   5.354  0.00  0.00    -0.084 Cl
ENDBRANCH  25  26
ENDBRANCH  24  25
ENDBRANCH   2  24
TORSDOF 9
