REMARK  Name = ZINC14649181
REMARK  10 active torsions:
REMARK  status: ('A' for Active; 'I' for Inactive)
REMARK    1  A    between atoms: C_1  and  C_2
REMARK    2  A    between atoms: C_2  and  C_3
REMARK    3  A    between atoms: C_3  and  C_4
REMARK    4  A    between atoms: C_4  and  O_5
REMARK    5  A    between atoms: O_5  and  C_6
REMARK    6  A    between atoms: C_11  and  C_12
REMARK    7  A    between atoms: N_14  and  C_15
REMARK    8  A    between atoms: C_18  and  S_21
REMARK    9  A    between atoms: S_21  and  N_24
REMARK   10  A    between atoms: N_24  and  C_25
REMARK                            x       y       z     vdW  Elec       q    Type
REMARK                         _______ _______ _______ _____ _____    ______ ____
ROOT
ATOM      1  C   UNL     1       0.034  -2.771  -0.016  0.00  0.00    +0.034 A 
ATOM      2  C   UNL     1       0.210  -2.076   1.174  0.00  0.00    +0.025 A 
ATOM      3  C   UNL     1       0.185  -0.695   1.176  0.00  0.00    +0.030 A 
ATOM      4  C   UNL     1      -0.014  -0.004  -0.005  0.00  0.00    +0.105 A 
ATOM      5  C   UNL     1      -0.196  -0.693  -1.191  0.00  0.00    +0.030 A 
ATOM      6  C   UNL     1      -0.166  -2.074  -1.200  0.00  0.00    +0.025 A 
ENDROOT
BRANCH   1   9
ATOM      7  C   UNL     1       0.551  -4.830  -1.087  0.00  0.00    +0.252 C 
ATOM      8  O   UNL     1       1.061  -4.214  -2.003  0.00  0.00    -0.270 OA
ATOM      9  N   UNL     1       0.059  -4.169  -0.021  0.00  0.00    -0.281 N 
ATOM     10  H   UNL     1      -0.278  -4.663   0.743  0.00  0.00    +0.155 HD
BRANCH   7  16
ATOM     11  C   UNL     1       0.982  -6.994  -2.250  0.00  0.00    +0.133 A 
ATOM     12  C   UNL     1       0.902  -8.378  -2.293  0.00  0.00    +0.047 A 
ATOM     13  C   UNL     1       0.322  -9.070  -1.249  0.00  0.00    +0.019 A 
ATOM     14  C   UNL     1      -0.184  -8.390  -0.152  0.00  0.00    +0.019 A 
ATOM     15  C   UNL     1      -0.109  -7.015  -0.091  0.00  0.00    +0.032 A 
ATOM     16  C   UNL     1       0.471  -6.302  -1.143  0.00  0.00    +0.080 A 
ATOM     17 BR   UNL     1      -0.975  -9.354   1.270  0.00  0.00    -0.050 Br
BRANCH  11  18
ATOM     18  O   UNL     1       1.552  -6.312  -3.276  0.00  0.00    -0.491 OA
BRANCH  18  19
ATOM     19  C   UNL     1       2.051  -7.084  -4.370  0.00  0.00    +0.229 C 
BRANCH  19  20
ATOM     20  C   UNL     1       2.653  -6.150  -5.421  0.00  0.00    +0.041 C 
BRANCH  20  22
ATOM     21  C   UNL     1       3.789  -6.042  -7.644  0.00  0.00    +0.004 C 
ATOM     22  C   UNL     1       3.187  -6.976  -6.593  0.00  0.00    -0.000 C 
ENDBRANCH  20  22
ENDBRANCH  19  20
ENDBRANCH  18  19
ENDBRANCH  11  18
ENDBRANCH   7  16
ENDBRANCH   1   9
BRANCH   4  23
ATOM     23  S   UNL     1      -0.045   1.757   0.001  0.00  0.00    +0.059 S 
ATOM     24  O   UNL     1      -0.791   2.155  -1.141  0.00  0.00    -0.153 OA
ATOM     25  O   UNL     1      -0.401   2.153   1.319  0.00  0.00    -0.153 OA
BRANCH  23  26
ATOM     26  N   UNL     1       1.508   2.275  -0.245  0.00  0.00    -0.187 NA
ATOM     27  H   UNL     1       1.973   2.763   0.453  0.00  0.00    +0.148 HD
BRANCH  26  28
ATOM     28  C   UNL     1       2.181   1.996  -1.516  0.00  0.00    +0.077 C 
ATOM     29  C   UNL     1       3.015   0.720  -1.382  0.00  0.00    +0.020 C 
ATOM     30  C   UNL     1       3.718   0.429  -2.710  0.00  0.00    +0.002 C 
ATOM     31  C   UNL     1       4.633   1.601  -3.071  0.00  0.00    +0.000 C 
ATOM     32  C   UNL     1       3.798   2.876  -3.205  0.00  0.00    +0.002 C 
ATOM     33  C   UNL     1       3.096   3.168  -1.877  0.00  0.00    +0.020 C 
ENDBRANCH  26  28
ENDBRANCH  23  26
ENDBRANCH   4  23
TORSDOF 9
