REMARK  Name = ZINC19345570
REMARK  5 active torsions:
REMARK  status: ('A' for Active; 'I' for Inactive)
REMARK    1  A    between atoms: C_6  and  C_7
REMARK    2  A    between atoms: C_7  and  C_9
REMARK    3  A    between atoms: C_7  and  O_28
REMARK    4  A    between atoms: C_9  and  N_10
REMARK    5  A    between atoms: C_17  and  O_27
REMARK                            x       y       z     vdW  Elec       q    Type
REMARK                         _______ _______ _______ _____ _____    ______ ____
ROOT
ATOM      1  N   UNL     1       5.276   3.364   1.490  0.00  0.00    +0.382 N 
ATOM      2  C   UNL     1       5.213   4.484   0.542  0.00  0.00    -0.075 C 
ATOM      3  C   UNL     1       6.549   5.231   0.543  0.00  0.00    +0.029 C 
ATOM      4  C   UNL     1       6.838   5.746   1.955  0.00  0.00    +0.110 C 
ATOM      5  C   UNL     1       6.847   4.570   2.933  0.00  0.00    +0.029 C 
ATOM      6  C   UNL     1       5.503   3.841   2.861  0.00  0.00    -0.075 C 
ATOM      7  C   UNL     1       8.205   6.440   1.975  0.00  0.00    +0.084 C 
ATOM      8  C   UNL     1       8.515   6.852   3.416  0.00  0.00    +0.152 C 
ATOM      9  C   UNL     1       7.322   7.555   4.011  0.00  0.00    +0.024 A 
ATOM     10  C   UNL     1       7.503   8.332   5.144  0.00  0.00    +0.029 A 
ATOM     11  C   UNL     1       6.430   8.984   5.721  0.00  0.00    +0.042 A 
ATOM     12  C   UNL     1       5.168   8.860   5.168  0.00  0.00    +0.023 A 
ATOM     13  C   UNL     1       4.982   8.089   4.039  0.00  0.00    +0.047 A 
ATOM     14  C   UNL     1       6.061   7.434   3.454  0.00  0.00    +0.127 A 
ATOM     15  O   UNL     1       5.840   6.689   2.340  0.00  0.00    -0.485 OA
ATOM     16 CL   UNL     1       6.665   9.958   7.139  0.00  0.00    -0.084 Cl
ATOM     17  H   UNL     1       6.133   2.734   1.208  0.00  0.00    -0.082 HD
ENDROOT
BRANCH   8  18
ATOM     18  O   UNL     1       9.640   7.733   3.426  0.00  0.00    -0.387 OA
ATOM     19  H   UNL     1      10.014   8.137   4.379  0.00  0.00    +0.210 HD
ENDBRANCH   8  18
BRANCH   1  20
ATOM     20  C   UNL     1       4.063   2.540   1.414  0.00  0.00    -0.042 C 
BRANCH  20  21
ATOM     21  C   UNL     1       4.269   1.253   2.215  0.00  0.00    +0.128 C 
BRANCH  21  27
ATOM     22  C   UNL     1       2.857  -0.452   1.050  0.00  0.00    +0.010 A 
ATOM     23  C   UNL     1       1.722  -1.238   0.959  0.00  0.00    +0.050 A 
ATOM     24  C   UNL     1       0.758  -1.167   1.950  0.00  0.00    +0.162 A 
ATOM     25  C   UNL     1       0.930  -0.311   3.028  0.00  0.00    +0.162 A 
ATOM     26  C   UNL     1       2.067   0.474   3.116  0.00  0.00    +0.055 A 
ATOM     27  C   UNL     1       3.029   0.401   2.124  0.00  0.00    -0.017 A 
ATOM     28  O   UNL     1      -0.026  -0.248   3.999  0.00  0.00    -0.488 OA
ATOM     29  C   UNL     1      -1.276   0.324   3.609  0.00  0.00    +0.232 C 
ATOM     30  C   UNL     1      -2.167  -0.720   2.955  0.00  0.00    +0.082 C 
ATOM     31  C   UNL     1      -1.590  -1.236   1.646  0.00  0.00    +0.232 C 
ATOM     32  O   UNL     1      -0.366  -1.938   1.873  0.00  0.00    -0.488 OA
ENDBRANCH  21  27
BRANCH  21  33
ATOM     33  O   UNL     1       5.382   0.533   1.682  0.00  0.00    -0.389 OA
ATOM     34  H   UNL     1       6.379   0.998   1.664  0.00  0.00    +0.210 HD
ENDBRANCH  21  33
ENDBRANCH  20  21
ENDBRANCH   1  20
TORSDOF 5
