REMARK  Name = ZINC35561506
REMARK  12 active torsions:
REMARK  status: ('A' for Active; 'I' for Inactive)
REMARK    1  A    between atoms: C_1  and  N_2
REMARK    2  A    between atoms: N_2  and  C_3
REMARK    3  A    between atoms: N_2  and  C_4
REMARK    4  A    between atoms: C_4  and  C_5
REMARK    5  A    between atoms: C_5  and  N_6
REMARK    6  A    between atoms: N_6  and  C_7
REMARK    7  A    between atoms: C_7  and  C_8
REMARK    8  A    between atoms: C_14  and  C_16
REMARK    9  A    between atoms: C_16  and  C_17
REMARK   10  A    between atoms: C_17  and  C_19
REMARK   11  A    between atoms: C_17  and  C_30
REMARK   12  A    between atoms: C_23  and  C_25
REMARK                            x       y       z     vdW  Elec       q    Type
REMARK                         _______ _______ _______ _____ _____    ______ ____
ROOT
ATOM      1  C   UNL     1      -3.447  -3.177   3.514  0.00  0.00    +0.060 C 
ENDROOT
BRANCH   1   2
ATOM      2  C   UNL     1      -2.649  -3.147   4.792  0.00  0.00    -0.015 A 
ATOM      3  C   UNL     1      -2.059  -2.072   5.340  0.00  0.00    +0.087 A 
ATOM      4  N   UNL     1      -1.426  -2.429   6.500  0.00  0.00    -0.360 N 
ATOM      5  H   UNL     1      -0.930  -1.823   7.072  0.00  0.00    +0.165 HD
ATOM      6  C   UNL     1      -1.597  -3.775   6.732  0.00  0.00    +0.047 A 
ATOM      7  C   UNL     1      -2.377  -4.282   5.676  0.00  0.00    +0.003 A 
ATOM      8  C   UNL     1      -2.718  -5.636   5.651  0.00  0.00    +0.010 A 
ATOM      9  C   UNL     1      -2.296  -6.461   6.655  0.00  0.00    +0.001 A 
ATOM     10  C   UNL     1      -1.531  -5.964   7.701  0.00  0.00    +0.002 A 
ATOM     11  C   UNL     1      -1.175  -4.634   7.741  0.00  0.00    +0.026 A 
ENDBRANCH   1   2
BRANCH   1  12
ATOM     12  C   UNL     1      -4.624  -2.244   3.634  0.00  0.00    -0.039 A 
ATOM     13  C   UNL     1      -4.418  -0.896   3.862  0.00  0.00    +0.006 A 
ATOM     14  C   UNL     1      -5.497  -0.041   3.972  0.00  0.00    +0.021 A 
ATOM     15  C   UNL     1      -6.785  -0.533   3.855  0.00  0.00    +0.053 A 
ATOM     16  C   UNL     1      -6.991  -1.882   3.627  0.00  0.00    +0.073 A 
ATOM     17  C   UNL     1      -5.910  -2.736   3.511  0.00  0.00    +0.018 A 
ATOM     18 CL   UNL     1      -8.142   0.541   3.994  0.00  0.00    -0.083 Cl
BRANCH  16  19
ATOM     19  C   UNL     1      -8.393  -2.419   3.498  0.00  0.00    +0.419 C 
ATOM     20  F   UNL     1      -8.345  -3.799   3.272  0.00  0.00    -0.166 F 
ATOM     21  F   UNL     1      -9.100  -2.164   4.679  0.00  0.00    -0.166 F 
ATOM     22  F   UNL     1      -9.036  -1.793   2.426  0.00  0.00    -0.166 F 
ENDBRANCH  16  19
ENDBRANCH   1  12
BRANCH   1  23
ATOM     23  C   UNL     1      -2.560  -2.731   2.349  0.00  0.00    +0.109 C 
BRANCH  23  25
ATOM     24  N   UNL     1      -2.733  -2.544  -0.111  0.00  0.00    -0.299 N 
ATOM     25  C   UNL     1      -3.319  -2.879   1.055  0.00  0.00    +0.217 C 
ATOM     26  O   UNL     1      -4.457  -3.298   1.064  0.00  0.00    -0.276 OA
BRANCH  24  27
ATOM     27  C   UNL     1      -1.358  -2.037  -0.122  0.00  0.00    +0.089 C 
BRANCH  27  28
ATOM     28  C   UNL     1      -1.376  -0.512   0.012  0.00  0.00    -0.060 C 
BRANCH  28  30
ATOM     29  C   UNL     1      -0.018   1.465   0.010  0.00  0.00    -0.097 C 
ATOM     30  N   UNL     1       0.002  -0.004   0.002  0.00  0.00    +0.377 N 
ATOM     31  C   UNL     1       0.713  -0.491   1.192  0.00  0.00    -0.097 C 
ATOM     32  H   UNL     1       0.474  -0.330  -0.828  0.00  0.00    -0.083 HD
ENDBRANCH  28  30
ENDBRANCH  27  28
ENDBRANCH  24  27
BRANCH  24  33
ATOM     33  C   UNL     1      -3.470  -2.687  -1.369  0.00  0.00    +0.142 C 
BRANCH  33  34
ATOM     34  C   UNL     1      -3.235  -4.063  -1.936  0.00  0.00    -0.030 A 
ATOM     35  C   UNL     1      -2.174  -4.284  -2.795  0.00  0.00    +0.005 A 
ATOM     36  C   UNL     1      -1.958  -5.547  -3.315  0.00  0.00    +0.000 A 
ATOM     37  C   UNL     1      -2.802  -6.588  -2.975  0.00  0.00    +0.000 A 
ATOM     38  C   UNL     1      -3.862  -6.367  -2.116  0.00  0.00    +0.000 A 
ATOM     39  C   UNL     1      -4.075  -5.105  -1.593  0.00  0.00    +0.005 A 
ENDBRANCH  33  34
ENDBRANCH  24  33
ENDBRANCH  23  25
ENDBRANCH   1  23
TORSDOF 10
