REMARK  Name = ZINC37639741
REMARK  9 active torsions:
REMARK  status: ('A' for Active; 'I' for Inactive)
REMARK    1  A    between atoms: C_1  and  C_2
REMARK    2  A    between atoms: C_5  and  C_9
REMARK    3  A    between atoms: C_6  and  C_8
REMARK    4  A    between atoms: C_9  and  N_10
REMARK    5  A    between atoms: C_14  and  C_32
REMARK    6  A    between atoms: N_18  and  C_21
REMARK    7  A    between atoms: C_21  and  C_22
REMARK    8  A    between atoms: N_24  and  C_25
REMARK    9  A    between atoms: C_30  and  C_31
REMARK                            x       y       z     vdW  Elec       q    Type
REMARK                         _______ _______ _______ _____ _____    ______ ____
ROOT
ATOM      1  N   UNL     1      -1.301  -4.792   0.332  0.00  0.00    -0.256 N 
ATOM      2  C   UNL     1      -1.613  -4.913   1.634  0.00  0.00    +0.266 A 
ATOM      3  O   UNL     1      -0.801  -4.620   2.492  0.00  0.00    -0.267 OA
ATOM      4  C   UNL     1      -2.954  -5.406   2.013  0.00  0.00    +0.078 A 
ATOM      5  C   UNL     1      -3.521  -5.621   3.341  0.00  0.00    +0.004 A 
ATOM      6  C   UNL     1      -4.789  -6.085   3.440  0.00  0.00    +0.056 A 
ATOM      7  S   UNL     1      -5.294  -6.261   1.740  0.00  0.00    -0.078 S 
ATOM      8  C   UNL     1      -3.805  -5.712   0.949  0.00  0.00    +0.098 A 
ATOM      9  N   UNL     1      -3.408  -5.561  -0.350  0.00  0.00    -0.278 N 
ATOM     10  C   UNL     1      -2.175  -5.101  -0.640  0.00  0.00    +0.334 A 
ATOM     11  O   UNL     1      -1.845  -4.969  -1.803  0.00  0.00    -0.246 OA
ENDROOT
BRANCH   5  12
ATOM     12  C   UNL     1      -2.723  -5.336   4.557  0.00  0.00    -0.017 A 
ATOM     13  C   UNL     1      -1.431  -5.844   4.681  0.00  0.00    +0.008 A 
ATOM     14  C   UNL     1      -0.693  -5.575   5.816  0.00  0.00    +0.001 A 
ATOM     15  C   UNL     1      -1.233  -4.804   6.829  0.00  0.00    +0.000 A 
ATOM     16  C   UNL     1      -2.515  -4.297   6.712  0.00  0.00    +0.001 A 
ATOM     17  C   UNL     1      -3.260  -4.554   5.579  0.00  0.00    +0.008 A 
ENDBRANCH   5  12
BRANCH   1  18
ATOM     18  C   UNL     1       0.029  -4.302  -0.038  0.00  0.00    +0.165 C 
BRANCH  18  23
ATOM     19  C   UNL     1       0.030   1.477  -0.012  0.00  0.00    +0.044 C 
ATOM     20  C   UNL     1       0.030  -0.030  -0.019  0.00  0.00    -0.050 A 
ATOM     21  C   UNL     1      -1.147  -0.722   0.197  0.00  0.00    +0.004 A 
ATOM     22  C   UNL     1      -1.147  -2.104   0.191  0.00  0.00    +0.006 A 
ATOM     23  C   UNL     1       0.029  -2.795  -0.032  0.00  0.00    -0.025 A 
ATOM     24  C   UNL     1       1.206  -2.103  -0.248  0.00  0.00    -0.045 A 
ATOM     25  C   UNL     1       1.205  -0.720  -0.247  0.00  0.00    +0.007 A 
ATOM     26  C   UNL     1       2.489  -2.855  -0.491  0.00  0.00    +0.044 C 
ENDBRANCH  18  23
ENDBRANCH   1  18
BRANCH   9  27
ATOM     27  C   UNL     1      -4.333  -5.894  -1.436  0.00  0.00    +0.223 C 
BRANCH  27  28
ATOM     28  C   UNL     1      -5.138  -4.674  -1.802  0.00  0.00    +0.237 C 
ATOM     29  O   UNL     1      -4.957  -3.629  -1.214  0.00  0.00    -0.274 OA
ATOM     30  N   UNL     1      -6.060  -4.744  -2.784  0.00  0.00    -0.284 N 
ATOM     31  H   UNL     1      -6.149  -5.555  -3.308  0.00  0.00    +0.155 HD
BRANCH  30  32
ATOM     32  C   UNL     1      -6.887  -3.647  -3.046  0.00  0.00    +0.036 A 
ATOM     33  C   UNL     1      -7.149  -2.718  -2.047  0.00  0.00    +0.023 A 
ATOM     34  C   UNL     1      -7.966  -1.636  -2.309  0.00  0.00    +0.002 A 
ATOM     35  C   UNL     1      -8.524  -1.477  -3.565  0.00  0.00    +0.000 A 
ATOM     36  C   UNL     1      -8.266  -2.400  -4.561  0.00  0.00    +0.005 A 
ATOM     37  C   UNL     1      -7.444  -3.481  -4.307  0.00  0.00    -0.029 A 
ATOM     38  C   UNL     1      -7.157  -4.483  -5.396  0.00  0.00    +0.045 C 
ENDBRANCH  30  32
ENDBRANCH  27  28
ENDBRANCH   9  27
TORSDOF 6
