REMARK  Name = ZINC09546202
REMARK  12 active torsions:
REMARK  status: ('A' for Active; 'I' for Inactive)
REMARK    1  A    between atoms: C_1  and  C_2
REMARK    2  A    between atoms: C_2  and  C_4
REMARK    3  A    between atoms: C_2  and  O_16
REMARK    4  A    between atoms: N_6  and  C_7
REMARK    5  A    between atoms: C_10  and  C_13
REMARK    6  A    between atoms: C_13  and  C_15
REMARK    7  A    between atoms: O_16  and  C_17
REMARK    8  A    between atoms: C_17  and  C_19
REMARK    9  A    between atoms: C_24  and  N_25
REMARK   10  A    between atoms: N_25  and  S_26
REMARK   11  A    between atoms: S_26  and  C_29
REMARK   12  A    between atoms: C_33  and  N_35
REMARK                            x       y       z     vdW  Elec       q    Type
REMARK                         _______ _______ _______ _____ _____    ______ ____
ROOT
ATOM      1  C   UNL     1      -0.884   5.366  -3.719  0.00  0.00    +0.081 A 
ATOM      2  C   UNL     1      -1.946   4.998  -4.551  0.00  0.00    +0.017 A 
ATOM      3  C   UNL     1      -3.233   4.991  -4.061  0.00  0.00    +0.001 A 
ATOM      4  C   UNL     1      -3.482   5.342  -2.744  0.00  0.00    +0.002 A 
ATOM      5  C   UNL     1      -2.446   5.703  -1.908  0.00  0.00    +0.025 A 
ATOM      6  C   UNL     1      -1.140   5.716  -2.384  0.00  0.00    +0.062 A 
ENDROOT
BRANCH   1   7
ATOM      7  C   UNL     1       0.494   5.382  -4.239  0.00  0.00    +0.342 C 
ATOM      8  O   UNL     1       1.414   5.699  -3.511  0.00  0.00    -0.245 OA
BRANCH   7   9
ATOM      9  O   UNL     1       0.735   5.046  -5.521  0.00  0.00    -0.449 OA
BRANCH   9  11
ATOM     10  C   UNL     1       2.438   6.476  -6.513  0.00  0.00    +0.062 C 
ATOM     11  C   UNL     1       2.117   5.084  -5.965  0.00  0.00    +0.259 C 
BRANCH  11  12
ATOM     12  C   UNL     1       2.325   4.057  -7.048  0.00  0.00    +0.258 C 
ATOM     13  O   UNL     1       1.382   3.425  -7.474  0.00  0.00    -0.271 OA
ATOM     14  N   UNL     1       3.560   3.841  -7.543  0.00  0.00    -0.282 N 
ATOM     15  H   UNL     1       4.324   4.298  -7.157  0.00  0.00    +0.155 HD
BRANCH  14  16
ATOM     16  C   UNL     1       3.740   2.962  -8.608  0.00  0.00    +0.034 A 
ATOM     17  C   UNL     1       4.707   3.228  -9.573  0.00  0.00    +0.024 A 
ATOM     18  C   UNL     1       4.890   2.363 -10.620  0.00  0.00    +0.013 A 
ATOM     19  C   UNL     1       4.095   1.215 -10.725  0.00  0.00    +0.017 A 
ATOM     20  C   UNL     1       3.120   0.953  -9.754  0.00  0.00    +0.013 A 
ATOM     21  C   UNL     1       2.947   1.821  -8.707  0.00  0.00    +0.024 A 
BRANCH  19  22
ATOM     22  C   UNL     1       4.285   0.288 -11.847  0.00  0.00    +0.160 C 
ATOM     23  O   UNL     1       3.595  -0.707 -11.936  0.00  0.00    -0.292 OA
ATOM     24  C   UNL     1       5.335   0.572 -12.890  0.00  0.00    +0.091 C 
ENDBRANCH  19  22
ENDBRANCH  14  16
ENDBRANCH  11  12
ENDBRANCH   9  11
ENDBRANCH   7   9
ENDBRANCH   1   7
BRANCH   6  25
ATOM     25  N   UNL     1      -0.095   6.078  -1.545  0.00  0.00    -0.215 N 
ATOM     26  H   UNL     1       0.658   6.577  -1.897  0.00  0.00    +0.174 HD
BRANCH  25  27
ATOM     27  S   UNL     1      -0.136   5.659   0.057  0.00  0.00    +0.072 S 
ATOM     28  O   UNL     1      -1.373   6.132   0.570  0.00  0.00    -0.150 OA
ATOM     29  O   UNL     1       1.115   6.045   0.609  0.00  0.00    -0.150 OA
BRANCH  27  30
ATOM     30  C   UNL     1      -0.198   3.900   0.133  0.00  0.00    +0.110 A 
ATOM     31  C   UNL     1       0.974   3.168   0.182  0.00  0.00    +0.029 A 
ATOM     32  C   UNL     1       0.930   1.788   0.242  0.00  0.00    +0.004 A 
ATOM     33  C   UNL     1      -0.287   1.134   0.253  0.00  0.00    +0.023 A 
ATOM     34  C   UNL     1      -1.467   1.866   0.198  0.00  0.00    +0.026 A 
ATOM     35  C   UNL     1      -1.418   3.253   0.143  0.00  0.00    +0.051 A 
BRANCH  34  36
ATOM     36  N   UNL     1      -2.699   1.208   0.202  0.00  0.00    -0.358 N 
ATOM     37  H   UNL     1      -2.732   0.239   0.244  0.00  0.00    +0.142 HD
ATOM     38  H   UNL     1      -3.522   1.720   0.164  0.00  0.00    +0.142 HD
ENDBRANCH  34  36
ENDBRANCH  27  30
ENDBRANCH  25  27
ENDBRANCH   6  25
TORSDOF 10
