REMARK  Name = ZINC02805685
REMARK  10 active torsions:
REMARK  status: ('A' for Active; 'I' for Inactive)
REMARK    1  A    between atoms: C_1  and  C_2
REMARK    2  A    between atoms: C_3  and  C_29
REMARK    3  A    between atoms: C_4  and  C_20
REMARK    4  A    between atoms: C_10  and  C_15
REMARK    5  A    between atoms: C_23  and  N_26
REMARK    6  A    between atoms: C_29  and  O_31
REMARK    7  A    between atoms: O_31  and  C_32
REMARK    8  A    between atoms: C_32  and  C_33
REMARK    9  A    between atoms: C_33  and  O_34
REMARK   10  A    between atoms: O_34  and  C_35
REMARK                            x       y       z     vdW  Elec       q    Type
REMARK                         _______ _______ _______ _____ _____    ______ ____
ROOT
ATOM      1  C   UNL     1      -4.071   6.198  -3.737  0.00  0.00    +0.061 C 
ATOM      2  C   UNL     1      -3.831   5.509  -2.419  0.00  0.00    +0.016 C 
ATOM      3  C   UNL     1      -4.416   5.978  -1.304  0.00  0.00    +0.065 C 
ATOM      4  C   UNL     1      -4.206   5.313   0.025  0.00  0.00    +0.092 C 
ATOM      5  C   UNL     1      -2.995   4.415  -0.004  0.00  0.00    +0.024 C 
ATOM      6  C   UNL     1      -2.467   4.009  -1.178  0.00  0.00    +0.016 C 
ATOM      7  N   UNL     1      -3.018   4.411  -2.365  0.00  0.00    -0.321 N 
ATOM      8  C   UNL     1      -1.259   3.105  -1.218  0.00  0.00    +0.062 C 
ATOM      9  C   UNL     1      -1.250   2.205   0.020  0.00  0.00    +0.068 C 
ATOM     10  C   UNL     1      -1.247   3.092   1.270  0.00  0.00    +0.091 C 
ATOM     11  C   UNL     1      -2.438   4.011   1.221  0.00  0.00    +0.162 C 
ATOM     12  O   UNL     1      -2.926   4.410   2.260  0.00  0.00    -0.292 OA
ATOM     13  H   UNL     1      -2.803   3.841  -3.281  0.00  0.00    +0.152 HD
ENDROOT
BRANCH   4  14
ATOM     14  C   UNL     1      -5.423   4.492   0.365  0.00  0.00    -0.035 A 
ATOM     15  C   UNL     1      -5.803   3.447  -0.456  0.00  0.00    +0.007 A 
ATOM     16  C   UNL     1      -6.917   2.691  -0.142  0.00  0.00    +0.033 A 
ATOM     17  C   UNL     1      -7.657   2.986   0.988  0.00  0.00    +0.126 A 
ATOM     18  C   UNL     1      -7.280   4.035   1.806  0.00  0.00    +0.033 A 
ATOM     19  C   UNL     1      -6.163   4.788   1.494  0.00  0.00    +0.007 A 
BRANCH  17  20
ATOM     20  N   UNL     1      -8.852   2.180   1.321  0.00  0.00    +0.056 N 
ATOM     21  O   UNL     1      -9.504   2.441   2.316  0.00  0.00    -0.126 OA
ATOM     22  O   UNL     1      -9.184   1.256   0.600  0.00  0.00    -0.126 OA
ENDBRANCH  17  20
ENDBRANCH   4  14
BRANCH   9  23
ATOM     23  C   UNL     1      -0.016   1.341   0.009  0.00  0.00    +0.109 A 
ATOM     24  C   UNL     1       0.002  -0.004   0.002  0.00  0.00    +0.045 A 
ATOM     25  C   UNL     1       1.361  -0.395  -0.013  0.00  0.00    +0.041 A 
ATOM     26  C   UNL     1       2.091   0.734  -0.014  0.00  0.00    +0.195 A 
ATOM     27  O   UNL     1       1.252   1.783  -0.000  0.00  0.00    -0.468 OA
ENDBRANCH   9  23
BRANCH   3  28
ATOM     28  C   UNL     1      -5.246   7.121  -1.384  0.00  0.00    +0.338 C 
ATOM     29  O   UNL     1      -5.424   7.669  -2.455  0.00  0.00    -0.245 OA
BRANCH  28  30
ATOM     30  O   UNL     1      -5.840   7.603  -0.272  0.00  0.00    -0.459 OA
BRANCH  30  31
ATOM     31  C   UNL     1      -6.665   8.760  -0.427  0.00  0.00    +0.260 C 
BRANCH  31  32
ATOM     32  C   UNL     1      -7.247   9.156   0.931  0.00  0.00    +0.200 C 
BRANCH  32  33
ATOM     33  O   UNL     1      -6.190   9.559   1.804  0.00  0.00    -0.380 OA
ATOM     34  C   UNL     1      -6.629   9.951   3.106  0.00  0.00    +0.194 C 
ENDBRANCH  32  33
ENDBRANCH  31  32
ENDBRANCH  30  31
ENDBRANCH  28  30
ENDBRANCH   3  28
TORSDOF 8
