REMARK  Name = ZINC39895795
REMARK  4 active torsions:
REMARK  status: ('A' for Active; 'I' for Inactive)
REMARK    1  A    between atoms: C_4  and  N_7
REMARK    2  A    between atoms: C_8  and  C_18
REMARK    3  A    between atoms: C_13  and  C_16
REMARK    4  A    between atoms: C_24  and  C_27
REMARK                            x       y       z     vdW  Elec       q    Type
REMARK                         _______ _______ _______ _____ _____    ______ ____
ROOT
ATOM      1  C   UNL     1       4.268  -2.437   1.413  0.00  0.00    -0.008 A 
ATOM      2  C   UNL     1       3.964  -1.615   2.501  0.00  0.00    +0.009 A 
ATOM      3  C   UNL     1       4.308  -1.952   3.769  0.00  0.00    +0.032 A 
ATOM      4  C   UNL     1       4.991  -3.167   4.007  0.00  0.00    +0.114 A 
ATOM      5  C   UNL     1       5.309  -4.031   2.858  0.00  0.00    +0.049 A 
ATOM      6  C   UNL     1       4.918  -3.619   1.571  0.00  0.00    +0.021 A 
ATOM      7  C   UNL     1       5.974  -5.144   3.372  0.00  0.00    +0.175 A 
ATOM      8  O   UNL     1       6.061  -4.990   4.702  0.00  0.00    -0.353 OA
ATOM      9  N   UNL     1       5.454  -3.770   5.082  0.00  0.00    -0.078 NA
ENDROOT
BRANCH   7  10
ATOM     10  C   UNL     1       6.486  -6.282   2.596  0.00  0.00    +0.028 A 
ATOM     11  C   UNL     1       7.237  -6.075   1.443  0.00  0.00    +0.012 A 
ATOM     12  C   UNL     1       7.719  -7.152   0.713  0.00  0.00    +0.001 A 
ATOM     13  C   UNL     1       7.482  -8.439   1.089  0.00  0.00    +0.008 A 
ATOM     14  C   UNL     1       6.732  -8.723   2.242  0.00  0.00    -0.017 A 
ATOM     15  C   UNL     1       6.224  -7.656   3.023  0.00  0.00    -0.007 A 
ATOM     16  C   UNL     1       5.481  -7.935   4.176  0.00  0.00    +0.009 A 
ATOM     17  C   UNL     1       5.259  -9.230   4.538  0.00  0.00    +0.001 A 
ATOM     18  C   UNL     1       5.763 -10.282   3.776  0.00  0.00    +0.001 A 
ATOM     19  C   UNL     1       6.479 -10.047   2.642  0.00  0.00    +0.008 A 
ENDBRANCH   7  10
BRANCH   1  21
ATOM     20  N   UNL     1       3.857  -0.539  -0.043  0.00  0.00    -0.270 N 
ATOM     21  C   UNL     1       3.858  -2.004   0.029  0.00  0.00    +0.197 C 
ATOM     22  N   UNL     1       4.801  -2.547  -0.949  0.00  0.00    -0.288 N 
ATOM     23  C   UNL     1       5.905  -1.855  -1.296  0.00  0.00    +0.258 C 
ATOM     24  O   UNL     1       6.707  -2.333  -2.078  0.00  0.00    -0.269 OA
ATOM     25  C   UNL     1       6.134  -0.525  -0.726  0.00  0.00    +0.142 C 
ATOM     26  C   UNL     1       5.059   0.121  -0.100  0.00  0.00    +0.103 C 
ATOM     27  S   UNL     1       5.249   1.729   0.595  0.00  0.00    -0.033 SA
ATOM     28  H   UNL     1       4.631  -3.413  -1.351  0.00  0.00    +0.151 HD
BRANCH  20  32
ATOM     29  C   UNL     1       0.270   1.578  -0.093  0.00  0.00    +0.000 A 
ATOM     30  C   UNL     1       0.606   0.764  -1.159  0.00  0.00    +0.002 A 
ATOM     31  C   UNL     1       1.794   0.061  -1.146  0.00  0.00    +0.023 A 
ATOM     32  C   UNL     1       2.653   0.172  -0.060  0.00  0.00    +0.036 A 
ATOM     33  C   UNL     1       2.313   0.990   1.010  0.00  0.00    +0.023 A 
ATOM     34  C   UNL     1       1.123   1.691   0.990  0.00  0.00    +0.002 A 
ENDBRANCH  20  32
BRANCH  25  35
ATOM     35  C   UNL     1       7.421   0.098  -0.810  0.00  0.00    +0.107 C 
ATOM     36  N   UNL     1       8.441   0.593  -0.876  0.00  0.00    -0.191 NA
ENDBRANCH  25  35
ENDBRANCH   1  21
TORSDOF 4
