REMARK  Name = ZINC36209905
REMARK  9 active torsions:
REMARK  status: ('A' for Active; 'I' for Inactive)
REMARK    1  A    between atoms: C_1  and  C_2
REMARK    2  A    between atoms: C_8  and  N_10
REMARK    3  A    between atoms: C_11  and  C_13
REMARK    4  A    between atoms: C_13  and  C_15
REMARK    5  A    between atoms: C_13  and  O_16
REMARK    6  A    between atoms: O_16  and  C_17
REMARK    7  A    between atoms: C_17  and  C_19
REMARK    8  A    between atoms: N_22  and  S_25
REMARK    9  A    between atoms: S_25  and  C_28
REMARK                            x       y       z     vdW  Elec       q    Type
REMARK                         _______ _______ _______ _____ _____    ______ ____
ROOT
ATOM      1  C   UNL     1       1.677   1.926   7.950  0.00  0.00    +0.100 C 
ATOM      2  C   UNL     1       3.049   2.315   7.394  0.00  0.00    +0.032 C 
ATOM      3  C   UNL     1       4.027   2.517   8.556  0.00  0.00    +0.110 C 
ATOM      4  N   UNL     1       3.456   3.495   9.491  0.00  0.00    -0.177 NA
ATOM      5  C   UNL     1       2.103   3.264  10.016  0.00  0.00    +0.110 C 
ATOM      6  C   UNL     1       1.147   3.054   8.839  0.00  0.00    +0.032 C 
ENDROOT
BRANCH   4   7
ATOM      7  S   UNL     1       4.320   4.833   9.945  0.00  0.00    +0.061 S 
ATOM      8  O   UNL     1       3.797   5.248  11.199  0.00  0.00    -0.153 OA
ATOM      9  O   UNL     1       5.692   4.512   9.761  0.00  0.00    -0.153 OA
BRANCH   7  10
ATOM     10  C   UNL     1       3.943   6.112   8.793  0.00  0.00    +0.109 A 
ATOM     11  C   UNL     1       4.704   6.256   7.648  0.00  0.00    +0.032 A 
ATOM     12  C   UNL     1       4.412   7.259   6.743  0.00  0.00    +0.051 A 
ATOM     13  C   UNL     1       3.354   8.123   6.982  0.00  0.00    +0.162 A 
ATOM     14  C   UNL     1       2.588   7.978   8.132  0.00  0.00    +0.164 A 
ATOM     15  C   UNL     1       2.884   6.967   9.034  0.00  0.00    +0.078 A 
ATOM     16  O   UNL     1       1.541   8.811   8.382  0.00  0.00    -0.485 OA
ATOM     17  C   UNL     1       1.502  10.036   7.641  0.00  0.00    +0.270 C 
ATOM     18  C   UNL     1       1.787   9.716   6.168  0.00  0.00    +0.270 C 
ATOM     19  O   UNL     1       3.081   9.108   6.083  0.00  0.00    -0.485 OA
ENDBRANCH   7  10
ENDBRANCH   4   7
BRANCH   1  20
ATOM     20  C   UNL     1       0.721   1.694   6.809  0.00  0.00    +0.311 C 
ATOM     21  O   UNL     1      -0.282   2.361   6.716  0.00  0.00    -0.251 OA
BRANCH  20  22
ATOM     22  O   UNL     1       0.983   0.745   5.896  0.00  0.00    -0.452 OA
BRANCH  22  23
ATOM     23  C   UNL     1       0.033   0.579   4.842  0.00  0.00    +0.258 C 
ATOM     24  C   UNL     1      -1.023  -0.445   5.263  0.00  0.00    +0.062 C 
BRANCH  23  26
ATOM     25  N   UNL     1       0.056  -0.038   2.447  0.00  0.00    -0.309 N 
ATOM     26  C   UNL     1       0.738   0.093   3.602  0.00  0.00    +0.254 C 
ATOM     27  O   UNL     1       1.919  -0.179   3.644  0.00  0.00    -0.272 OA
ATOM     28  H   UNL     1      -0.888   0.180   2.413  0.00  0.00    +0.149 HD
BRANCH  25  35
ATOM     29  C   UNL     1      -0.019   1.526   0.010  0.00  0.00    +0.009 C 
ATOM     30  C   UNL     1       0.002  -0.004   0.002  0.00  0.00    +0.006 C 
ATOM     31  C   UNL     1      -1.433  -0.534   0.013  0.00  0.00    +0.005 C 
ATOM     32  C   UNL     1      -1.413  -2.063   0.004  0.00  0.00    +0.000 C 
ATOM     33  C   UNL     1      -0.673  -2.570   1.244  0.00  0.00    +0.002 C 
ATOM     34  C   UNL     1       0.763  -2.041   1.233  0.00  0.00    +0.022 C 
ATOM     35  C   UNL     1       0.742  -0.511   1.242  0.00  0.00    +0.076 C 
ENDBRANCH  25  35
ENDBRANCH  23  26
ENDBRANCH  22  23
ENDBRANCH  20  22
ENDBRANCH   1  20
TORSDOF 7
