REMARK  Name = ZINC09168861
REMARK  7 active torsions:
REMARK  status: ('A' for Active; 'I' for Inactive)
REMARK    1  A    between atoms: C_1  and  C_2
REMARK    2  A    between atoms: C_2  and  C_3
REMARK    3  A    between atoms: C_6  and  S_8
REMARK    4  A    between atoms: S_8  and  N_11
REMARK    5  A    between atoms: N_11  and  C_12
REMARK    6  A    between atoms: C_20  and  C_24
REMARK    7  A    between atoms: C_20  and  C_25
REMARK                            x       y       z     vdW  Elec       q    Type
REMARK                         _______ _______ _______ _____ _____    ______ ____
ROOT
ATOM      1  C   UNL     1      -7.774   1.837   3.095  0.00  0.00    +0.052 A 
ATOM      2  C   UNL     1      -6.622   2.365   2.526  0.00  0.00    +0.026 A 
ATOM      3  C   UNL     1      -6.381   3.725   2.587  0.00  0.00    +0.029 A 
ATOM      4  C   UNL     1      -7.283   4.560   3.226  0.00  0.00    +0.076 A 
ATOM      5  C   UNL     1      -8.436   4.031   3.805  0.00  0.00    +0.143 A 
ATOM      6  C   UNL     1      -8.680   2.671   3.737  0.00  0.00    +0.072 A 
ATOM      7  O   UNL     1      -9.310   4.856   4.439  0.00  0.00    -0.489 OA
ATOM      8  C   UNL     1      -8.933   5.340   5.726  0.00  0.00    +0.244 C 
ATOM      9  C   UNL     1      -7.471   5.779   5.725  0.00  0.00    +0.076 C 
ATOM     10  C   UNL     1      -7.171   6.576   4.481  0.00  0.00    +0.226 C 
ATOM     11  O   UNL     1      -7.038   7.780   4.546  0.00  0.00    -0.275 OA
ATOM     12  N   UNL     1      -7.051   5.943   3.293  0.00  0.00    -0.282 N 
ATOM     13  C   UNL     1      -6.569   4.544   5.765  0.00  0.00    +0.024 C 
ATOM     14  C   UNL     1      -7.202   6.643   6.958  0.00  0.00    +0.024 C 
ATOM     15  H   UNL     1      -6.807   6.438   2.496  0.00  0.00    +0.155 HD
ENDROOT
BRANCH   1  16
ATOM     16  N   UNL     1      -8.018   0.461   3.027  0.00  0.00    -0.216 N 
ATOM     17  H   UNL     1      -7.508  -0.150   3.581  0.00  0.00    +0.174 HD
BRANCH  16  18
ATOM     18  S   UNL     1      -9.178  -0.123   2.000  0.00  0.00    +0.079 S 
ATOM     19  O   UNL     1     -10.356   0.633   2.245  0.00  0.00    -0.149 OA
ATOM     20  O   UNL     1      -9.146  -1.540   2.114  0.00  0.00    -0.149 OA
BRANCH  18  24
ATOM     21  C   UNL     1      -8.153   1.231  -2.105  0.00  0.00    -0.009 A 
ATOM     22  C   UNL     1      -7.562   0.074  -1.718  0.00  0.00    +0.013 A 
ATOM     23  C   UNL     1      -7.824  -0.423  -0.455  0.00  0.00    +0.037 A 
ATOM     24  C   UNL     1      -8.664   0.262   0.359  0.00  0.00    +0.146 A 
ATOM     25  S   UNL     1      -9.110   1.659  -0.659  0.00  0.00    -0.073 S 
BRANCH  21  27
ATOM     26  C   UNL     1      -9.104   1.471  -4.382  0.00  0.00    +0.009 C 
ATOM     27  C   UNL     1      -8.030   1.968  -3.413  0.00  0.00    +0.039 C 
ENDBRANCH  21  27
ENDBRANCH  18  24
ENDBRANCH  16  18
ENDBRANCH   1  16
TORSDOF 4
