REMARK  Name = ZINC35231435
REMARK  10 active torsions:
REMARK  status: ('A' for Active; 'I' for Inactive)
REMARK    1  A    between atoms: C_1  and  C_2
REMARK    2  A    between atoms: C_2  and  C_3
REMARK    3  A    between atoms: C_2  and  C_4
REMARK    4  A    between atoms: C_7  and  N_10
REMARK    5  A    between atoms: N_13  and  C_14
REMARK    6  A    between atoms: N_13  and  C_36
REMARK    7  A    between atoms: C_14  and  C_15
REMARK    8  A    between atoms: C_29  and  C_31
REMARK    9  A    between atoms: C_36  and  C_37
REMARK   10  A    between atoms: C_36  and  C_38
REMARK                            x       y       z     vdW  Elec       q    Type
REMARK                         _______ _______ _______ _____ _____    ______ ____
ROOT
ATOM      1  C   UNL     1      -7.424  -5.337  -1.762  0.00  0.00    +0.238 C 
ATOM      2  O   UNL     1      -7.145  -5.634  -0.620  0.00  0.00    -0.273 OA
ATOM      3  N   UNL     1      -7.716  -6.301  -2.657  0.00  0.00    -0.252 N 
ATOM      4  C   UNL     1      -7.687  -7.647  -2.270  0.00  0.00    +0.061 A 
ATOM      5  C   UNL     1      -6.836  -8.072  -1.262  0.00  0.00    +0.025 A 
ATOM      6  C   UNL     1      -6.825  -9.401  -0.882  0.00  0.00    +0.002 A 
ATOM      7  C   UNL     1      -7.660 -10.313  -1.503  0.00  0.00    +0.002 A 
ATOM      8  C   UNL     1      -8.509  -9.901  -2.515  0.00  0.00    +0.028 A 
ATOM      9  C   UNL     1      -8.521  -8.576  -2.902  0.00  0.00    +0.068 A 
ATOM     10  N   UNL     1      -9.346  -8.115  -3.939  0.00  0.00    -0.316 N 
ATOM     11  C   UNL     1     -10.391  -8.716  -4.556  0.00  0.00    +0.092 A 
ATOM     12  C   UNL     1     -10.871  -7.867  -5.493  0.00  0.00    +0.020 A 
ATOM     13  C   UNL     1     -10.085  -6.695  -5.449  0.00  0.00    +0.025 A 
ATOM     14  C   UNL     1      -9.161  -6.869  -4.498  0.00  0.00    +0.052 A 
ATOM     15  C   UNL     1      -8.071  -5.937  -4.039  0.00  0.00    +0.194 C 
ENDROOT
BRANCH  15  16
ATOM     16  C   UNL     1      -6.866  -6.089  -4.932  0.00  0.00    +0.131 A 
ATOM     17  C   UNL     1      -6.510  -5.250  -5.922  0.00  0.00    +0.047 A 
ATOM     18  C   UNL     1      -5.327  -5.771  -6.494  0.00  0.00    +0.041 A 
ATOM     19  C   UNL     1      -5.031  -6.897  -5.820  0.00  0.00    +0.195 A 
ATOM     20  O   UNL     1      -5.964  -7.082  -4.872  0.00  0.00    -0.466 OA
ENDBRANCH  15  16
BRANCH   1  21
ATOM     21  C   UNL     1      -7.445  -3.889  -2.179  0.00  0.00    +0.205 C 
BRANCH  21  25
ATOM     22  N   UNL     1      -5.457  -2.071   0.318  0.00  0.00    -0.269 N 
ATOM     23  C   UNL     1      -5.800  -2.727  -0.808  0.00  0.00    +0.307 C 
ATOM     24  O   UNL     1      -4.946  -3.033  -1.618  0.00  0.00    -0.252 OA
ATOM     25  N   UNL     1      -7.090  -3.045  -1.035  0.00  0.00    -0.274 N 
ATOM     26  H   UNL     1      -6.114  -1.929   1.017  0.00  0.00    +0.156 HD
BRANCH  22  30
ATOM     27  C   UNL     1      -1.570  -0.647   0.796  0.00  0.00    -0.045 A 
ATOM     28  C   UNL     1      -2.617  -0.031   1.457  0.00  0.00    +0.006 A 
ATOM     29  C   UNL     1      -3.906  -0.500   1.300  0.00  0.00    +0.023 A 
ATOM     30  C   UNL     1      -4.151  -1.592   0.478  0.00  0.00    +0.035 A 
ATOM     31  C   UNL     1      -3.098  -2.209  -0.184  0.00  0.00    +0.023 A 
ATOM     32  C   UNL     1      -1.811  -1.731  -0.028  0.00  0.00    +0.006 A 
BRANCH  27  34
ATOM     33  C   UNL     1      -0.094   1.325   0.508  0.00  0.00    +0.012 C 
ATOM     34  C   UNL     1      -0.164  -0.132   0.969  0.00  0.00    +0.013 C 
ATOM     35  C   UNL     1       0.233  -0.220   2.444  0.00  0.00    +0.012 C 
ENDBRANCH  27  34
ENDBRANCH  22  30
BRANCH  25  36
ATOM     36  C   UNL     1      -8.136  -2.548  -0.139  0.00  0.00    +0.072 C 
ATOM     37  C   UNL     1      -9.059  -1.600  -0.908  0.00  0.00    +0.028 C 
ATOM     38  C   UNL     1      -8.950  -3.726   0.399  0.00  0.00    +0.028 C 
ENDBRANCH  25  36
ENDBRANCH  21  25
ENDBRANCH   1  21
TORSDOF 6
