REMARK  Name = ZINC59170464
REMARK  8 active torsions:
REMARK  status: ('A' for Active; 'I' for Inactive)
REMARK    1  A    between atoms: C_1  and  C_2
REMARK    2  A    between atoms: C_5  and  S_8
REMARK    3  A    between atoms: S_8  and  N_11
REMARK    4  A    between atoms: N_11  and  N_12
REMARK    5  A    between atoms: C_14  and  C_26
REMARK    6  A    between atoms: C_18  and  N_23
REMARK    7  A    between atoms: N_28  and  C_29
REMARK    8  A    between atoms: C_34  and  C_35
REMARK                            x       y       z     vdW  Elec       q    Type
REMARK                         _______ _______ _______ _____ _____    ______ ____
ROOT
ATOM      1  N   UNL     1       2.057  -4.342   0.547  0.00  0.00    -0.260 N 
ATOM      2  C   UNL     1       3.325  -4.828   0.416  0.00  0.00    +0.225 A 
ATOM      3  C   UNL     1       4.241  -4.616   1.445  0.00  0.00    +0.099 A 
ATOM      4  C   UNL     1       5.557  -5.109   1.332  0.00  0.00    +0.030 A 
ATOM      5  C   UNL     1       5.901  -5.807   0.167  0.00  0.00    +0.020 A 
ATOM      6  C   UNL     1       7.191  -6.334  -0.030  0.00  0.00    +0.044 A 
ATOM      7  C   UNL     1       7.471  -7.005  -1.181  0.00  0.00    +0.127 A 
ATOM      8  C   UNL     1       6.506  -7.181  -2.171  0.00  0.00    +0.036 A 
ATOM      9  C   UNL     1       5.231  -6.688  -2.030  0.00  0.00    +0.049 A 
ATOM     10  C   UNL     1       4.885  -5.992  -0.873  0.00  0.00    +0.138 A 
ATOM     11  O   UNL     1       3.650  -5.500  -0.694  0.00  0.00    -0.437 OA
ATOM     12  H   UNL     1       1.783  -3.918   1.376  0.00  0.00    +0.189 HD
ENDROOT
BRANCH   3  13
ATOM     13  C   UNL     1       3.831  -3.871   2.659  0.00  0.00    +0.253 C 
ATOM     14  O   UNL     1       3.178  -4.426   3.521  0.00  0.00    -0.270 OA
ATOM     15  N   UNL     1       4.182  -2.578   2.807  0.00  0.00    -0.281 N 
ATOM     16  H   UNL     1       4.646  -2.116   2.091  0.00  0.00    +0.155 HD
BRANCH  15  17
ATOM     17  C   UNL     1       3.879  -1.903   3.992  0.00  0.00    +0.037 A 
ATOM     18  C   UNL     1       3.599  -2.619   5.150  0.00  0.00    +0.023 A 
ATOM     19  C   UNL     1       3.300  -1.949   6.319  0.00  0.00    +0.002 A 
ATOM     20  C   UNL     1       3.278  -0.566   6.339  0.00  0.00    +0.000 A 
ATOM     21  C   UNL     1       3.556   0.150   5.189  0.00  0.00    +0.005 A 
ATOM     22  C   UNL     1       3.862  -0.514   4.017  0.00  0.00    -0.029 A 
ATOM     23  C   UNL     1       4.171   0.267   2.766  0.00  0.00    +0.045 C 
ENDBRANCH  15  17
ENDBRANCH   3  13
BRANCH   7  24
ATOM     24  N   UNL     1       8.829  -7.557  -1.385  0.00  0.00    +0.056 N 
ATOM     25  O   UNL     1       9.751  -7.398  -0.459  0.00  0.00    -0.126 OA
ATOM     26  O   UNL     1       9.115  -8.209  -2.494  0.00  0.00    -0.126 OA
ENDBRANCH   7  24
BRANCH   1  27
ATOM     27  N   UNL     1       1.221  -4.446  -0.430  0.00  0.00    -0.157 N 
ATOM     28  H   UNL     1       1.471  -4.932  -1.232  0.00  0.00    +0.194 HD
BRANCH  27  29
ATOM     29  S   UNL     1      -0.278  -3.752  -0.316  0.00  0.00    +0.085 S 
ATOM     30  O   UNL     1      -0.849  -4.215   0.900  0.00  0.00    -0.149 OA
ATOM     31  O   UNL     1      -0.909  -3.939  -1.575  0.00  0.00    -0.149 OA
BRANCH  29  36
ATOM     32  C   UNL     1       0.551   2.190   0.327  0.00  0.00    +0.044 C 
ATOM     33  C   UNL     1       0.344   0.706   0.166  0.00  0.00    -0.050 A 
ATOM     34  C   UNL     1       0.334   0.142  -1.096  0.00  0.00    +0.005 A 
ATOM     35  C   UNL     1       0.144  -1.219  -1.243  0.00  0.00    +0.029 A 
ATOM     36  C   UNL     1      -0.035  -2.017  -0.128  0.00  0.00    +0.110 A 
ATOM     37  C   UNL     1      -0.023  -1.453   1.134  0.00  0.00    +0.029 A 
ATOM     38  C   UNL     1       0.171  -0.092   1.281  0.00  0.00    +0.005 A 
ENDBRANCH  29  36
ENDBRANCH  27  29
ENDBRANCH   1  27
TORSDOF 6
