REMARK  Name = ZINC40014683
REMARK  13 active torsions:
REMARK  status: ('A' for Active; 'I' for Inactive)
REMARK    1  A    between atoms: C_1  and  C_2
REMARK    2  A    between atoms: C_2  and  C_3
REMARK    3  A    between atoms: C_3  and  C_4
REMARK    4  A    between atoms: C_4  and  N_5
REMARK    5  A    between atoms: N_5  and  C_6
REMARK    6  A    between atoms: N_5  and  C_10
REMARK    7  A    between atoms: C_6  and  C_7
REMARK    8  A    between atoms: C_7  and  C_8
REMARK    9  A    between atoms: C_8  and  C_9
REMARK   10  A    between atoms: C_10  and  C_11
REMARK   11  A    between atoms: C_11  and  C_12
REMARK   12  A    between atoms: C_12  and  N_13
REMARK   13  A    between atoms: C_14  and  C_30
REMARK                            x       y       z     vdW  Elec       q    Type
REMARK                         _______ _______ _______ _____ _____    ______ ____
ROOT
ATOM      1  N   UNL     1       2.658  -6.195  -5.269  0.00  0.00    -0.284 N 
ATOM      2  C   UNL     1       3.993  -6.726  -4.950  0.00  0.00    +0.147 C 
ATOM      3  C   UNL     1       4.564  -7.197  -6.248  0.00  0.00    +0.072 A 
ATOM      4  C   UNL     1       5.858  -7.809  -6.569  0.00  0.00    +0.199 A 
ATOM      5  O   UNL     1       6.644  -8.191  -5.720  0.00  0.00    -0.287 OA
ATOM      6  C   UNL     1       6.119  -7.916  -8.026  0.00  0.00    +0.066 A 
ATOM      7  C   UNL     1       7.380  -8.289  -8.492  0.00  0.00    +0.035 A 
ATOM      8  C   UNL     1       7.606  -8.378  -9.848  0.00  0.00    +0.042 A 
ATOM      9  C   UNL     1       6.582  -8.098 -10.744  0.00  0.00    +0.023 A 
ATOM     10  C   UNL     1       5.333  -7.731 -10.296  0.00  0.00    +0.048 A 
ATOM     11  C   UNL     1       5.079  -7.636  -8.928  0.00  0.00    +0.140 A 
ATOM     12  O   UNL     1       3.840  -7.283  -8.514  0.00  0.00    -0.450 OA
ATOM     13  C   UNL     1       3.635  -6.963  -7.221  0.00  0.00    +0.199 A 
ATOM     14  C   UNL     1       2.455  -6.342  -6.594  0.00  0.00    +0.283 C 
ATOM     15  O   UNL     1       1.448  -6.008  -7.186  0.00  0.00    -0.267 OA
ATOM     16 CL   UNL     1       9.171  -8.842 -10.438  0.00  0.00    -0.084 Cl
ENDROOT
BRANCH   2  17
ATOM     17  C   UNL     1       3.879  -7.875  -3.982  0.00  0.00    +0.013 A 
ATOM     18  C   UNL     1       2.729  -8.640  -3.951  0.00  0.00    +0.008 A 
ATOM     19  C   UNL     1       2.624  -9.695  -3.063  0.00  0.00    +0.001 A 
ATOM     20  C   UNL     1       3.669  -9.985  -2.206  0.00  0.00    +0.003 A 
ATOM     21  C   UNL     1       4.820  -9.221  -2.236  0.00  0.00    +0.039 A 
ATOM     22  C   UNL     1       4.929  -8.168  -3.129  0.00  0.00    +0.129 A 
ATOM     23  F   UNL     1       6.056  -7.424  -3.162  0.00  0.00    -0.205 F 
ENDBRANCH   2  17
BRANCH   1  24
ATOM     24  C   UNL     1       1.711  -5.616  -4.312  0.00  0.00    +0.107 C 
BRANCH  24  25
ATOM     25  C   UNL     1       1.866  -4.093  -4.301  0.00  0.00    +0.000 C 
BRANCH  25  26
ATOM     26  C   UNL     1       0.966  -3.498  -3.216  0.00  0.00    -0.077 C 
BRANCH  26  27
ATOM     27  N   UNL     1       1.204  -2.051  -3.123  0.00  0.00    +0.380 N 
ATOM     28  H   UNL     1       2.186  -1.881  -2.969  0.00  0.00    -0.082 HD
BRANCH  27  29
ATOM     29  C   UNL     1       0.785  -1.405  -4.374  0.00  0.00    -0.079 C 
BRANCH  29  30
ATOM     30  C   UNL     1       1.146   0.081  -4.326  0.00  0.00    -0.019 C 
BRANCH  30  32
ATOM     31  C   UNL     1       1.071   2.240  -5.582  0.00  0.00    +0.004 C 
ATOM     32  C   UNL     1       0.710   0.754  -5.629  0.00  0.00    -0.005 C 
ENDBRANCH  30  32
ENDBRANCH  29  30
ENDBRANCH  27  29
BRANCH  27  33
ATOM     33  C   UNL     1       0.429  -1.499  -2.004  0.00  0.00    -0.079 C 
BRANCH  33  34
ATOM     34  C   UNL     1       0.973  -2.053  -0.685  0.00  0.00    -0.019 C 
BRANCH  34  35
ATOM     35  C   UNL     1       0.123  -1.532   0.476  0.00  0.00    -0.005 C 
ATOM     36  C   UNL     1       0.667  -2.086   1.794  0.00  0.00    +0.004 C 
ENDBRANCH  34  35
ENDBRANCH  33  34
ENDBRANCH  27  33
ENDBRANCH  26  27
ENDBRANCH  25  26
ENDBRANCH  24  25
ENDBRANCH   1  24
TORSDOF 11
