REMARK  Name = ZINC12213698
REMARK  12 active torsions:
REMARK  status: ('A' for Active; 'I' for Inactive)
REMARK    1  A    between atoms: C_1  and  C_2
REMARK    2  A    between atoms: C_2  and  C_3
REMARK    3  A    between atoms: C_2  and  C_4
REMARK    4  A    between atoms: C_4  and  C_5
REMARK    5  A    between atoms: C_5  and  C_19
REMARK    6  A    between atoms: N_8  and  C_12
REMARK    7  A    between atoms: C_12  and  C_13
REMARK    8  A    between atoms: C_13  and  C_14
REMARK    9  A    between atoms: C_24  and  C_25
REMARK   10  A    between atoms: C_24  and  N_68
REMARK   11  A    between atoms: C_30  and  O_31
REMARK   12  A    between atoms: O_31  and  C_32
REMARK                            x       y       z     vdW  Elec       q    Type
REMARK                         _______ _______ _______ _____ _____    ______ ____
ROOT
ATOM      1  C   UNL     1      -6.822  -1.244   1.394  0.00  0.00    +0.115 C 
ATOM      2  C   UNL     1      -5.325  -1.335   1.619  0.00  0.00    +0.247 C 
ATOM      3  O   UNL     1      -4.632  -2.326   1.541  0.00  0.00    -0.273 OA
ATOM      4  N   UNL     1      -4.926  -0.085   1.924  0.00  0.00    -0.224 N 
ATOM      5  C   UNL     1      -5.953   0.774   1.928  0.00  0.00    +0.309 C 
ATOM      6  O   UNL     1      -5.842   1.958   2.179  0.00  0.00    -0.252 OA
ATOM      7  N   UNL     1      -7.120   0.180   1.620  0.00  0.00    -0.285 N 
ATOM      8  H   UNL     1      -7.989   0.607   1.560  0.00  0.00    +0.151 HD
ENDROOT
BRANCH   1   9
ATOM      9  C   UNL     1      -7.572  -2.118   2.402  0.00  0.00    +0.018 C 
ATOM     10  C   UNL     1      -9.079  -1.988   2.169  0.00  0.00    -0.013 C 
ATOM     11  C   UNL     1      -9.825  -2.815   3.219  0.00  0.00    -0.078 C 
ATOM     12  C   UNL     1      -8.040  -2.493   4.825  0.00  0.00    -0.078 C 
ATOM     13  C   UNL     1      -7.241  -1.656   3.824  0.00  0.00    -0.013 C 
ATOM     14  N   UNL     1      -9.483  -2.306   4.564  0.00  0.00    +0.382 N 
ATOM     15  H   UNL     1      -9.702  -1.303   4.606  0.00  0.00    -0.081 HD
BRANCH  14  16
ATOM     16  C   UNL     1     -10.278  -3.013   5.588  0.00  0.00    -0.039 C 
BRANCH  16  17
ATOM     17  C   UNL     1     -11.723  -3.042   5.160  0.00  0.00    -0.022 A 
ATOM     18  C   UNL     1     -12.616  -2.125   5.678  0.00  0.00    +0.005 A 
ATOM     19  C   UNL     1     -13.941  -2.151   5.286  0.00  0.00    +0.000 A 
ATOM     20  C   UNL     1     -14.376  -3.094   4.373  0.00  0.00    +0.004 A 
ATOM     21  C   UNL     1     -13.487  -4.014   3.852  0.00  0.00    +0.046 A 
ATOM     22  C   UNL     1     -12.155  -3.986   4.241  0.00  0.00    +0.121 A 
BRANCH  22  23
ATOM     23  O   UNL     1     -11.277  -4.886   3.725  0.00  0.00    -0.495 OA
ATOM     24  C   UNL     1     -11.793  -5.830   2.783  0.00  0.00    +0.277 C 
ENDBRANCH  22  23
ENDBRANCH  16  17
ENDBRANCH  14  16
ENDBRANCH   1   9
BRANCH   1  25
ATOM     25  C   UNL     1      -7.177  -1.652  -0.037  0.00  0.00    +0.038 C 
BRANCH  25  27
ATOM     26  C   UNL     1      -6.574  -1.331  -2.441  0.00  0.00    +0.007 C 
ATOM     27  C   UNL     1      -6.394  -0.782  -1.024  0.00  0.00    -0.015 C 
ATOM     28  C   UNL     1      -6.917   0.654  -0.964  0.00  0.00    +0.007 C 
ENDBRANCH  25  27
ENDBRANCH   1  25
BRANCH   4  29
ATOM     29  C   UNL     1      -3.541   0.288   2.221  0.00  0.00    +0.123 C 
BRANCH  29  30
ATOM     30  C   UNL     1      -2.831   0.686   0.925  0.00  0.00    +0.062 C 
BRANCH  30  31
ATOM     31  C   UNL     1      -1.406   1.069   1.231  0.00  0.00    -0.009 A 
ATOM     32  C   UNL     1      -0.299   0.287   1.260  0.00  0.00    +0.011 A 
ATOM     33  C   UNL     1       0.920   0.863   1.562  0.00  0.00    +0.008 A 
ATOM     34  C   UNL     1       0.973   2.191   1.826  0.00  0.00    +0.045 A 
ATOM     35  S   UNL     1      -0.737   2.671   1.649  0.00  0.00    -0.102 S 
ENDBRANCH  30  31
ENDBRANCH  29  30
ENDBRANCH   4  29
TORSDOF 9
