REMARK  Name = ZINC15933960
REMARK  4 active torsions:
REMARK  status: ('A' for Active; 'I' for Inactive)
REMARK    1  A    between atoms: C_9  and  C_12
REMARK    2  A    between atoms: C_10  and  O_11
REMARK    3  A    between atoms: N_14  and  N_15
REMARK    4  A    between atoms: N_18  and  C_19
REMARK                            x       y       z     vdW  Elec       q    Type
REMARK                         _______ _______ _______ _____ _____    ______ ____
ROOT
ATOM      1  C   UNL     1       4.968  -2.730  -0.037  0.00  0.00    +0.264 C 
ATOM      2  O   UNL     1       6.014  -2.108  -0.045  0.00  0.00    -0.269 OA
ATOM      3  N   UNL     1       4.985  -4.077  -0.050  0.00  0.00    -0.229 N 
ATOM      4  H   UNL     1       4.152  -4.573  -0.043  0.00  0.00    +0.173 HD
ENDROOT
BRANCH   1  13
ATOM      5  C   UNL     1      -0.017   1.357   0.076  0.00  0.00    +0.001 A 
ATOM      6  C   UNL     1       1.168   2.090   0.067  0.00  0.00    +0.001 A 
ATOM      7  C   UNL     1       2.377   1.465   0.043  0.00  0.00    +0.012 A 
ATOM      8  C   UNL     1       2.435   0.062   0.027  0.00  0.00    +0.024 A 
ATOM      9  C   UNL     1       1.231  -0.684   0.037  0.00  0.00    -0.014 A 
ATOM     10  C   UNL     1       0.002  -0.005   0.062  0.00  0.00    +0.008 A 
ATOM     11  C   UNL     1       1.281  -2.092   0.022  0.00  0.00    +0.009 A 
ATOM     12  C   UNL     1       2.476  -2.732  -0.002  0.00  0.00    +0.017 A 
ATOM     13  C   UNL     1       3.684  -2.009  -0.012  0.00  0.00    +0.080 A 
ATOM     14  C   UNL     1       3.671  -0.616   0.003  0.00  0.00    +0.137 A 
BRANCH  14  15
ATOM     15  O   UNL     1       4.833   0.079  -0.007  0.00  0.00    -0.505 OA
ATOM     16  H   UNL     1       5.183   0.273   0.873  0.00  0.00    +0.292 HD
ENDBRANCH  14  15
ENDBRANCH   1  13
BRANCH   3  17
ATOM     17  N   UNL     1       6.207  -4.762  -0.074  0.00  0.00    -0.218 N 
ATOM     18  C   UNL     1       6.224  -6.110  -0.087  0.00  0.00    +0.320 C 
ATOM     19  O   UNL     1       7.284  -6.705  -0.107  0.00  0.00    -0.251 OA
ATOM     20  N   UNL     1       5.065  -6.798  -0.077  0.00  0.00    -0.268 N 
ATOM     21  H   UNL     1       7.041  -4.267  -0.081  0.00  0.00    +0.174 HD
ATOM     22  H   UNL     1       4.222  -6.327   0.007  0.00  0.00    +0.156 HD
BRANCH  20  23
ATOM     23  C   UNL     1       5.079  -8.194  -0.189  0.00  0.00    +0.035 A 
ATOM     24  C   UNL     1       4.069  -8.846  -0.884  0.00  0.00    +0.026 A 
ATOM     25  C   UNL     1       4.085 -10.223  -0.994  0.00  0.00    +0.040 A 
ATOM     26  C   UNL     1       5.107 -10.953  -0.411  0.00  0.00    +0.124 A 
ATOM     27  C   UNL     1       6.115 -10.305   0.283  0.00  0.00    +0.040 A 
ATOM     28  C   UNL     1       6.106  -8.928   0.389  0.00  0.00    +0.026 A 
ATOM     29  F   UNL     1       5.121 -12.300  -0.519  0.00  0.00    -0.205 F 
ENDBRANCH  20  23
ENDBRANCH   3  17
TORSDOF 4
