REMARK  Name = ZINC04210686
REMARK  9 active torsions:
REMARK  status: ('A' for Active; 'I' for Inactive)
REMARK    1  A    between atoms: C_1  and  O_2
REMARK    2  A    between atoms: O_2  and  C_3
REMARK    3  A    between atoms: C_5  and  C_22
REMARK    4  A    between atoms: C_8  and  O_9
REMARK    5  A    between atoms: O_9  and  C_10
REMARK    6  A    between atoms: C_10  and  C_12
REMARK    7  A    between atoms: N_23  and  N_24
REMARK    8  A    between atoms: C_25  and  C_27
REMARK    9  A    between atoms: C_32  and  O_33
REMARK                            x       y       z     vdW  Elec       q    Type
REMARK                         _______ _______ _______ _____ _____    ______ ____
ROOT
ATOM      1  C   UNL     1       5.780   7.653  -0.054  0.00  0.00    +0.163 A 
ATOM      2  C   UNL     1       5.973   9.022  -0.042  0.00  0.00    +0.059 A 
ATOM      3  C   UNL     1       4.871   9.878   0.034  0.00  0.00    -0.002 A 
ATOM      4  C   UNL     1       3.580   9.347   0.096  0.00  0.00    +0.013 A 
ATOM      5  C   UNL     1       3.396   7.981   0.078  0.00  0.00    +0.051 A 
ATOM      6  C   UNL     1       4.490   7.130   0.008  0.00  0.00    +0.173 A 
ENDROOT
BRANCH   1   8
ATOM      7  C   UNL     1       8.143   7.421  -0.189  0.00  0.00    +0.277 C 
ATOM      8  O   UNL     1       6.849   6.816  -0.128  0.00  0.00    -0.491 OA
ENDBRANCH   1   8
BRANCH   3   9
ATOM      9  C   UNL     1       5.071  11.339   0.049  0.00  0.00    +0.138 C 
ATOM     10  N   UNL     1       4.047  12.133   0.119  0.00  0.00    -0.187 NA
BRANCH  10  11
ATOM     11  N   UNL     1       4.236  13.521   0.133  0.00  0.00    -0.203 N 
ATOM     12  C   UNL     1       3.173  14.346   0.205  0.00  0.00    +0.267 C 
ATOM     13  O   UNL     1       2.048  13.885   0.259  0.00  0.00    -0.268 OA
ATOM     14  H   UNL     1       5.133  13.889   0.090  0.00  0.00    +0.178 HD
BRANCH  12  15
ATOM     15  C   UNL     1       3.372  15.807   0.220  0.00  0.00    +0.080 A 
ATOM     16  C   UNL     1       4.662  16.341   0.164  0.00  0.00    +0.017 A 
ATOM     17  C   UNL     1       4.842  17.707   0.174  0.00  0.00    +0.001 A 
ATOM     18  C   UNL     1       3.749  18.555   0.249  0.00  0.00    +0.004 A 
ATOM     19  C   UNL     1       2.469  18.041   0.309  0.00  0.00    +0.046 A 
ATOM     20  C   UNL     1       2.269  16.669   0.296  0.00  0.00    +0.129 A 
BRANCH  20  21
ATOM     21  O   UNL     1       1.012  16.162   0.356  0.00  0.00    -0.506 OA
ATOM     22  H   UNL     1       0.696  16.000   1.255  0.00  0.00    +0.292 HD
ENDBRANCH  20  21
ENDBRANCH  12  15
ENDBRANCH  10  11
ENDBRANCH   3   9
BRANCH   6  23
ATOM     23  O   UNL     1       4.302   5.784  -0.005  0.00  0.00    -0.418 OA
BRANCH  23  24
ATOM     24  C   UNL     1       4.366   5.146   1.181  0.00  0.00    +0.353 C 
ATOM     25  O   UNL     1       4.675   5.758   2.186  0.00  0.00    -0.244 OA
BRANCH  24  26
ATOM     26  C   UNL     1       4.064   3.713   1.260  0.00  0.00    +0.116 A 
ATOM     27  C   UNL     1       4.075   2.902   2.354  0.00  0.00    +0.070 A 
ATOM     28  C   UNL     1       3.751   1.539   2.220  0.00  0.00    +0.008 A 
ATOM     29  C   UNL     1       3.706   0.544   3.230  0.00  0.00    +0.010 A 
ATOM     30  C   UNL     1       3.373  -0.737   2.928  0.00  0.00    +0.001 A 
ATOM     31  C   UNL     1       3.063  -1.123   1.629  0.00  0.00    +0.001 A 
ATOM     32  C   UNL     1       3.094  -0.186   0.616  0.00  0.00    +0.016 A 
ATOM     33  C   UNL     1       3.431   1.119   0.907  0.00  0.00    +0.022 A 
ATOM     34  S   UNL     1       3.592   2.602  -0.054  0.00  0.00    -0.080 S 
ATOM     35 CL   UNL     1       4.486   3.549   3.912  0.00  0.00    -0.082 Cl
ENDBRANCH  24  26
ENDBRANCH  23  24
ENDBRANCH   6  23
TORSDOF 8
