REMARK  Name = ZINC13017349
REMARK  4 active torsions:
REMARK  status: ('A' for Active; 'I' for Inactive)
REMARK    1  A    between atoms: C_3  and  N_38
REMARK    2  A    between atoms: C_6  and  C_7
REMARK    3  A    between atoms: N_31  and  C_34
REMARK    4  A    between atoms: C_34  and  C_35
REMARK                            x       y       z     vdW  Elec       q    Type
REMARK                         _______ _______ _______ _____ _____    ______ ____
ROOT
ATOM      1  C   UNL     1      -7.518  -1.657   1.327  0.00  0.00    +0.063 C 
ATOM      2  C   UNL     1      -8.008  -2.857   0.557  0.00  0.00    +0.032 A 
ATOM      3  C   UNL     1      -7.779  -3.207  -0.728  0.00  0.00    +0.109 A 
ATOM      4  N   UNL     1      -8.357  -4.384  -1.140  0.00  0.00    -0.225 NA
ATOM      5  C   UNL     1      -9.105  -5.113  -0.287  0.00  0.00    +0.147 A 
ATOM      6  S   UNL     1      -9.918  -6.593  -0.569  0.00  0.00    -0.023 SA
ATOM      7  S   UNL     1      -9.032  -4.170   1.168  0.00  0.00    -0.063 S 
ATOM      8  S   UNL     1      -6.782  -2.187  -1.809  0.00  0.00    -0.101 S 
ATOM      9  C   UNL     1      -6.726  -0.655  -0.845  0.00  0.00    +0.061 C 
ATOM     10  C   UNL     1      -6.365  -1.079   0.595  0.00  0.00    +0.019 C 
ATOM     11  C   UNL     1      -5.434  -0.005   1.146  0.00  0.00    +0.007 C 
ATOM     12  C   UNL     1      -5.607   1.172   0.108  0.00  0.00    +0.010 C 
ATOM     13  C   UNL     1      -5.540   0.271  -1.192  0.00  0.00    +0.015 C 
ATOM     14  C   UNL     1      -4.212  -0.493  -0.922  0.00  0.00    +0.092 C 
ATOM     15  C   UNL     1      -4.050  -0.539   0.627  0.00  0.00    +0.091 C 
ATOM     16  C   UNL     1      -2.987   0.493   0.902  0.00  0.00    +0.226 C 
ATOM     17  O   UNL     1      -2.637   0.865   2.002  0.00  0.00    -0.275 OA
ATOM     18  N   UNL     1      -2.491   0.936  -0.260  0.00  0.00    -0.231 N 
ATOM     19  C   UNL     1      -3.081   0.424  -1.346  0.00  0.00    +0.226 C 
ATOM     20  O   UNL     1      -2.759   0.655  -2.492  0.00  0.00    -0.275 OA
ENDROOT
BRANCH   1  26
ATOM     21  C   UNL     1      -8.784   0.089   2.598  0.00  0.00    +0.006 A 
ATOM     22  C   UNL     1      -9.792   1.030   2.692  0.00  0.00    +0.033 A 
ATOM     23  C   UNL     1     -10.642   1.242   1.622  0.00  0.00    +0.126 A 
ATOM     24  C   UNL     1     -10.482   0.514   0.458  0.00  0.00    +0.033 A 
ATOM     25  C   UNL     1      -9.471  -0.423   0.362  0.00  0.00    +0.006 A 
ATOM     26  C   UNL     1      -8.620  -0.634   1.431  0.00  0.00    -0.039 A 
BRANCH  23  27
ATOM     27  N   UNL     1     -11.725   2.246   1.724  0.00  0.00    +0.056 N 
ATOM     28  O   UNL     1     -12.474   2.432   0.782  0.00  0.00    -0.126 OA
ATOM     29  O   UNL     1     -11.866   2.887   2.751  0.00  0.00    -0.126 OA
ENDBRANCH  23  27
ENDBRANCH   1  26
BRANCH  18  30
ATOM     30  C   UNL     1      -1.395   1.905  -0.336  0.00  0.00    +0.241 C 
BRANCH  30  31
ATOM     31  C   UNL     1      -0.078   1.173  -0.365  0.00  0.00    +0.373 C 
ATOM     32  O   UNL     1      -0.057  -0.034  -0.326  0.00  0.00    -0.245 OA
ATOM     33  O   UNL     1       1.071   1.863  -0.439  0.00  0.00    -0.245 OA
ENDBRANCH  30  31
ENDBRANCH  18  30
TORSDOF 4
