REMARK  Name = ZINC33519561
REMARK  8 active torsions:
REMARK  status: ('A' for Active; 'I' for Inactive)
REMARK    1  A    between atoms: C_1  and  C_2
REMARK    2  A    between atoms: C_9  and  N_30
REMARK    3  A    between atoms: C_10  and  C_13
REMARK    4  A    between atoms: N_17  and  C_21
REMARK    5  A    between atoms: C_21  and  C_23
REMARK    6  A    between atoms: C_21  and  C_24
REMARK    7  A    between atoms: N_30  and  C_31
REMARK    8  A    between atoms: C_34  and  C_37
REMARK                            x       y       z     vdW  Elec       q    Type
REMARK                         _______ _______ _______ _____ _____    ______ ____
ROOT
ATOM      1  C   UNL     1       0.248   8.962   0.143  0.00  0.00    +0.047 C 
ATOM      2  C   UNL     1       1.205   7.801   0.227  0.00  0.00    -0.007 A 
ATOM      3  C   UNL     1       2.545   8.024   0.346  0.00  0.00    +0.008 A 
ATOM      4  C   UNL     1       3.422   6.934   0.423  0.00  0.00    +0.019 A 
ATOM      5  C   UNL     1       2.941   5.671   0.378  0.00  0.00    +0.096 A 
ATOM      6  N   UNL     1       1.603   5.438   0.258  0.00  0.00    -0.267 N 
ATOM      7  C   UNL     1       0.722   6.481   0.181  0.00  0.00    +0.145 A 
ATOM      8  N   UNL     1      -0.589   6.274   0.063  0.00  0.00    -0.214 NA
ATOM      9  C   UNL     1      -1.098   5.051   0.015  0.00  0.00    +0.134 A 
ATOM     10  C   UNL     1      -0.235   3.933   0.091  0.00  0.00    +0.081 A 
ATOM     11  C   UNL     1       1.155   4.165   0.222  0.00  0.00    +0.267 A 
ATOM     12  O   UNL     1       1.935   3.231   0.295  0.00  0.00    -0.267 OA
ENDROOT
BRANCH  10  13
ATOM     13  C   UNL     1      -0.749   2.616   0.042  0.00  0.00    +0.037 C 
ATOM     14  C   UNL     1      -0.451   1.805  -1.015  0.00  0.00    +0.077 C 
ATOM     15  C   UNL     1       0.245   2.108  -2.220  0.00  0.00    +0.259 C 
ATOM     16  O   UNL     1       0.680   3.227  -2.429  0.00  0.00    -0.269 OA
ATOM     17  N   UNL     1       0.405   1.141  -3.107  0.00  0.00    -0.248 N 
ATOM     18  C   UNL     1      -0.077  -0.101  -2.876  0.00  0.00    +0.121 C 
ATOM     19  S   UNL     1       0.013  -1.490  -3.871  0.00  0.00    -0.027 S 
ATOM     20  S   UNL     1      -0.834   0.078  -1.267  0.00  0.00    -0.061 S 
BRANCH  17  21
ATOM     21  C   UNL     1       1.116   1.418  -4.357  0.00  0.00    +0.110 C 
ATOM     22  C   UNL     1       2.390   0.573  -4.418  0.00  0.00    +0.033 C 
BRANCH  21  23
ATOM     23  C   UNL     1       0.229   1.073  -5.526  0.00  0.00    -0.027 A 
ATOM     24  C   UNL     1       0.769   0.479  -6.651  0.00  0.00    +0.005 A 
ATOM     25  C   UNL     1      -0.045   0.160  -7.722  0.00  0.00    +0.000 A 
ATOM     26  C   UNL     1      -1.398   0.442  -7.670  0.00  0.00    +0.000 A 
ATOM     27  C   UNL     1      -1.936   1.042  -6.547  0.00  0.00    +0.000 A 
ATOM     28  C   UNL     1      -1.123   1.357  -5.475  0.00  0.00    +0.005 A 
ENDBRANCH  21  23
ENDBRANCH  17  21
ENDBRANCH  10  13
BRANCH   9  29
ATOM     29  N   UNL     1      -2.459   4.870  -0.107  0.00  0.00    -0.326 N 
ATOM     30  H   UNL     1      -2.877   3.853  -0.146  0.00  0.00    +0.148 HD
BRANCH  29  31
ATOM     31  C   UNL     1      -3.348   6.032  -0.185  0.00  0.00    +0.072 C 
ATOM     32  C   UNL     1      -3.686   6.511   1.228  0.00  0.00    +0.022 C 
ATOM     33  C   UNL     1      -4.384   5.385   1.995  0.00  0.00    +0.005 C 
ATOM     34  C   UNL     1      -5.671   4.994   1.267  0.00  0.00    -0.014 C 
ATOM     35  C   UNL     1      -5.333   4.515  -0.146  0.00  0.00    +0.005 C 
ATOM     36  C   UNL     1      -4.636   5.640  -0.913  0.00  0.00    +0.022 C 
ATOM     37  C   UNL     1      -6.369   3.868   2.034  0.00  0.00    +0.007 C 
ENDBRANCH  29  31
ENDBRANCH   9  29
TORSDOF 5
