REMARK  Name = ZINC66638055
REMARK  6 active torsions:
REMARK  status: ('A' for Active; 'I' for Inactive)
REMARK    1  A    between atoms: C_6  and  S_7
REMARK    2  A    between atoms: S_7  and  C_8
REMARK    3  A    between atoms: C_8  and  C_9
REMARK    4  A    between atoms: N_11  and  C_12
REMARK    5  A    between atoms: C_12  and  C_13
REMARK    6  A    between atoms: N_17  and  C_18
REMARK                            x       y       z     vdW  Elec       q    Type
REMARK                         _______ _______ _______ _____ _____    ______ ____
ROOT
ATOM      1  C   UNL     1      -2.201  -3.540  -0.210  0.00  0.00    +0.224 C 
ATOM      2  O   UNL     1      -3.312  -3.053  -0.216  0.00  0.00    -0.275 OA
ATOM      3  N   UNL     1      -2.053  -4.878  -0.158  0.00  0.00    -0.307 N 
ATOM      4  H   UNL     1      -1.164  -5.268  -0.153  0.00  0.00    +0.149 HD
ENDROOT
BRANCH   1   5
ATOM      5  C   UNL     1      -0.988  -2.648  -0.259  0.00  0.00    +0.170 C 
BRANCH   5   6
ATOM      6  S   UNL     1      -1.514  -0.913  -0.321  0.00  0.00    -0.116 S 
BRANCH   6  12
ATOM      7  C   UNL     1      -0.022   1.378  -0.429  0.00  0.00    +0.016 A 
ATOM      8  C   UNL     1       1.165   2.083  -0.469  0.00  0.00    +0.016 A 
ATOM      9  C   UNL     1       2.373   1.408  -0.456  0.00  0.00    +0.018 A 
ATOM     10  C   UNL     1       2.396   0.025  -0.402  0.00  0.00    +0.016 A 
ATOM     11  C   UNL     1       1.213  -0.685  -0.361  0.00  0.00    +0.016 A 
ATOM     12  C   UNL     1      -0.002  -0.010  -0.374  0.00  0.00    +0.008 A 
ATOM     13 BR   UNL     1       3.996   2.377  -0.512  0.00  0.00    -0.050 Br
ENDBRANCH   6  12
ENDBRANCH   5   6
ENDBRANCH   1   5
BRANCH   3  14
ATOM     14  C   UNL     1      -3.232  -5.745  -0.111  0.00  0.00    +0.180 C 
BRANCH  14  15
ATOM     15  C   UNL     1      -2.795  -7.187  -0.059  0.00  0.00    +0.149 A 
ATOM     16  N   UNL     1      -1.569  -7.602  -0.051  0.00  0.00    -0.157 NA
ATOM     17  N   UNL     1      -1.583  -9.002   0.003  0.00  0.00    -0.254 N 
ATOM     18  C   UNL     1      -2.876  -9.390   0.025  0.00  0.00    +0.176 A 
ATOM     19  N   UNL     1      -3.632  -8.274  -0.006  0.00  0.00    -0.303 N 
ATOM     20  S   UNL     1      -3.449 -11.002   0.090  0.00  0.00    -0.011 S 
ATOM     21  H   UNL     1      -0.808  -9.585   0.020  0.00  0.00    +0.191 HD
BRANCH  19  22
ATOM     22  C   UNL     1      -5.096  -8.230   0.009  0.00  0.00    +0.091 C 
ATOM     23  C   UNL     1      -5.845  -9.525  -0.310  0.00  0.00    +0.027 C 
ATOM     24  C   UNL     1      -5.814  -8.993   1.124  0.00  0.00    +0.027 C 
ENDBRANCH  19  22
ENDBRANCH  14  15
ENDBRANCH   3  14
TORSDOF 6
