REMARK  Name = ZINC09947135
REMARK  8 active torsions:
REMARK  status: ('A' for Active; 'I' for Inactive)
REMARK    1  A    between atoms: C_1  and  C_2
REMARK    2  A    between atoms: C_2  and  C_3
REMARK    3  A    between atoms: C_12  and  C_13
REMARK    4  A    between atoms: C_13  and  C_15
REMARK    5  A    between atoms: C_15  and  S_16
REMARK    6  A    between atoms: S_16  and  C_17
REMARK    7  A    between atoms: N_30  and  C_31
REMARK    8  A    between atoms: C_31  and  C_32
REMARK                            x       y       z     vdW  Elec       q    Type
REMARK                         _______ _______ _______ _____ _____    ______ ____
ROOT
ATOM      1  C   UNL     1       2.624  -1.288   3.640  0.00  0.00    +0.198 A 
ATOM      2  N   UNL     1       3.344  -0.911   2.612  0.00  0.00    -0.120 NA
ATOM      3  N   UNL     1       2.469  -0.548   1.581  0.00  0.00    -0.109 NA
ATOM      4  C   UNL     1       1.238  -0.720   2.009  0.00  0.00    +0.240 A 
ATOM      5  N   UNL     1       1.304  -1.177   3.297  0.00  0.00    -0.256 N 
ATOM      6  C   UNL     1       0.140  -1.447   4.013  0.00  0.00    +0.064 A 
ATOM      7  C   UNL     1       0.196  -1.916   5.317  0.00  0.00    +0.027 A 
ATOM      8  C   UNL     1      -0.973  -2.176   6.004  0.00  0.00    +0.002 A 
ATOM      9  C   UNL     1      -2.205  -1.971   5.403  0.00  0.00    +0.001 A 
ATOM     10  C   UNL     1      -2.280  -1.505   4.107  0.00  0.00    +0.015 A 
ATOM     11  C   UNL     1      -1.107  -1.239   3.403  0.00  0.00    +0.064 A 
ATOM     12  C   UNL     1      -1.143  -0.740   2.016  0.00  0.00    +0.263 A 
ATOM     13  O   UNL     1      -2.205  -0.548   1.455  0.00  0.00    -0.267 OA
ATOM     14  N   UNL     1       0.022  -0.500   1.381  0.00  0.00    -0.272 N 
ENDROOT
BRANCH   1  15
ATOM     15  S   UNL     1       3.248  -1.840   5.193  0.00  0.00    -0.078 S 
BRANCH  15  16
ATOM     16  C   UNL     1       5.049  -1.753   4.999  0.00  0.00    +0.157 C 
BRANCH  16  17
ATOM     17  C   UNL     1       5.714  -2.205   6.274  0.00  0.00    +0.175 C 
ATOM     18  O   UNL     1       5.039  -2.552   7.221  0.00  0.00    -0.291 OA
BRANCH  17  28
ATOM     19  C   UNL     1      10.285  -2.797   8.048  0.00  0.00    -0.024 A 
ATOM     20  C   UNL     1       9.964  -3.253   9.308  0.00  0.00    +0.005 A 
ATOM     21  C   UNL     1       8.639  -3.404   9.689  0.00  0.00    +0.001 A 
ATOM     22  C   UNL     1       7.624  -3.098   8.808  0.00  0.00    +0.011 A 
ATOM     23  C   UNL     1       7.935  -2.631   7.535  0.00  0.00    +0.010 A 
ATOM     24  C   UNL     1       9.275  -2.483   7.145  0.00  0.00    +0.050 A 
ATOM     25  N   UNL     1       9.284  -2.016   5.846  0.00  0.00    -0.360 N 
ATOM     26  H   UNL     1      10.086  -1.825   5.334  0.00  0.00    +0.165 HD
ATOM     27  C   UNL     1       8.028  -1.863   5.386  0.00  0.00    +0.095 A 
ATOM     28  C   UNL     1       7.128  -2.225   6.366  0.00  0.00    +0.043 A 
BRANCH  19  30
ATOM     29  C   UNL     1      12.169  -1.192   7.886  0.00  0.00    +0.009 C 
ATOM     30  C   UNL     1      11.730  -2.639   7.649  0.00  0.00    +0.034 C 
ENDBRANCH  19  30
ENDBRANCH  17  28
ENDBRANCH  16  17
ENDBRANCH  15  16
ENDBRANCH   1  15
BRANCH  14  31
ATOM     31  C   UNL     1       0.002  -0.004   0.002  0.00  0.00    +0.163 C 
BRANCH  31  32
ATOM     32  C   UNL     1      -0.018   1.503   0.010  0.00  0.00    -0.028 A 
ATOM     33  C   UNL     1      -1.225   2.178   0.020  0.00  0.00    +0.005 A 
ATOM     34  C   UNL     1      -1.244   3.560   0.032  0.00  0.00    +0.000 A 
ATOM     35  C   UNL     1      -0.056   4.267   0.025  0.00  0.00    +0.000 A 
ATOM     36  C   UNL     1       1.151   3.592   0.010  0.00  0.00    +0.000 A 
ATOM     37  C   UNL     1       1.169   2.210   0.003  0.00  0.00    +0.005 A 
ENDBRANCH  31  32
ENDBRANCH  14  31
TORSDOF 7
