REMARK  Name = ZINC33268858
REMARK  12 active torsions:
REMARK  status: ('A' for Active; 'I' for Inactive)
REMARK    1  A    between atoms: C_1  and  C_2
REMARK    2  A    between atoms: C_2  and  C_3
REMARK    3  A    between atoms: C_2  and  C_4
REMARK    4  A    between atoms: C_7  and  C_10
REMARK    5  A    between atoms: C_10  and  N_11
REMARK    6  A    between atoms: N_11  and  C_12
REMARK    7  A    between atoms: N_11  and  C_16
REMARK    8  A    between atoms: C_12  and  C_13
REMARK    9  A    between atoms: C_13  and  O_14
REMARK   10  A    between atoms: O_14  and  C_15
REMARK   11  A    between atoms: C_16  and  C_17
REMARK   12  A    between atoms: C_22  and  C_27
REMARK                            x       y       z     vdW  Elec       q    Type
REMARK                         _______ _______ _______ _____ _____    ______ ____
ROOT
ATOM      1  C   UNL     1      -7.751   0.084  -1.866  0.00  0.00    +0.037 A 
ATOM      2  C   UNL     1      -8.324  -0.011  -3.116  0.00  0.00    +0.093 A 
ATOM      3  C   UNL     1      -9.210   0.977  -3.547  0.00  0.00    +0.259 A 
ATOM      4  O   UNL     1      -9.721   0.899  -4.654  0.00  0.00    -0.267 OA
ATOM      5  N   UNL     1      -9.506   2.032  -2.731  0.00  0.00    -0.256 N 
ATOM      6  C   UNL     1     -10.358   3.080  -3.014  0.00  0.00    +0.066 A 
ATOM      7  C   UNL     1     -10.561   4.061  -2.114  0.00  0.00    +0.075 A 
ATOM      8  S   UNL     1      -9.519   3.538  -0.761  0.00  0.00    -0.059 S 
ATOM      9  C   UNL     1      -8.893   2.048  -1.506  0.00  0.00    +0.159 A 
ATOM     10  N   UNL     1      -8.065   1.121  -1.093  0.00  0.00    -0.337 N 
ATOM     11  H   UNL     1      -7.670   1.194  -0.210  0.00  0.00    +0.168 HD
ENDROOT
BRANCH   6  12
ATOM     12  C   UNL     1     -11.054   3.127  -4.319  0.00  0.00    -0.000 A 
ATOM     13  C   UNL     1     -11.900   2.085  -4.699  0.00  0.00    +0.013 A 
ATOM     14  C   UNL     1     -12.547   2.134  -5.917  0.00  0.00    +0.039 A 
ATOM     15  C   UNL     1     -12.357   3.215  -6.762  0.00  0.00    +0.123 A 
ATOM     16  C   UNL     1     -11.518   4.253  -6.389  0.00  0.00    +0.039 A 
ATOM     17  C   UNL     1     -10.871   4.217  -5.171  0.00  0.00    +0.013 A 
ATOM     18  F   UNL     1     -12.992   3.257  -7.954  0.00  0.00    -0.205 F 
ENDBRANCH   6  12
BRANCH   1  19
ATOM     19  C   UNL     1      -6.792  -0.972  -1.380  0.00  0.00    +0.138 C 
BRANCH  19  20
ATOM     20  N   UNL     1      -5.456  -0.382  -1.217  0.00  0.00    -0.290 NA
BRANCH  20  21
ATOM     21  C   UNL     1      -4.521  -1.350  -0.628  0.00  0.00    +0.120 C 
BRANCH  21  25
ATOM     22  C   UNL     1      -0.896   0.639   0.444  0.00  0.00    -0.045 A 
ATOM     23  C   UNL     1      -1.930   0.548   1.356  0.00  0.00    +0.004 A 
ATOM     24  C   UNL     1      -3.104  -0.096   1.010  0.00  0.00    +0.005 A 
ATOM     25  C   UNL     1      -3.243  -0.648  -0.250  0.00  0.00    -0.033 A 
ATOM     26  C   UNL     1      -2.209  -0.556  -1.163  0.00  0.00    +0.005 A 
ATOM     27  C   UNL     1      -1.037   0.091  -0.818  0.00  0.00    +0.004 A 
BRANCH  22  29
ATOM     28  C   UNL     1       0.078   2.794   1.189  0.00  0.00    +0.012 C 
ATOM     29  C   UNL     1       0.383   1.340   0.822  0.00  0.00    +0.013 C 
ATOM     30  C   UNL     1       1.017   0.633   2.022  0.00  0.00    +0.012 C 
ENDBRANCH  22  29
ENDBRANCH  21  25
ENDBRANCH  20  21
BRANCH  20  31
ATOM     31  C   UNL     1      -4.947   0.129  -2.497  0.00  0.00    +0.113 C 
BRANCH  31  32
ATOM     32  C   UNL     1      -4.614  -1.046  -3.419  0.00  0.00    +0.174 C 
BRANCH  32  33
ATOM     33  O   UNL     1      -5.820  -1.720  -3.785  0.00  0.00    -0.382 OA
ATOM     34  C   UNL     1      -5.620  -2.840  -4.650  0.00  0.00    +0.194 C 
ENDBRANCH  32  33
ENDBRANCH  31  32
ENDBRANCH  20  31
ENDBRANCH  19  20
ENDBRANCH   1  19
TORSDOF 9
