REMARK  Name = ZINC13070106
REMARK  6 active torsions:
REMARK  status: ('A' for Active; 'I' for Inactive)
REMARK    1  A    between atoms: C_1  and  C_2
REMARK    2  A    between atoms: C_2  and  C_3
REMARK    3  A    between atoms: C_6  and  N_9
REMARK    4  A    between atoms: N_21  and  C_24
REMARK    5  A    between atoms: C_24  and  N_59
REMARK    6  A    between atoms: C_28  and  C_30
REMARK                            x       y       z     vdW  Elec       q    Type
REMARK                         _______ _______ _______ _____ _____    ______ ____
ROOT
ATOM      1  N   UNL     1       6.665   4.385  -4.807  0.00  0.00    -0.245 N 
ATOM      2  C   UNL     1       6.746   5.713  -5.022  0.00  0.00    +0.268 A 
ATOM      3  O   UNL     1       7.829   6.255  -5.138  0.00  0.00    -0.267 OA
ATOM      4  C   UNL     1       5.503   6.498  -5.115  0.00  0.00    +0.064 A 
ATOM      5  C   UNL     1       5.532   7.874  -5.338  0.00  0.00    +0.015 A 
ATOM      6  C   UNL     1       4.349   8.577  -5.420  0.00  0.00    +0.001 A 
ATOM      7  C   UNL     1       3.135   7.923  -5.283  0.00  0.00    +0.002 A 
ATOM      8  C   UNL     1       3.092   6.560  -5.061  0.00  0.00    +0.027 A 
ATOM      9  C   UNL     1       4.272   5.838  -4.976  0.00  0.00    +0.064 A 
ATOM     10  N   UNL     1       4.256   4.462  -4.755  0.00  0.00    -0.256 N 
ATOM     11  C   UNL     1       5.434   3.754  -4.672  0.00  0.00    +0.243 A 
ATOM     12  N   UNL     1       5.146   2.498  -4.463  0.00  0.00    -0.133 NA
ATOM     13  N   UNL     1       3.752   2.373  -4.405  0.00  0.00    -0.255 N 
ATOM     14  C   UNL     1       3.229   3.601  -4.594  0.00  0.00    +0.182 A 
ATOM     15  S   UNL     1       1.564   3.997  -4.621  0.00  0.00    -0.011 S 
ENDROOT
BRANCH   1  19
ATOM     16  C   UNL     1      10.162   2.134  -4.537  0.00  0.00    -0.047 A 
ATOM     17  C   UNL     1       9.612   2.695  -3.398  0.00  0.00    +0.005 A 
ATOM     18  C   UNL     1       8.454   3.441  -3.484  0.00  0.00    +0.026 A 
ATOM     19  C   UNL     1       7.840   3.629  -4.716  0.00  0.00    +0.053 A 
ATOM     20  C   UNL     1       8.391   3.059  -5.857  0.00  0.00    +0.026 A 
ATOM     21  C   UNL     1       9.553   2.319  -5.765  0.00  0.00    +0.005 A 
BRANCH  16  23
ATOM     22  C   UNL     1      11.070  -0.148  -4.197  0.00  0.00    +0.009 C 
ATOM     23  C   UNL     1      11.426   1.321  -4.439  0.00  0.00    +0.032 C 
ENDBRANCH  16  23
ENDBRANCH   1  19
BRANCH  13  24
ATOM     24  C   UNL     1       3.001   1.135  -4.187  0.00  0.00    +0.073 C 
BRANCH  24  29
ATOM     25  C   UNL     1       4.037   0.501  -2.076  0.00  0.00    -0.075 C 
ATOM     26  C   UNL     1       3.563  -0.164  -0.766  0.00  0.00    -0.020 C 
ATOM     27  C   UNL     1       2.111  -0.605  -1.042  0.00  0.00    -0.012 C 
ATOM     28  C   UNL     1       1.829  -0.169  -2.496  0.00  0.00    -0.028 C 
ATOM     29  N   UNL     1       2.786   0.913  -2.722  0.00  0.00    +0.398 N 
ATOM     30  H   UNL     1       2.440   1.781  -2.297  0.00  0.00    -0.078 HD
BRANCH  28  31
ATOM     31  C   UNL     1       0.411   0.321  -2.633  0.00  0.00    -0.024 A 
ATOM     32  C   UNL     1      -0.669  -0.322  -3.141  0.00  0.00    +0.009 A 
ATOM     33  C   UNL     1      -1.886   0.332  -3.171  0.00  0.00    +0.008 A 
ATOM     34  C   UNL     1      -1.966   1.594  -2.682  0.00  0.00    +0.045 A 
ATOM     35  S   UNL     1      -0.284   1.899  -2.168  0.00  0.00    -0.103 S 
ENDBRANCH  28  31
ENDBRANCH  24  29
ENDBRANCH  13  24
TORSDOF 5
