REMARK  Name = ZINC35072291
REMARK  6 active torsions:
REMARK  status: ('A' for Active; 'I' for Inactive)
REMARK    1  A    between atoms: C_1  and  C_2
REMARK    2  A    between atoms: C_2  and  C_4
REMARK    3  A    between atoms: C_2  and  N_25
REMARK    4  A    between atoms: N_14  and  C_15
REMARK    5  A    between atoms: N_25  and  C_26
REMARK    6  A    between atoms: N_29  and  C_30
REMARK                            x       y       z     vdW  Elec       q    Type
REMARK                         _______ _______ _______ _____ _____    ______ ____
ROOT
ATOM      1  C   UNL     1       0.766  -0.851  -0.928  0.00  0.00    +0.138 A 
ATOM      2  N   UNL     1       0.160  -1.580  -1.816  0.00  0.00    -0.231 NA
ATOM      3  C   UNL     1       0.532  -1.569  -3.120  0.00  0.00    +0.078 A 
ATOM      4  C   UNL     1      -0.120  -2.353  -4.074  0.00  0.00    +0.028 A 
ATOM      5  C   UNL     1       0.291  -2.310  -5.388  0.00  0.00    +0.002 A 
ATOM      6  C   UNL     1       1.347  -1.497  -5.777  0.00  0.00    +0.001 A 
ATOM      7  C   UNL     1       2.006  -0.715  -4.854  0.00  0.00    +0.015 A 
ATOM      8  C   UNL     1       1.606  -0.743  -3.519  0.00  0.00    +0.065 A 
ATOM      9  C   UNL     1       2.271   0.071  -2.491  0.00  0.00    +0.266 A 
ATOM     10  O   UNL     1       3.202   0.804  -2.769  0.00  0.00    -0.267 OA
ATOM     11  N   UNL     1       1.804  -0.023  -1.224  0.00  0.00    -0.263 N 
ENDROOT
BRANCH  11  12
ATOM     12  C   UNL     1       2.399   0.735  -0.208  0.00  0.00    +0.052 A 
ATOM     13  C   UNL     1       3.585   0.288   0.386  0.00  0.00    +0.027 A 
ATOM     14  C   UNL     1       4.184   1.003   1.374  0.00  0.00    +0.010 A 
ATOM     15  C   UNL     1       3.611   2.209   1.813  0.00  0.00    -0.018 A 
ATOM     16  C   UNL     1       4.208   2.969   2.833  0.00  0.00    +0.008 A 
ATOM     17  C   UNL     1       3.627   4.133   3.234  0.00  0.00    +0.001 A 
ATOM     18  C   UNL     1       2.446   4.585   2.649  0.00  0.00    +0.001 A 
ATOM     19  C   UNL     1       1.839   3.876   1.658  0.00  0.00    +0.008 A 
ATOM     20  C   UNL     1       2.409   2.669   1.217  0.00  0.00    -0.016 A 
ATOM     21  C   UNL     1       1.813   1.915   0.194  0.00  0.00    +0.034 A 
ENDBRANCH  11  12
BRANCH   1  23
ATOM     22  C   UNL     1      -0.948  -0.040   0.669  0.00  0.00    +0.036 C 
ATOM     23  C   UNL     1       0.291  -0.921   0.500  0.00  0.00    +0.141 C 
BRANCH  23  24
ATOM     24  N   UNL     1      -0.044  -2.307   0.836  0.00  0.00    -0.279 N 
ATOM     25  C   UNL     1      -1.085  -3.011   0.083  0.00  0.00    +0.134 C 
ATOM     26  C   UNL     1       0.604  -2.933   1.838  0.00  0.00    +0.307 C 
ATOM     27  O   UNL     1       1.467  -2.348   2.463  0.00  0.00    -0.252 OA
ATOM     28  N   UNL     1       0.295  -4.208   2.147  0.00  0.00    -0.267 N 
ATOM     29  H   UNL     1      -0.440  -4.652   1.695  0.00  0.00    +0.156 HD
BRANCH  28  30
ATOM     30  C   UNL     1       1.035  -4.892   3.121  0.00  0.00    +0.070 A 
ATOM     31  C   UNL     1       1.657  -4.189   4.143  0.00  0.00    +0.029 A 
ATOM     32  C   UNL     1       2.385  -4.864   5.103  0.00  0.00    +0.040 A 
ATOM     33  C   UNL     1       2.497  -6.244   5.046  0.00  0.00    +0.126 A 
ATOM     34  C   UNL     1       1.878  -6.949   4.028  0.00  0.00    +0.078 A 
ATOM     35  C   UNL     1       1.143  -6.277   3.068  0.00  0.00    +0.147 A 
ATOM     36  F   UNL     1       0.534  -6.966   2.078  0.00  0.00    -0.203 F 
ATOM     37  F   UNL     1       3.211  -6.902   5.986  0.00  0.00    -0.205 F 
ENDBRANCH  28  30
ENDBRANCH  23  24
ENDBRANCH   1  23
TORSDOF 4
