REMARK  Name = ZINC34956507
REMARK  11 active torsions:
REMARK  status: ('A' for Active; 'I' for Inactive)
REMARK    1  A    between atoms: C_1  and  C_2
REMARK    2  A    between atoms: C_4  and  C_26
REMARK    3  A    between atoms: C_7  and  N_8
REMARK    4  A    between atoms: C_9  and  C_11
REMARK    5  A    between atoms: C_11  and  C_13
REMARK    6  A    between atoms: C_11  and  C_22
REMARK    7  A    between atoms: C_16  and  N_19
REMARK    8  A    between atoms: C_22  and  C_23
REMARK    9  A    between atoms: C_22  and  C_24
REMARK   10  A    between atoms: C_26  and  C_28
REMARK   11  A    between atoms: C_26  and  C_30
REMARK                            x       y       z     vdW  Elec       q    Type
REMARK                         _______ _______ _______ _____ _____    ______ ____
ROOT
ATOM      1  C   UNL     1       0.633   0.074   0.408  0.00  0.00    +0.045 C 
ATOM      2  C   UNL     1      -0.230  -1.155   0.290  0.00  0.00    -0.029 A 
ATOM      3  C   UNL     1      -0.596  -1.627  -0.956  0.00  0.00    +0.011 A 
ATOM      4  C   UNL     1      -1.387  -2.755  -1.066  0.00  0.00    -0.008 A 
ATOM      5  C   UNL     1      -1.816  -3.416   0.072  0.00  0.00    +0.047 A 
ATOM      6  C   UNL     1      -1.453  -2.949   1.322  0.00  0.00    +0.044 A 
ATOM      7  C   UNL     1      -0.654  -1.819   1.434  0.00  0.00    +0.038 A 
ATOM      8 CL   UNL     1      -2.810  -4.832  -0.070  0.00  0.00    -0.083 Cl
ENDROOT
BRANCH   7   9
ATOM      9  N   UNL     1      -0.280  -1.347   2.697  0.00  0.00    -0.285 N 
ATOM     10  C   UNL     1      -0.383  -2.151   3.774  0.00  0.00    +0.225 C 
ATOM     11  O   UNL     1      -0.700  -3.313   3.635  0.00  0.00    -0.275 OA
ATOM     12  H   UNL     1       0.053  -0.442   2.797  0.00  0.00    +0.155 HD
BRANCH  10  13
ATOM     13  C   UNL     1      -0.104  -1.605   5.151  0.00  0.00    +0.108 C 
BRANCH  13  14
ATOM     14  C   UNL     1       0.155  -2.746   6.100  0.00  0.00    -0.035 A 
ATOM     15  C   UNL     1      -0.816  -3.707   6.308  0.00  0.00    +0.006 A 
ATOM     16  C   UNL     1      -0.579  -4.753   7.179  0.00  0.00    +0.033 A 
ATOM     17  C   UNL     1       0.631  -4.840   7.842  0.00  0.00    +0.126 A 
ATOM     18  C   UNL     1       1.603  -3.879   7.634  0.00  0.00    +0.033 A 
ATOM     19  C   UNL     1       1.367  -2.835   6.760  0.00  0.00    +0.006 A 
BRANCH  17  20
ATOM     20  N   UNL     1       0.885  -5.960   8.776  0.00  0.00    +0.056 N 
ATOM     21  O   UNL     1       0.035  -6.799   8.958  0.00  0.00    -0.126 OA
ATOM     22  O   UNL     1       1.943  -6.035   9.356  0.00  0.00    -0.126 OA
ENDBRANCH  17  20
ENDBRANCH  13  14
BRANCH  13  23
ATOM     23  C   UNL     1      -1.312  -0.802   5.636  0.00  0.00    -0.001 C 
ATOM     24  C   UNL     1      -1.083  -0.358   7.082  0.00  0.00    +0.008 C 
ATOM     25  C   UNL     1      -1.496   0.430   4.747  0.00  0.00    +0.008 C 
ENDBRANCH  13  23
ENDBRANCH  10  13
ENDBRANCH   7   9
BRANCH   4  26
ATOM     26  C   UNL     1      -1.785  -3.265  -2.427  0.00  0.00    +0.153 C 
BRANCH  26  27
ATOM     27  C   UNL     1      -0.549  -3.644  -3.202  0.00  0.00    -0.026 A 
ATOM     28  C   UNL     1       0.355  -2.670  -3.580  0.00  0.00    +0.006 A 
ATOM     29  C   UNL     1       1.489  -3.017  -4.291  0.00  0.00    +0.020 A 
ATOM     30  C   UNL     1       1.718  -4.340  -4.624  0.00  0.00    +0.041 A 
ATOM     31  C   UNL     1       0.813  -5.315  -4.245  0.00  0.00    +0.020 A 
ATOM     32  C   UNL     1      -0.317  -4.967  -3.529  0.00  0.00    +0.006 A 
ATOM     33 CL   UNL     1       3.142  -4.776  -5.517  0.00  0.00    -0.084 Cl
ENDBRANCH  26  27
BRANCH  26  34
ATOM     34  C   UNL     1      -2.515  -2.213  -3.152  0.00  0.00    +0.075 C 
ATOM     35  N   UNL     1      -3.078  -1.400  -3.711  0.00  0.00    -0.196 NA
ENDBRANCH  26  34
ENDBRANCH   4  26
TORSDOF 8
