REMARK  Name = ZINC22535991
REMARK  6 active torsions:
REMARK  status: ('A' for Active; 'I' for Inactive)
REMARK    1  A    between atoms: C_3  and  S_20
REMARK    2  A    between atoms: C_6  and  N_7
REMARK    3  A    between atoms: C_8  and  C_10
REMARK    4  A    between atoms: C_11  and  C_12
REMARK    5  A    between atoms: S_20  and  N_23
REMARK    6  A    between atoms: N_23  and  C_24
REMARK                            x       y       z     vdW  Elec       q    Type
REMARK                         _______ _______ _______ _____ _____    ______ ____
ROOT
ATOM      1  C   UNL     1      -0.951   1.941   1.660  0.00  0.00    +0.025 A 
ATOM      2  C   UNL     1      -0.001   2.835   2.114  0.00  0.00    +0.031 A 
ATOM      3  C   UNL     1       1.315   2.435   2.257  0.00  0.00    +0.111 A 
ATOM      4  C   UNL     1       1.684   1.139   1.948  0.00  0.00    +0.031 A 
ATOM      5  C   UNL     1       0.739   0.240   1.494  0.00  0.00    +0.025 A 
ATOM      6  C   UNL     1      -0.583   0.638   1.349  0.00  0.00    +0.034 A 
ENDROOT
BRANCH   6   7
ATOM      7  N   UNL     1      -1.542  -0.270   0.890  0.00  0.00    -0.282 N 
ATOM      8  C   UNL     1      -2.632   0.175   0.234  0.00  0.00    +0.241 C 
ATOM      9  O   UNL     1      -2.743   1.358  -0.031  0.00  0.00    -0.270 OA
ATOM     10  H   UNL     1      -1.423  -1.220   1.044  0.00  0.00    +0.155 HD
BRANCH   8  11
ATOM     11  C   UNL     1      -3.683  -0.764  -0.160  0.00  0.00    +0.068 C 
ATOM     12  C   UNL     1      -4.709  -0.344  -0.929  0.00  0.00    +0.013 C 
BRANCH  12  13
ATOM     13  C   UNL     1      -4.659   0.983  -1.562  0.00  0.00    -0.023 A 
ATOM     14  C   UNL     1      -3.506   1.397  -2.237  0.00  0.00    +0.009 A 
ATOM     15  C   UNL     1      -3.466   2.641  -2.828  0.00  0.00    +0.022 A 
ATOM     16  C   UNL     1      -4.564   3.483  -2.754  0.00  0.00    +0.059 A 
ATOM     17  C   UNL     1      -5.710   3.080  -2.087  0.00  0.00    +0.060 A 
ATOM     18  C   UNL     1      -5.766   1.835  -1.495  0.00  0.00    +0.029 A 
ATOM     19 CL   UNL     1      -7.081   4.143  -2.000  0.00  0.00    -0.082 Cl
ATOM     20 CL   UNL     1      -4.504   5.049  -3.501  0.00  0.00    -0.082 Cl
ENDBRANCH  12  13
ENDBRANCH   8  11
ENDBRANCH   6   7
BRANCH   3  21
ATOM     21  S   UNL     1       2.523   3.579   2.836  0.00  0.00    +0.093 S 
ATOM     22  O   UNL     1       3.781   3.115   2.364  0.00  0.00    -0.148 OA
ATOM     23  O   UNL     1       2.030   4.878   2.536  0.00  0.00    -0.148 OA
BRANCH  21  24
ATOM     24  N   UNL     1       2.562   3.458   4.487  0.00  0.00    -0.070 NA
BRANCH  24  25
ATOM     25  C   UNL     1       3.432   4.250   5.220  0.00  0.00    +0.201 A 
ATOM     26  N   UNL     1       4.286   5.150   4.780  0.00  0.00    -0.231 NA
ATOM     27  C   UNL     1       5.052   5.829   5.616  0.00  0.00    +0.120 A 
ATOM     28  C   UNL     1       4.916   5.556   6.936  0.00  0.00    +0.068 A 
ATOM     29  S   UNL     1       3.647   4.301   6.888  0.00  0.00    -0.058 S 
ENDBRANCH  24  25
ENDBRANCH  21  24
ENDBRANCH   3  21
TORSDOF 6
