REMARK  Name = ZINC03037887
REMARK  4 active torsions:
REMARK  status: ('A' for Active; 'I' for Inactive)
REMARK    1  A    between atoms: C_12  and  C_32
REMARK    2  A    between atoms: N_14  and  C_15
REMARK    3  A    between atoms: C_17  and  C_27
REMARK    4  A    between atoms: C_20  and  N_21
REMARK                            x       y       z     vdW  Elec       q    Type
REMARK                         _______ _______ _______ _____ _____    ______ ____
ROOT
ATOM      1  C   UNL     1       3.054   1.859  -6.434  0.00  0.00    +0.001 A 
ATOM      2  C   UNL     1       3.690   2.537  -5.398  0.00  0.00    +0.001 A 
ATOM      3  C   UNL     1       4.219   1.858  -4.338  0.00  0.00    +0.009 A 
ATOM      4  C   UNL     1       4.121   0.465  -4.291  0.00  0.00    -0.007 A 
ATOM      5  C   UNL     1       3.474  -0.228  -5.342  0.00  0.00    -0.017 A 
ATOM      6  C   UNL     1       2.942   0.501  -6.418  0.00  0.00    +0.008 A 
ATOM      7  C   UNL     1       3.373  -1.632  -5.290  0.00  0.00    +0.012 A 
ATOM      8  C   UNL     1       3.879  -2.333  -4.243  0.00  0.00    +0.047 A 
ATOM      9  C   UNL     1       4.527  -1.700  -3.179  0.00  0.00    +0.138 A 
ATOM     10  C   UNL     1       4.677  -0.306  -3.178  0.00  0.00    +0.026 A 
ATOM     11  C   UNL     1       5.350   0.336  -2.117  0.00  0.00    +0.030 A 
ATOM     12  C   UNL     1       6.038  -0.454  -1.202  0.00  0.00    +0.097 A 
ATOM     13  C   UNL     1       6.036  -1.911  -1.438  0.00  0.00    +0.212 A 
ATOM     14  N   UNL     1       7.005  -2.676  -0.984  0.00  0.00    -0.324 N 
ATOM     15  O   UNL     1       4.997  -2.432  -2.140  0.00  0.00    -0.439 OA
ATOM     16  H   UNL     1       7.750  -2.282  -0.504  0.00  0.00    +0.169 HD
ENDROOT
BRANCH  14  17
ATOM     17  C   UNL     1       6.962  -4.028  -1.189  0.00  0.00    +0.064 A 
ATOM     18  C   UNL     1       5.814  -4.751  -0.865  0.00  0.00    +0.040 A 
ATOM     19  C   UNL     1       5.776  -6.115  -1.075  0.00  0.00    +0.057 A 
ATOM     20  C   UNL     1       6.874  -6.770  -1.605  0.00  0.00    +0.014 A 
ATOM     21  C   UNL     1       8.019  -6.065  -1.930  0.00  0.00    +0.026 A 
ATOM     22  C   UNL     1       8.071  -4.695  -1.732  0.00  0.00    +0.053 A 
BRANCH  22  23
ATOM     23  N   UNL     1       9.226  -3.981  -2.065  0.00  0.00    -0.328 N 
ATOM     24  C   UNL     1      10.301  -3.795  -1.082  0.00  0.00    +0.105 C 
ATOM     25  C   UNL     1      11.620  -4.273  -1.697  0.00  0.00    +0.019 C 
ATOM     26  C   UNL     1      11.851  -3.549  -3.025  0.00  0.00    +0.003 C 
ATOM     27  C   UNL     1      10.716  -3.884  -3.995  0.00  0.00    +0.019 C 
ATOM     28  C   UNL     1       9.389  -3.407  -3.408  0.00  0.00    +0.105 C 
ENDBRANCH  22  23
BRANCH  19  29
ATOM     29  C   UNL     1       4.535  -6.894  -0.724  0.00  0.00    +0.417 C 
ATOM     30  F   UNL     1       3.682  -6.935  -1.833  0.00  0.00    -0.166 F 
ATOM     31  F   UNL     1       4.889  -8.197  -0.360  0.00  0.00    -0.166 F 
ATOM     32  F   UNL     1       3.880  -6.272   0.345  0.00  0.00    -0.166 F 
ENDBRANCH  19  29
ENDBRANCH  14  17
BRANCH  12  33
ATOM     33  C   UNL     1       6.736   0.137  -0.049  0.00  0.00    +0.247 C 
ATOM     34  O   UNL     1       7.241  -0.584   0.791  0.00  0.00    -0.270 OA
ATOM     35  N   UNL     1       6.817   1.477   0.075  0.00  0.00    -0.325 N 
ATOM     36  H   UNL     1       6.477   2.051  -0.628  0.00  0.00    +0.145 HD
ATOM     37  H   UNL     1       7.215   1.867   0.870  0.00  0.00    +0.145 HD
ENDBRANCH  12  33
TORSDOF 4
