REMARK  Name = ZINC30123093
REMARK  9 active torsions:
REMARK  status: ('A' for Active; 'I' for Inactive)
REMARK    1  A    between atoms: C_1  and  C_2
REMARK    2  A    between atoms: C_7  and  C_8
REMARK    3  A    between atoms: C_8  and  C_10
REMARK    4  A    between atoms: C_8  and  N_29
REMARK    5  A    between atoms: C_10  and  C_11
REMARK    6  A    between atoms: N_13  and  C_14
REMARK    7  A    between atoms: C_14  and  C_16
REMARK    8  A    between atoms: C_14  and  C_23
REMARK    9  A    between atoms: C_16  and  C_17
REMARK                            x       y       z     vdW  Elec       q    Type
REMARK                         _______ _______ _______ _____ _____    ______ ____
ROOT
ATOM      1  C   UNL     1      -1.252   2.473   2.469  0.00  0.00    +0.216 C 
ATOM      2  O   UNL     1      -0.154   2.948   2.268  0.00  0.00    -0.276 OA
ATOM      3  N   UNL     1      -1.749   2.430   3.721  0.00  0.00    -0.308 N 
ATOM      4  H   UNL     1      -2.745   2.000   3.903  0.00  0.00    +0.149 HD
ENDROOT
BRANCH   1   5
ATOM      5  C   UNL     1      -2.060   1.931   1.318  0.00  0.00    +0.123 C 
BRANCH   5   6
ATOM      6  C   UNL     1      -1.273   2.100   0.017  0.00  0.00    +0.114 C 
BRANCH   6  13
ATOM      7  C   UNL     1      -0.491   2.783  -2.679  0.00  0.00    +0.044 C 
ATOM      8  C   UNL     1      -1.754   1.998  -2.437  0.00  0.00    -0.045 A 
ATOM      9  C   UNL     1      -2.539   1.605  -3.505  0.00  0.00    +0.004 A 
ATOM     10  C   UNL     1      -3.698   0.884  -3.283  0.00  0.00    +0.000 A 
ATOM     11  C   UNL     1      -4.072   0.556  -1.993  0.00  0.00    +0.000 A 
ATOM     12  C   UNL     1      -3.285   0.946  -0.925  0.00  0.00    +0.006 A 
ATOM     13  C   UNL     1      -2.129   1.671  -1.147  0.00  0.00    -0.024 A 
ENDBRANCH   6  13
BRANCH   6  14
ATOM     14  N   UNL     1      -0.065   1.272   0.067  0.00  0.00    -0.292 N 
ATOM     15  C   UNL     1      -0.170  -0.071   0.111  0.00  0.00    +0.298 C 
ATOM     16  O   UNL     1      -1.264  -0.593   0.206  0.00  0.00    -0.253 OA
ATOM     17  N   UNL     1       0.938  -0.836   0.049  0.00  0.00    -0.313 N 
ATOM     18  H   UNL     1       0.927   1.746   0.068  0.00  0.00    +0.151 HD
ATOM     19  H   UNL     1       0.852  -1.932   0.085  0.00  0.00    +0.146 HD
ATOM     20  H   UNL     1       1.928  -0.364  -0.038  0.00  0.00    +0.146 HD
ENDBRANCH   6  14
ENDBRANCH   5   6
ENDBRANCH   1   5
BRANCH   3  21
ATOM     21  C   UNL     1      -0.963   2.958   4.839  0.00  0.00    +0.107 C 
BRANCH  21  22
ATOM     22  C   UNL     1      -0.017   1.894   5.333  0.00  0.00    -0.027 A 
ATOM     23  C   UNL     1      -0.439   0.581   5.423  0.00  0.00    +0.005 A 
ATOM     24  C   UNL     1       0.431  -0.396   5.872  0.00  0.00    +0.000 A 
ATOM     25  C   UNL     1       1.719  -0.057   6.241  0.00  0.00    +0.000 A 
ATOM     26  C   UNL     1       2.140   1.257   6.157  0.00  0.00    +0.000 A 
ATOM     27  C   UNL     1       1.272   2.233   5.703  0.00  0.00    +0.005 A 
ENDBRANCH  21  22
BRANCH  21  28
ATOM     28  C   UNL     1      -1.903   3.371   5.973  0.00  0.00    +0.062 C 
BRANCH  28  29
ATOM     29  C   UNL     1      -2.767   4.519   5.517  0.00  0.00    -0.045 A 
ATOM     30  C   UNL     1      -2.345   5.821   5.710  0.00  0.00    +0.004 A 
ATOM     31  C   UNL     1      -3.135   6.873   5.287  0.00  0.00    +0.000 A 
ATOM     32  C   UNL     1      -4.351   6.624   4.680  0.00  0.00    +0.000 A 
ATOM     33  C   UNL     1      -4.776   5.322   4.492  0.00  0.00    +0.000 A 
ATOM     34  C   UNL     1      -3.983   4.269   4.910  0.00  0.00    +0.004 A 
ENDBRANCH  28  29
ENDBRANCH  21  28
ENDBRANCH   3  21
TORSDOF 8
