REMARK  Name = ZINC66322521
REMARK  8 active torsions:
REMARK  status: ('A' for Active; 'I' for Inactive)
REMARK    1  A    between atoms: C_1  and  N_2
REMARK    2  A    between atoms: N_2  and  C_24
REMARK    3  A    between atoms: C_3  and  C_5
REMARK    4  A    between atoms: C_5  and  C_6
REMARK    5  A    between atoms: C_6  and  C_7
REMARK    6  A    between atoms: C_9  and  C_18
REMARK    7  A    between atoms: C_10  and  C_12
REMARK    8  A    between atoms: C_24  and  C_28
REMARK                            x       y       z     vdW  Elec       q    Type
REMARK                         _______ _______ _______ _____ _____    ______ ____
ROOT
ATOM      1  C   UNL     1      -0.081  -0.097   4.904  0.00  0.00    +0.197 A 
ATOM      2  N   UNL     1      -1.046   0.317   5.673  0.00  0.00    -0.213 NA
ATOM      3  C   UNL     1      -0.516   0.814   6.810  0.00  0.00    +0.117 A 
ATOM      4  C   UNL     1       0.854   0.685   6.707  0.00  0.00    +0.163 A 
ATOM      5  O   UNL     1       1.096   0.108   5.509  0.00  0.00    -0.439 OA
ENDROOT
BRANCH   4   6
ATOM      6  C   UNL     1       1.858   1.091   7.710  0.00  0.00    +0.019 A 
ATOM      7  C   UNL     1       1.692   0.739   9.051  0.00  0.00    +0.011 A 
ATOM      8  C   UNL     1       2.633   1.122   9.983  0.00  0.00    +0.001 A 
ATOM      9  C   UNL     1       3.741   1.853   9.592  0.00  0.00    +0.000 A 
ATOM     10  C   UNL     1       3.912   2.206   8.265  0.00  0.00    +0.001 A 
ATOM     11  C   UNL     1       2.981   1.825   7.321  0.00  0.00    +0.011 A 
ENDBRANCH   4   6
BRANCH   3  12
ATOM     12  C   UNL     1      -1.263   1.390   7.953  0.00  0.00    +0.004 A 
ATOM     13  C   UNL     1      -0.805   2.552   8.574  0.00  0.00    +0.010 A 
ATOM     14  C   UNL     1      -1.506   3.083   9.637  0.00  0.00    +0.001 A 
ATOM     15  C   UNL     1      -2.659   2.466  10.087  0.00  0.00    +0.000 A 
ATOM     16  C   UNL     1      -3.118   1.314   9.475  0.00  0.00    +0.001 A 
ATOM     17  C   UNL     1      -2.429   0.775   8.407  0.00  0.00    +0.010 A 
ENDBRANCH   3  12
BRANCH   1  18
ATOM     18  C   UNL     1      -0.262  -0.720   3.543  0.00  0.00    +0.105 C 
BRANCH  18  19
ATOM     19  C   UNL     1      -0.238   0.375   2.474  0.00  0.00    +0.105 C 
BRANCH  19  22
ATOM     20  C   UNL     1      -0.268   1.981   0.140  0.00  0.00    +0.133 C 
ATOM     21  N   UNL     1      -0.430   0.531   0.013  0.00  0.00    -0.286 N 
ATOM     22  C   UNL     1      -0.418  -0.247   1.114  0.00  0.00    +0.217 C 
ATOM     23  O   UNL     1      -0.553  -1.448   1.009  0.00  0.00    -0.276 OA
BRANCH  21  24
ATOM     24  C   UNL     1      -0.606  -0.074  -1.309  0.00  0.00    +0.123 C 
ATOM     25  C   UNL     1       0.694  -0.639  -1.905  0.00  0.00    +0.041 C 
ATOM     26  C   UNL     1       0.225  -0.079  -3.258  0.00  0.00    +0.006 C 
ATOM     27  C   UNL     1      -0.597   0.946  -2.460  0.00  0.00    +0.041 C 
BRANCH  24  28
ATOM     28  C   UNL     1      -1.738  -1.013  -1.363  0.00  0.00    +0.089 C 
ATOM     29  N   UNL     1      -2.612  -1.738  -1.404  0.00  0.00    -0.194 NA
ENDBRANCH  24  28
ENDBRANCH  21  24
ENDBRANCH  19  22
ENDBRANCH  18  19
ENDBRANCH   1  18
TORSDOF 7
