REMARK  Name = ZINC63731907
REMARK  9 active torsions:
REMARK  status: ('A' for Active; 'I' for Inactive)
REMARK    1  A    between atoms: C_1  and  C_2
REMARK    2  A    between atoms: C_6  and  N_8
REMARK    3  A    between atoms: C_9  and  C_11
REMARK    4  A    between atoms: C_11  and  S_12
REMARK    5  A    between atoms: S_12  and  C_13
REMARK    6  A    between atoms: C_18  and  C_21
REMARK    7  A    between atoms: N_24  and  C_25
REMARK    8  A    between atoms: C_28  and  O_31
REMARK    9  A    between atoms: O_31  and  C_32
REMARK                            x       y       z     vdW  Elec       q    Type
REMARK                         _______ _______ _______ _____ _____    ______ ____
ROOT
ATOM      1  C   UNL     1      -0.260  -7.486   5.215  0.00  0.00    +0.260 C 
ATOM      2  N   UNL     1       0.851  -7.009   6.045  0.00  0.00    -0.230 NA
ATOM      3  C   UNL     1       0.777  -5.862   6.637  0.00  0.00    +0.185 C 
ATOM      4  C   UNL     1      -0.483  -5.044   6.591  0.00  0.00    +0.083 C 
ATOM      5  C   UNL     1      -0.212  -3.935   7.286  0.00  0.00    +0.075 C 
ATOM      6  N   UNL     1       1.052  -4.030   7.750  0.00  0.00    -0.152 NA
ATOM      7  N   UNL     1       1.627  -5.131   7.400  0.00  0.00    -0.129 NA
ATOM      8  C   UNL     1      -1.152  -2.779   7.511  0.00  0.00    +0.068 C 
ATOM      9  C   UNL     1      -1.665  -5.575   5.881  0.00  0.00    +0.133 C 
ATOM     10  N   UNL     1      -2.686  -4.849   5.513  0.00  0.00    -0.285 NA
ATOM     11  N   UNL     1      -1.555  -6.956   5.650  0.00  0.00    -0.253 N 
ATOM     12  H   UNL     1      -3.432  -5.261   5.049  0.00  0.00    +0.188 HD
ENDROOT
BRANCH  11  13
ATOM     13  C   UNL     1      -2.655  -7.802   5.830  0.00  0.00    +0.038 A 
ATOM     14  C   UNL     1      -2.564  -9.143   5.481  0.00  0.00    +0.027 A 
ATOM     15  C   UNL     1      -3.650  -9.978   5.659  0.00  0.00    +0.047 A 
ATOM     16  C   UNL     1      -4.831  -9.477   6.186  0.00  0.00    +0.120 A 
ATOM     17  C   UNL     1      -4.923  -8.138   6.535  0.00  0.00    +0.047 A 
ATOM     18  C   UNL     1      -3.836  -7.303   6.363  0.00  0.00    +0.027 A 
BRANCH  16  19
ATOM     19  O   UNL     1      -5.900 -10.300   6.361  0.00  0.00    -0.495 OA
ATOM     20  C   UNL     1      -7.084  -9.717   6.909  0.00  0.00    +0.277 C 
ENDBRANCH  16  19
ENDBRANCH  11  13
BRANCH   1  21
ATOM     21  S   UNL     1       0.033  -6.982   3.497  0.00  0.00    -0.106 S 
BRANCH  21  22
ATOM     22  C   UNL     1       0.061  -5.170   3.571  0.00  0.00    +0.168 C 
BRANCH  22  24
ATOM     23  N   UNL     1       0.361  -3.282   2.001  0.00  0.00    -0.285 N 
ATOM     24  C   UNL     1       0.300  -4.615   2.190  0.00  0.00    +0.227 C 
ATOM     25  O   UNL     1       0.438  -5.368   1.249  0.00  0.00    -0.275 OA
ATOM     26  H   UNL     1       0.327  -2.682   2.762  0.00  0.00    +0.155 HD
BRANCH  23  32
ATOM     27  C   UNL     1       2.080   0.179  -1.038  0.00  0.00    +0.044 C 
ATOM     28  C   UNL     1       1.300  -1.087  -0.796  0.00  0.00    -0.049 A 
ATOM     29  C   UNL     1       0.693  -1.738  -1.854  0.00  0.00    +0.003 A 
ATOM     30  C   UNL     1      -0.024  -2.900  -1.636  0.00  0.00    +0.002 A 
ATOM     31  C   UNL     1      -0.136  -3.414  -0.359  0.00  0.00    +0.023 A 
ATOM     32  C   UNL     1       0.472  -2.763   0.706  0.00  0.00    +0.034 A 
ATOM     33  C   UNL     1       1.196  -1.599   0.482  0.00  0.00    +0.026 A 
ENDBRANCH  23  32
ENDBRANCH  22  24
ENDBRANCH  21  22
ENDBRANCH   1  21
TORSDOF 6
