REMARK  Name = ZINC36940968
REMARK  6 active torsions:
REMARK  status: ('A' for Active; 'I' for Inactive)
REMARK    1  A    between atoms: C_1  and  N_2
REMARK    2  A    between atoms: N_2  and  C_3
REMARK    3  A    between atoms: N_2  and  C_4
REMARK    4  A    between atoms: C_9  and  N_10
REMARK    5  A    between atoms: N_10  and  C_11
REMARK    6  A    between atoms: C_20  and  O_21
REMARK                            x       y       z     vdW  Elec       q    Type
REMARK                         _______ _______ _______ _____ _____    ______ ____
ROOT
ATOM      1  N   UNL     1      -2.717  -0.763   0.157  0.00  0.00    -0.334 N 
ATOM      2  H   UNL     1      -2.317  -0.277   0.895  0.00  0.00    +0.147 HD
ENDROOT
BRANCH   1   3
ATOM      3  C   UNL     1      -4.125  -1.165   0.221  0.00  0.00    +0.101 C 
ATOM      4  C   UNL     1      -4.589  -1.255   1.690  0.00  0.00    +0.032 C 
ATOM      5  C   UNL     1      -6.057  -0.784   1.603  0.00  0.00    +0.041 C 
ATOM      6  C   UNL     1      -6.112   0.115   0.386  0.00  0.00    -0.001 A 
ATOM      7  C   UNL     1      -5.002  -0.105  -0.410  0.00  0.00    -0.021 A 
ATOM      8  C   UNL     1      -4.841   0.610  -1.585  0.00  0.00    +0.006 A 
ATOM      9  C   UNL     1      -5.785   1.543  -1.970  0.00  0.00    +0.004 A 
ATOM     10  C   UNL     1      -6.896   1.766  -1.181  0.00  0.00    +0.046 A 
ATOM     11  C   UNL     1      -7.061   1.054   0.003  0.00  0.00    +0.120 A 
BRANCH  11  12
ATOM     12  O   UNL     1      -8.154   1.271   0.781  0.00  0.00    -0.506 OA
ATOM     13  H   UNL     1      -8.031   1.959   1.449  0.00  0.00    +0.292 HD
ENDBRANCH  11  12
ENDBRANCH   1   3
BRANCH   1  19
ATOM     14  C   UNL     1      -0.602  -0.704  -1.042  0.00  0.00    +0.053 A 
ATOM     15  C   UNL     1       0.118  -1.050  -2.182  0.00  0.00    +0.042 A 
ATOM     16  C   UNL     1      -0.515  -1.744  -3.193  0.00  0.00    +0.084 A 
ATOM     17  N   UNL     1      -1.788  -2.079  -3.093  0.00  0.00    -0.365 N 
ATOM     18  C   UNL     1      -2.510  -1.772  -2.032  0.00  0.00    +0.107 A 
ATOM     19  C   UNL     1      -1.948  -1.082  -0.970  0.00  0.00    +0.065 A 
ATOM     20  H   UNL     1      -2.205  -2.566  -3.821  0.00  0.00    +0.165 HD
BRANCH  14  22
ATOM     21  C   UNL     1      -0.018   1.461   0.010  0.00  0.00    +0.129 C 
ATOM     22  N   UNL     1       0.002  -0.004   0.002  0.00  0.00    -0.335 N 
ATOM     23  C   UNL     1       0.657  -0.734   1.091  0.00  0.00    +0.129 C 
ENDBRANCH  14  22
ENDBRANCH   1  19
TORSDOF 4
