REMARK  Name = ZINC35700952
REMARK  18 active torsions:
REMARK  status: ('A' for Active; 'I' for Inactive)
REMARK    1  A    between atoms: C_1  and  C_2
REMARK    2  A    between atoms: C_2  and  C_3
REMARK    3  A    between atoms: C_3  and  C_5
REMARK    4  A    between atoms: C_3  and  N_6
REMARK    5  A    between atoms: N_6  and  C_7
REMARK    6  A    between atoms: C_9  and  C_10
REMARK    7  A    between atoms: C_15  and  C_37
REMARK    8  A    between atoms: C_16  and  C_30
REMARK    9  A    between atoms: C_17  and  C_20
REMARK   10  A    between atoms: C_22  and  O_28
REMARK   11  A    between atoms: C_24  and  O_26
REMARK   12  A    between atoms: O_26  and  C_27
REMARK   13  A    between atoms: O_28  and  C_29
REMARK   14  A    between atoms: C_30  and  O_32
REMARK   15  A    between atoms: O_32  and  C_33
REMARK   16  A    between atoms: C_33  and  C_34
REMARK   17  A    between atoms: C_34  and  O_35
REMARK   18  A    between atoms: O_35  and  C_36
REMARK                            x       y       z     vdW  Elec       q    Type
REMARK                         _______ _______ _______ _____ _____    ______ ____
ROOT
ATOM      1  C   UNL     1       4.471   0.333   3.213  0.00  0.00    +0.048 C 
ATOM      2  C   UNL     1       5.693   0.884   3.045  0.00  0.00    +0.072 C 
ATOM      3  S   UNL     1       6.178   1.226   4.724  0.00  0.00    -0.060 S 
ATOM      4  C   UNL     1       4.811   0.651   5.509  0.00  0.00    +0.166 C 
ATOM      5  N   UNL     1       4.496   0.597   6.787  0.00  0.00    -0.230 NA
ATOM      6  C   UNL     1       3.363   0.110   7.266  0.00  0.00    +0.053 C 
ATOM      7  C   UNL     1       2.401  -0.393   6.412  0.00  0.00    +0.082 C 
ATOM      8  C   UNL     1       2.692  -0.365   4.928  0.00  0.00    +0.150 C 
ATOM      9  N   UNL     1       3.995   0.212   4.504  0.00  0.00    -0.267 N 
ATOM     10  C   UNL     1       3.121   0.103   8.753  0.00  0.00    +0.066 C 
ENDROOT
BRANCH   8  11
ATOM     11  C   UNL     1       1.600   0.429   4.256  0.00  0.00    -0.015 A 
ATOM     12  C   UNL     1       1.589   1.807   4.354  0.00  0.00    +0.051 A 
ATOM     13  C   UNL     1       0.586   2.540   3.737  0.00  0.00    +0.124 A 
ATOM     14  C   UNL     1      -0.407   1.888   3.022  0.00  0.00    +0.091 A 
ATOM     15  C   UNL     1      -0.395   0.505   2.925  0.00  0.00    +0.124 A 
ATOM     16  C   UNL     1       0.615  -0.223   3.540  0.00  0.00    +0.051 A 
BRANCH  15  17
ATOM     17  O   UNL     1      -1.367  -0.137   2.225  0.00  0.00    -0.495 OA
ATOM     18  C   UNL     1      -2.306   0.679   1.523  0.00  0.00    +0.277 C 
ENDBRANCH  15  17
BRANCH  13  19
ATOM     19  O   UNL     1       0.575   3.895   3.835  0.00  0.00    -0.495 OA
ATOM     20  C   UNL     1      -0.488   4.585   3.175  0.00  0.00    +0.277 C 
ENDBRANCH  13  19
ENDBRANCH   8  11
BRANCH   1  23
ATOM     21  C   UNL     1       4.202  -0.091   0.825  0.00  0.00    +0.239 C 
ATOM     22  O   UNL     1       5.510   0.220   0.654  0.00  0.00    -0.271 OA
ATOM     23  C   UNL     1       3.672  -0.116   2.063  0.00  0.00    +0.091 C 
BRANCH  21  24
ATOM     24  N   UNL     1       3.411  -0.384  -0.272  0.00  0.00    -0.309 N 
ATOM     25  H   UNL     1       2.495  -0.678  -0.145  0.00  0.00    +0.149 HD
BRANCH  24  26
ATOM     26  C   UNL     1       3.956  -0.250  -1.625  0.00  0.00    +0.070 C 
ATOM     27  C   UNL     1       3.866   1.211  -2.069  0.00  0.00    +0.028 C 
BRANCH  26  29
ATOM     28  C   UNL     1       3.332  -2.598  -2.209  0.00  0.00    +0.005 C 
ATOM     29  C   UNL     1       3.153  -1.127  -2.588  0.00  0.00    +0.018 C 
ENDBRANCH  26  29
ENDBRANCH  24  26
ENDBRANCH  21  24
ENDBRANCH   1  23
BRANCH   7  30
ATOM     30  C   UNL     1       1.197  -0.913   6.903  0.00  0.00    +0.339 C 
ATOM     31  O   UNL     1       0.985  -0.926   8.103  0.00  0.00    -0.245 OA
BRANCH  30  32
ATOM     32  O   UNL     1       0.272  -1.399   6.047  0.00  0.00    -0.459 OA
BRANCH  32  33
ATOM     33  C   UNL     1      -0.933  -1.914   6.618  0.00  0.00    +0.260 C 
BRANCH  33  34
ATOM     34  C   UNL     1      -1.852  -2.415   5.503  0.00  0.00    +0.200 C 
BRANCH  34  35
ATOM     35  O   UNL     1      -1.241  -3.527   4.845  0.00  0.00    -0.380 OA
ATOM     36  C   UNL     1      -2.022  -4.074   3.781  0.00  0.00    +0.194 C 
ENDBRANCH  34  35
ENDBRANCH  33  34
ENDBRANCH  32  33
ENDBRANCH  30  32
ENDBRANCH   7  30
TORSDOF 12
