REMARK  Name = ZINC00681865
REMARK  4 active torsions:
REMARK  status: ('A' for Active; 'I' for Inactive)
REMARK    1  A    between atoms: C_1  and  C_2
REMARK    2  A    between atoms: C_14  and  C_16
REMARK    3  A    between atoms: C_26  and  C_29
REMARK    4  A    between atoms: C_33  and  N_35
REMARK                            x       y       z     vdW  Elec       q    Type
REMARK                         _______ _______ _______ _____ _____    ______ ____
ROOT
ATOM      1  C   UNL     1       3.715  -1.516   1.677  0.00  0.00    +0.110 C 
ATOM      2  C   UNL     1       3.437  -0.067   1.370  0.00  0.00    +0.218 C 
ATOM      3  O   UNL     1       3.815   0.798   2.131  0.00  0.00    -0.276 OA
ATOM      4  N   UNL     1       2.768   0.268   0.249  0.00  0.00    -0.258 N 
ATOM      5  C   UNL     1       2.338  -0.737  -0.619  0.00  0.00    +0.058 A 
ATOM      6  C   UNL     1       3.239  -1.498  -1.346  0.00  0.00    +0.025 A 
ATOM      7  C   UNL     1       2.766  -2.409  -2.274  0.00  0.00    +0.002 A 
ATOM      8  C   UNL     1       1.406  -2.561  -2.476  0.00  0.00    +0.002 A 
ATOM      9  C   UNL     1       0.503  -1.817  -1.736  0.00  0.00    +0.025 A 
ATOM     10  C   UNL     1       0.974  -0.918  -0.795  0.00  0.00    +0.053 A 
ATOM     11  N   UNL     1       0.124  -0.173   0.013  0.00  0.00    -0.316 N 
ATOM     12  C   UNL     1       0.011   1.179  -0.021  0.00  0.00    +0.017 C 
ATOM     13  C   UNL     1       1.044   2.037  -0.034  0.00  0.00    +0.037 C 
ATOM     14  C   UNL     1       2.507   1.663  -0.034  0.00  0.00    +0.146 C 
ATOM     15  C   UNL     1       0.810   3.433  -0.035  0.00  0.00    +0.163 C 
ATOM     16  O   UNL     1       1.764   4.185  -0.065  0.00  0.00    -0.292 OA
ATOM     17  C   UNL     1      -0.570   4.017  -0.001  0.00  0.00    +0.088 C 
ATOM     18  C   UNL     1      -1.508   3.023   0.693  0.00  0.00    +0.032 C 
ATOM     19  C   UNL     1      -1.418   1.696  -0.060  0.00  0.00    +0.059 C 
ATOM     20  H   UNL     1      -0.430  -0.655   0.647  0.00  0.00    +0.152 HD
ENDROOT
BRANCH  14  21
ATOM     21  C   UNL     1       3.085   1.994  -1.386  0.00  0.00    -0.022 A 
ATOM     22  C   UNL     1       4.046   2.980  -1.504  0.00  0.00    +0.007 A 
ATOM     23  C   UNL     1       4.581   3.280  -2.743  0.00  0.00    +0.020 A 
ATOM     24  C   UNL     1       4.146   2.600  -3.866  0.00  0.00    +0.041 A 
ATOM     25  C   UNL     1       3.180   1.616  -3.748  0.00  0.00    +0.020 A 
ATOM     26  C   UNL     1       2.650   1.314  -2.508  0.00  0.00    +0.007 A 
ATOM     27 CL   UNL     1       4.811   2.981  -5.424  0.00  0.00    -0.084 Cl
ENDBRANCH  14  21
BRANCH  18  28
ATOM     28  C   UNL     1      -2.923   3.540   0.649  0.00  0.00    -0.041 A 
ATOM     29  C   UNL     1      -3.535   3.776  -0.568  0.00  0.00    +0.004 A 
ATOM     30  C   UNL     1      -4.833   4.250  -0.608  0.00  0.00    +0.002 A 
ATOM     31  C   UNL     1      -5.519   4.488   0.569  0.00  0.00    +0.033 A 
ATOM     32  C   UNL     1      -4.906   4.252   1.785  0.00  0.00    +0.126 A 
ATOM     33  C   UNL     1      -3.610   3.773   1.825  0.00  0.00    +0.036 A 
BRANCH  32  34
ATOM     34  N   UNL     1      -5.641   4.507   3.045  0.00  0.00    +0.056 N 
ATOM     35  O   UNL     1      -6.784   4.925   3.010  0.00  0.00    -0.126 OA
ATOM     36  O   UNL     1      -5.101   4.299   4.117  0.00  0.00    -0.126 OA
ENDBRANCH  32  34
ENDBRANCH  18  28
TORSDOF 3
