REMARK  Name = ZINC17123782
REMARK  8 active torsions:
REMARK  status: ('A' for Active; 'I' for Inactive)
REMARK    1  A    between atoms: C_1  and  C_2
REMARK    2  A    between atoms: C_3  and  C_14
REMARK    3  A    between atoms: N_5  and  C_7
REMARK    4  A    between atoms: C_14  and  C_16
REMARK    5  A    between atoms: C_14  and  C_25
REMARK    6  A    between atoms: C_20  and  N_22
REMARK    7  A    between atoms: C_27  and  C_38
REMARK    8  A    between atoms: N_29  and  C_32
REMARK                            x       y       z     vdW  Elec       q    Type
REMARK                         _______ _______ _______ _____ _____    ______ ____
ROOT
ATOM      1  C   UNL     1      -0.489   4.072  -0.737  0.00  0.00    +0.074 C 
ENDROOT
BRANCH   1   4
ATOM      2  C   UNL     1       0.168   1.171   0.184  0.00  0.00    +0.065 C 
ATOM      3  C   UNL     1      -0.563   1.551  -1.077  0.00  0.00    +0.039 A 
ATOM      4  C   UNL     1      -0.847   2.808  -1.475  0.00  0.00    +0.047 A 
ATOM      5  C   UNL     1      -1.538   2.733  -2.707  0.00  0.00    +0.276 A 
ATOM      6  N   UNL     1      -1.659   1.429  -3.029  0.00  0.00    -0.219 N 
ATOM      7  N   UNL     1      -1.045   0.682  -2.014  0.00  0.00    -0.294 N 
ATOM      8  O   UNL     1      -1.951   3.676  -3.358  0.00  0.00    -0.266 OA
ATOM      9  H   UNL     1      -0.977  -0.285  -1.982  0.00  0.00    +0.187 HD
BRANCH   6  10
ATOM     10  C   UNL     1      -2.280   0.915  -4.171  0.00  0.00    +0.067 A 
ATOM     11  C   UNL     1      -2.841   1.776  -5.106  0.00  0.00    +0.028 A 
ATOM     12  C   UNL     1      -3.453   1.266  -6.234  0.00  0.00    +0.002 A 
ATOM     13  C   UNL     1      -3.508  -0.102  -6.433  0.00  0.00    +0.000 A 
ATOM     14  C   UNL     1      -2.950  -0.962  -5.505  0.00  0.00    +0.002 A 
ATOM     15  C   UNL     1      -2.332  -0.458  -4.378  0.00  0.00    +0.028 A 
ENDBRANCH   6  10
ENDBRANCH   1   4
BRANCH   1  16
ATOM     16  C   UNL     1      -1.746   4.923  -0.544  0.00  0.00    +0.135 C 
ATOM     17  C   UNL     1      -2.764   4.186   0.300  0.00  0.00    +0.047 C 
ATOM     18  N   UNL     1      -2.956   4.882   1.352  0.00  0.00    -0.181 NA
ATOM     19  N   UNL     1      -2.197   6.048   1.383  0.00  0.00    -0.160 N 
ATOM     20  C   UNL     1      -1.431   6.162   0.273  0.00  0.00    +0.249 C 
ATOM     21  O   UNL     1      -0.661   7.056  -0.008  0.00  0.00    -0.273 OA
ATOM     22  C   UNL     1      -3.428   2.876  -0.040  0.00  0.00    +0.063 C 
BRANCH  19  23
ATOM     23  C   UNL     1      -2.224   6.982   2.425  0.00  0.00    +0.060 A 
ATOM     24  C   UNL     1      -1.431   8.120   2.359  0.00  0.00    +0.025 A 
ATOM     25  C   UNL     1      -1.459   9.040   3.389  0.00  0.00    +0.002 A 
ATOM     26  C   UNL     1      -2.276   8.828   4.485  0.00  0.00    +0.000 A 
ATOM     27  C   UNL     1      -3.066   7.696   4.553  0.00  0.00    +0.002 A 
ATOM     28  C   UNL     1      -3.047   6.775   3.524  0.00  0.00    +0.025 A 
ENDBRANCH  19  23
ENDBRANCH   1  16
BRANCH   1  29
ATOM     29  C   UNL     1       0.527   4.849  -1.534  0.00  0.00    -0.036 A 
ATOM     30  C   UNL     1       0.152   5.473  -2.710  0.00  0.00    +0.004 A 
ATOM     31  C   UNL     1       1.084   6.186  -3.441  0.00  0.00    +0.003 A 
ATOM     32  C   UNL     1       2.390   6.276  -2.996  0.00  0.00    +0.033 A 
ATOM     33  C   UNL     1       2.764   5.652  -1.821  0.00  0.00    +0.126 A 
ATOM     34  C   UNL     1       1.831   4.943  -1.087  0.00  0.00    +0.037 A 
BRANCH  33  35
ATOM     35  N   UNL     1       4.163   5.748  -1.345  0.00  0.00    +0.056 N 
ATOM     36  O   UNL     1       4.978   6.370  -1.985  0.00  0.00    -0.126 OA
ATOM     37  O   UNL     1       4.490   5.203  -0.317  0.00  0.00    -0.126 OA
ENDBRANCH  33  35
ENDBRANCH   1  29
TORSDOF 6
