REMARK  Name = ZINC45756383
REMARK  7 active torsions:
REMARK  status: ('A' for Active; 'I' for Inactive)
REMARK    1  A    between atoms: C_1  and  C_2
REMARK    2  A    between atoms: C_15  and  C_17
REMARK    3  A    between atoms: C_17  and  N_18
REMARK    4  A    between atoms: N_18  and  C_19
REMARK    5  A    between atoms: C_24  and  C_25
REMARK    6  A    between atoms: N_27  and  C_28
REMARK    7  A    between atoms: C_28  and  C_29
REMARK                            x       y       z     vdW  Elec       q    Type
REMARK                         _______ _______ _______ _____ _____    ______ ____
ROOT
ATOM      1  C   UNL     1       0.249  -2.409   5.688  0.00  0.00    +0.040 A 
ATOM      2  C   UNL     1       1.611  -2.566   5.918  0.00  0.00    +0.024 A 
ATOM      3  C   UNL     1       2.054  -3.084   7.117  0.00  0.00    +0.002 A 
ATOM      4  C   UNL     1       1.148  -3.452   8.100  0.00  0.00    +0.001 A 
ATOM      5  C   UNL     1      -0.205  -3.303   7.890  0.00  0.00    +0.015 A 
ATOM      6  C   UNL     1      -0.670  -2.775   6.683  0.00  0.00    +0.057 A 
ENDROOT
BRANCH   6   7
ATOM      7  C   UNL     1      -2.116  -2.608   6.454  0.00  0.00    +0.246 C 
ATOM      8  O   UNL     1      -2.523  -2.251   5.365  0.00  0.00    -0.270 OA
ATOM      9  N   UNL     1      -2.989  -2.852   7.452  0.00  0.00    -0.307 N 
ATOM     10  H   UNL     1      -2.665  -3.137   8.321  0.00  0.00    +0.149 HD
BRANCH   9  11
ATOM     11  C   UNL     1      -4.427  -2.686   7.225  0.00  0.00    +0.140 C 
BRANCH  11  12
ATOM     12  C   UNL     1      -5.177  -3.019   8.489  0.00  0.00    -0.027 A 
ATOM     13  C   UNL     1      -5.592  -4.316   8.723  0.00  0.00    +0.009 A 
ATOM     14  C   UNL     1      -6.280  -4.627   9.881  0.00  0.00    +0.050 A 
ATOM     15  C   UNL     1      -6.555  -3.637  10.811  0.00  0.00    +0.166 A 
ATOM     16  C   UNL     1      -6.137  -2.329  10.575  0.00  0.00    +0.167 A 
ATOM     17  C   UNL     1      -5.443  -2.027   9.415  0.00  0.00    +0.054 A 
ATOM     18  O   UNL     1      -6.525  -1.551  11.627  0.00  0.00    -0.453 OA
ATOM     19  C   UNL     1      -7.538  -2.309  12.313  0.00  0.00    +0.466 C 
ATOM     20  O   UNL     1      -7.205  -3.677  12.010  0.00  0.00    -0.453 OA
ENDBRANCH  11  12
ENDBRANCH   9  11
ENDBRANCH   6   7
BRANCH   1  21
ATOM     21  N   UNL     1      -0.199  -1.888   4.481  0.00  0.00    -0.335 N 
ATOM     22  H   UNL     1      -1.150  -1.851   4.292  0.00  0.00    +0.147 HD
BRANCH  21  23
ATOM     23  C   UNL     1       0.764  -1.392   3.494  0.00  0.00    +0.198 C 
BRANCH  23  37
ATOM     24  C   UNL     1      -0.033   1.650   0.094  0.00  0.00    +0.029 C 
ATOM     25  C   UNL     1       0.006   0.121   0.056  0.00  0.00    +0.087 C 
ATOM     26  C   UNL     1       0.732  -0.337  -1.210  0.00  0.00    +0.118 C 
ATOM     27  C   UNL     1       1.131  -1.784  -1.083  0.00  0.00    +0.219 C 
ATOM     28  O   UNL     1       0.507  -2.635  -1.680  0.00  0.00    -0.275 OA
ATOM     29  N   UNL     1       2.179  -2.139  -0.309  0.00  0.00    -0.284 N 
ATOM     30  C   UNL     1       2.849  -1.181   0.461  0.00  0.00    +0.055 A 
ATOM     31  C   UNL     1       4.231  -1.086   0.432  0.00  0.00    +0.025 A 
ATOM     32  C   UNL     1       4.872  -0.148   1.220  0.00  0.00    +0.002 A 
ATOM     33  C   UNL     1       4.140   0.695   2.036  0.00  0.00    +0.002 A 
ATOM     34  C   UNL     1       2.760   0.612   2.063  0.00  0.00    +0.025 A 
ATOM     35  C   UNL     1       2.109  -0.317   1.269  0.00  0.00    +0.058 A 
ATOM     36  N   UNL     1       0.711  -0.377   1.239  0.00  0.00    -0.265 N 
ATOM     37  C   UNL     1       0.025  -0.884   2.283  0.00  0.00    +0.237 C 
ATOM     38  O   UNL     1      -1.187  -0.930   2.248  0.00  0.00    -0.274 OA
ATOM     39  H   UNL     1       2.470  -3.064  -0.286  0.00  0.00    +0.155 HD
ENDBRANCH  23  37
ENDBRANCH  21  23
ENDBRANCH   1  21
TORSDOF 6
