REMARK  Name = ZINC12198175
REMARK  7 active torsions:
REMARK  status: ('A' for Active; 'I' for Inactive)
REMARK    1  A    between atoms: C_1  and  C_2
REMARK    2  A    between atoms: C_5  and  C_7
REMARK    3  A    between atoms: C_7  and  N_65
REMARK    4  A    between atoms: C_10  and  C_13
REMARK    5  A    between atoms: C_13  and  C_25
REMARK    6  A    between atoms: N_16  and  C_20
REMARK    7  A    between atoms: C_25  and  C_26
REMARK                            x       y       z     vdW  Elec       q    Type
REMARK                         _______ _______ _______ _____ _____    ______ ____
ROOT
ATOM      1  C   UNL     1      -2.944   0.710   1.463  0.00  0.00    +0.119 C 
ATOM      2  C   UNL     1      -3.145   2.013   2.211  0.00  0.00    +0.247 C 
ATOM      3  O   UNL     1      -3.940   2.891   1.952  0.00  0.00    -0.273 OA
ATOM      4  N   UNL     1      -2.256   1.993   3.223  0.00  0.00    -0.221 N 
ATOM      5  C   UNL     1      -1.529   0.870   3.219  0.00  0.00    +0.310 C 
ATOM      6  O   UNL     1      -0.662   0.623   4.035  0.00  0.00    -0.252 OA
ATOM      7  N   UNL     1      -1.864   0.044   2.211  0.00  0.00    -0.284 N 
ATOM      8  H   UNL     1      -1.471  -0.821   2.015  0.00  0.00    +0.151 HD
ENDROOT
BRANCH   1  11
ATOM      9  C   UNL     1      -6.009  -1.076   2.959  0.00  0.00    -0.078 C 
ATOM     10  C   UNL     1      -4.701  -0.282   2.940  0.00  0.00    -0.013 C 
ATOM     11  C   UNL     1      -4.220  -0.135   1.494  0.00  0.00    +0.018 C 
ATOM     12  C   UNL     1      -5.310   0.554   0.668  0.00  0.00    -0.013 C 
ATOM     13  C   UNL     1      -6.601  -0.263   0.754  0.00  0.00    -0.078 C 
ATOM     14  N   UNL     1      -7.024  -0.347   2.168  0.00  0.00    +0.383 N 
ATOM     15  H   UNL     1      -7.120   0.603   2.544  0.00  0.00    -0.081 HD
BRANCH  14  16
ATOM     16  C   UNL     1      -8.328  -1.035   2.264  0.00  0.00    -0.036 C 
BRANCH  16  21
ATOM     17  C   UNL     1     -12.112   1.822  -0.836  0.00  0.00    +0.051 C 
ATOM     18  C   UNL     1     -11.074   0.914  -0.227  0.00  0.00    -0.013 A 
ATOM     19  C   UNL     1     -10.425  -0.136  -0.786  0.00  0.00    +0.011 A 
ATOM     20  C   UNL     1      -9.498  -0.830  -0.031  0.00  0.00    +0.009 A 
ATOM     21  C   UNL     1      -9.273  -0.446   1.249  0.00  0.00    -0.026 A 
ATOM     22  S   UNL     1     -10.381   0.944   1.418  0.00  0.00    -0.100 S 
ENDBRANCH  16  21
ENDBRANCH  14  16
ENDBRANCH   1  11
BRANCH   4  23
ATOM     23  C   UNL     1      -2.104   3.068   4.207  0.00  0.00    +0.086 C 
ATOM     24  C   UNL     1      -0.656   3.600   4.188  0.00  0.00    +0.023 C 
ATOM     25  C   UNL     1      -0.346   3.907   5.675  0.00  0.00    +0.002 C 
ATOM     26  C   UNL     1      -1.053   2.746   6.419  0.00  0.00    +0.002 C 
ATOM     27  C   UNL     1      -2.356   2.526   5.624  0.00  0.00    +0.023 C 
ENDBRANCH   4  23
BRANCH   1  28
ATOM     28  C   UNL     1      -2.513   0.978   0.020  0.00  0.00    +0.070 C 
BRANCH  28  29
ATOM     29  C   UNL     1      -1.219   1.750   0.017  0.00  0.00    -0.045 A 
ATOM     30  C   UNL     1      -0.013   1.076   0.008  0.00  0.00    +0.006 A 
ATOM     31  C   UNL     1       1.175   1.783   0.000  0.00  0.00    +0.038 A 
ATOM     32  C   UNL     1       1.156   3.167   0.008  0.00  0.00    +0.123 A 
ATOM     33  C   UNL     1      -0.053   3.842   0.022  0.00  0.00    +0.038 A 
ATOM     34  C   UNL     1      -1.240   3.133   0.030  0.00  0.00    +0.006 A 
ATOM     35  F   UNL     1       2.316   3.859  -0.000  0.00  0.00    -0.205 F 
ENDBRANCH  28  29
ENDBRANCH   1  28
TORSDOF 6
