REMARK  Name = ZINC67467364
REMARK  9 active torsions:
REMARK  status: ('A' for Active; 'I' for Inactive)
REMARK    1  A    between atoms: C_1  and  C_2
REMARK    2  A    between atoms: C_2  and  C_3
REMARK    3  A    between atoms: C_3  and  C_5
REMARK    4  A    between atoms: C_3  and  C_6
REMARK    5  A    between atoms: C_6  and  C_8
REMARK    6  A    between atoms: C_6  and  N_26
REMARK    7  A    between atoms: N_10  and  C_11
REMARK    8  A    between atoms: C_14  and  N_17
REMARK    9  A    between atoms: C_18  and  C_22
REMARK                            x       y       z     vdW  Elec       q    Type
REMARK                         _______ _______ _______ _____ _____    ______ ____
ROOT
ATOM      1  C   UNL     1       3.575  -0.922   1.138  0.00  0.00    +0.238 C 
ATOM      2  O   UNL     1       4.599  -0.275   1.184  0.00  0.00    -0.273 OA
ATOM      3  N   UNL     1       3.461  -2.057   1.855  0.00  0.00    -0.284 N 
ATOM      4  H   UNL     1       2.668  -2.609   1.768  0.00  0.00    +0.155 HD
ENDROOT
BRANCH   3   5
ATOM      5  C   UNL     1       4.488  -2.440   2.726  0.00  0.00    +0.034 A 
ATOM      6  C   UNL     1       5.249  -1.473   3.371  0.00  0.00    +0.025 A 
ATOM      7  C   UNL     1       6.261  -1.851   4.230  0.00  0.00    +0.029 A 
ATOM      8  C   UNL     1       6.519  -3.198   4.449  0.00  0.00    +0.066 A 
ATOM      9  C   UNL     1       5.759  -4.165   3.804  0.00  0.00    +0.029 A 
ATOM     10  C   UNL     1       4.743  -3.787   2.950  0.00  0.00    +0.025 A 
BRANCH   8  11
ATOM     11  N   UNL     1       7.548  -3.582   5.321  0.00  0.00    -0.228 N 
ATOM     12  C   UNL     1       7.542  -4.663   6.132  0.00  0.00    +0.147 A 
ATOM     13  C   UNL     1       8.715  -4.679   6.808  0.00  0.00    +0.054 A 
ATOM     14  C   UNL     1       9.463  -3.570   6.397  0.00  0.00    +0.135 A 
ATOM     15  N   UNL     1       8.767  -2.915   5.502  0.00  0.00    -0.174 NA
BRANCH  12  16
ATOM     16  C   UNL     1       6.429  -5.671   6.262  0.00  0.00    +0.434 C 
ATOM     17  F   UNL     1       6.627  -6.705   5.341  0.00  0.00    -0.164 F 
ATOM     18  F   UNL     1       6.423  -6.195   7.559  0.00  0.00    -0.164 F 
ATOM     19  F   UNL     1       5.203  -5.047   6.005  0.00  0.00    -0.164 F 
ENDBRANCH  12  16
ENDBRANCH   8  11
ENDBRANCH   3   5
BRANCH   1  20
ATOM     20  C   UNL     1       2.428  -0.457   0.277  0.00  0.00    +0.163 C 
BRANCH  20  21
ATOM     21  N   UNL     1       2.808   0.776  -0.417  0.00  0.00    -0.288 N 
ATOM     22  C   UNL     1       2.585   0.899  -1.741  0.00  0.00    +0.298 C 
ATOM     23  O   UNL     1       1.979   0.032  -2.339  0.00  0.00    -0.253 OA
ATOM     24  N   UNL     1       3.034   1.985  -2.401  0.00  0.00    -0.313 N 
ATOM     25  H   UNL     1       3.220   1.503   0.075  0.00  0.00    +0.151 HD
ATOM     26  H   UNL     1       3.518   2.678  -1.924  0.00  0.00    +0.146 HD
ATOM     27  H   UNL     1       2.873   2.074  -3.354  0.00  0.00    +0.146 HD
ENDBRANCH  20  21
BRANCH  20  28
ATOM     28  C   UNL     1       1.206  -0.190   1.157  0.00  0.00    +0.015 C 
ATOM     29  C   UNL     1      -0.003   0.118   0.272  0.00  0.00    +0.010 C 
BRANCH  28  31
ATOM     30  C   UNL     1       2.599   0.644   3.057  0.00  0.00    +0.004 C 
ATOM     31  C   UNL     1       1.486   1.005   2.071  0.00  0.00    +0.002 C 
ENDBRANCH  28  31
ENDBRANCH  20  28
ENDBRANCH   1  20
TORSDOF 7
