REMARK  Name = ZINC15775053
REMARK  8 active torsions:
REMARK  status: ('A' for Active; 'I' for Inactive)
REMARK    1  A    between atoms: C_4  and  N_7
REMARK    2  A    between atoms: N_7  and  N_8
REMARK    3  A    between atoms: N_11  and  N_12
REMARK    4  A    between atoms: N_12  and  C_13
REMARK    5  A    between atoms: C_20  and  C_25
REMARK    6  A    between atoms: C_25  and  C_27
REMARK    7  A    between atoms: C_25  and  O_29
REMARK    8  A    between atoms: C_27  and  O_28
REMARK                            x       y       z     vdW  Elec       q    Type
REMARK                         _______ _______ _______ _____ _____    ______ ____
ROOT
ATOM      1  N   UNL     1       3.640  -2.048  -0.045  0.00  0.00    -0.173 NA
ATOM      2  C   UNL     1       4.788  -2.689  -0.060  0.00  0.00    +0.192 C 
ATOM      3  C   UNL     1       4.984  -4.153  -0.076  0.00  0.00    +0.136 C 
ATOM      4  N   UNL     1       4.068  -5.076  -0.079  0.00  0.00    -0.181 NA
ATOM      5  C   UNL     1       6.485  -4.343  -0.090  0.00  0.00    +0.260 C 
ATOM      6  O   UNL     1       7.072  -3.042  -0.082  0.00  0.00    -0.448 OA
ATOM      7  C   UNL     1       6.130  -2.088  -0.072  0.00  0.00    +0.362 C 
ATOM      8  O   UNL     1       6.355  -0.893  -0.069  0.00  0.00    -0.243 OA
ENDROOT
BRANCH   1   9
ATOM      9  N   UNL     1       3.619  -0.648  -0.037  0.00  0.00    -0.237 N 
ATOM     10  H   UNL     1       4.451  -0.150  -0.043  0.00  0.00    +0.174 HD
BRANCH   9  14
ATOM     11  C   UNL     1      -0.017   1.379   0.010  0.00  0.00    +0.000 A 
ATOM     12  C   UNL     1       1.169   2.090   0.002  0.00  0.00    +0.002 A 
ATOM     13  C   UNL     1       2.377   1.421  -0.013  0.00  0.00    +0.025 A 
ATOM     14  C   UNL     1       2.400   0.032  -0.021  0.00  0.00    +0.048 A 
ATOM     15  C   UNL     1       1.206  -0.680  -0.013  0.00  0.00    +0.025 A 
ATOM     16  C   UNL     1       0.002  -0.004   0.002  0.00  0.00    +0.002 A 
ENDBRANCH   9  14
ENDBRANCH   1   9
BRANCH   4  17
ATOM     17  N   UNL     1       2.714  -4.718  -0.064  0.00  0.00    -0.237 N 
ATOM     18  H   UNL     1       2.459  -3.782  -0.053  0.00  0.00    +0.174 HD
BRANCH  17  19
ATOM     19  C   UNL     1       1.731  -5.708  -0.067  0.00  0.00    +0.048 A 
ATOM     20  C   UNL     1       2.094  -7.050  -0.077  0.00  0.00    +0.026 A 
ATOM     21  C   UNL     1       1.119  -8.028  -0.080  0.00  0.00    +0.017 A 
ATOM     22  C   UNL     1      -0.219  -7.673  -0.072  0.00  0.00    +0.018 A 
ATOM     23  C   UNL     1      -0.584  -6.338  -0.062  0.00  0.00    +0.017 A 
ATOM     24  C   UNL     1       0.387  -5.356  -0.052  0.00  0.00    +0.026 A 
ATOM     25 BR   UNL     1      -1.551  -9.015  -0.076  0.00  0.00    -0.050 Br
ENDBRANCH  17  19
ENDBRANCH   4  17
BRANCH   5  26
ATOM     26  C   UNL     1       6.923  -5.124   1.150  0.00  0.00    +0.187 C 
BRANCH  26  27
ATOM     27  O   UNL     1       6.286  -6.404   1.157  0.00  0.00    -0.385 OA
ATOM     28  H   UNL     1       6.495  -6.950   0.387  0.00  0.00    +0.210 HD
ENDBRANCH  26  27
BRANCH  26  29
ATOM     29  C   UNL     1       8.441  -5.310   1.127  0.00  0.00    +0.191 C 
BRANCH  29  30
ATOM     30  O   UNL     1       8.864  -5.936   2.339  0.00  0.00    -0.392 OA
ATOM     31  H   UNL     1       9.818  -6.085   2.393  0.00  0.00    +0.210 HD
ENDBRANCH  29  30
ENDBRANCH  26  29
ENDBRANCH   5  26
TORSDOF 8
