REMARK  Name = ZINC12717503
REMARK  13 active torsions:
REMARK  status: ('A' for Active; 'I' for Inactive)
REMARK    1  A    between atoms: C_1  and  C_2
REMARK    2  A    between atoms: C_2  and  C_3
REMARK    3  A    between atoms: C_10  and  C_15
REMARK    4  A    between atoms: C_15  and  N_62
REMARK    5  A    between atoms: C_16  and  C_17
REMARK    6  A    between atoms: C_16  and  N_62
REMARK    7  A    between atoms: C_24  and  C_25
REMARK    8  A    between atoms: C_24  and  N_62
REMARK    9  A    between atoms: N_29  and  C_30
REMARK   10  A    between atoms: C_30  and  C_31
REMARK   11  A    between atoms: C_31  and  O_33
REMARK   12  A    between atoms: O_33  and  C_34
REMARK   13  A    between atoms: C_34  and  C_35
REMARK                            x       y       z     vdW  Elec       q    Type
REMARK                         _______ _______ _______ _____ _____    ______ ____
ROOT
ATOM      1  N   UNL     1      -1.391  -1.279   2.191  0.00  0.00    +0.390 N 
ATOM      2  H   UNL     1      -0.375  -1.136   2.140  0.00  0.00    -0.080 HD
ENDROOT
BRANCH   1   3
ATOM      3  C   UNL     1      -1.746  -2.481   1.408  0.00  0.00    -0.036 C 
BRANCH   3  11
ATOM      4  C   UNL     1       2.892  -3.712  -2.498  0.00  0.00    -0.047 A 
ATOM      5  C   UNL     1       2.364  -3.031  -3.587  0.00  0.00    +0.005 A 
ATOM      6  C   UNL     1       1.152  -2.382  -3.490  0.00  0.00    +0.026 A 
ATOM      7  C   UNL     1       0.448  -2.409  -2.290  0.00  0.00    +0.049 A 
ATOM      8  C   UNL     1       0.987  -3.102  -1.189  0.00  0.00    -0.001 A 
ATOM      9  C   UNL     1       2.219  -3.753  -1.311  0.00  0.00    +0.013 A 
ATOM     10  C   UNL     1       0.238  -3.125   0.069  0.00  0.00    +0.017 A 
ATOM     11  C   UNL     1      -0.951  -2.476   0.128  0.00  0.00    +0.001 A 
ATOM     12  C   UNL     1      -1.449  -1.802  -1.007  0.00  0.00    +0.251 A 
ATOM     13  O   UNL     1      -2.522  -1.229  -0.934  0.00  0.00    -0.268 OA
ATOM     14  N   UNL     1      -0.767  -1.770  -2.165  0.00  0.00    -0.322 N 
ATOM     15  H   UNL     1      -1.136  -1.293  -2.925  0.00  0.00    +0.169 HD
BRANCH   4  17
ATOM     16  C   UNL     1       3.992  -5.853  -3.097  0.00  0.00    +0.009 C 
ATOM     17  C   UNL     1       4.219  -4.414  -2.629  0.00  0.00    +0.032 C 
ENDBRANCH   4  17
ENDBRANCH   3  11
ENDBRANCH   1   3
BRANCH   1  18
ATOM     18  C   UNL     1      -1.779  -1.463   3.605  0.00  0.00    -0.042 C 
BRANCH  18  19
ATOM     19  C   UNL     1      -0.820  -2.431   4.248  0.00  0.00    -0.064 A 
ATOM     20  C   UNL     1      -1.152  -3.769   4.350  0.00  0.00    +0.004 A 
ATOM     21  C   UNL     1      -0.271  -4.658   4.935  0.00  0.00    +0.038 A 
ATOM     22  C   UNL     1       0.941  -4.206   5.429  0.00  0.00    +0.123 A 
ATOM     23  C   UNL     1       1.271  -2.865   5.332  0.00  0.00    +0.038 A 
ATOM     24  C   UNL     1       0.390  -1.979   4.741  0.00  0.00    +0.004 A 
ATOM     25  F   UNL     1       1.802  -5.074   6.006  0.00  0.00    -0.205 F 
ENDBRANCH  18  19
ENDBRANCH   1  18
BRANCH   1  26
ATOM     26  C   UNL     1      -2.071  -0.092   1.631  0.00  0.00    +0.001 C 
BRANCH  26  27
ATOM     27  C   UNL     1      -1.524   1.143   2.301  0.00  0.00    +0.136 A 
ATOM     28  N   UNL     1      -1.991   1.718   3.382  0.00  0.00    -0.115 NA
ATOM     29  N   UNL     1      -1.254   2.743   3.638  0.00  0.00    -0.023 NA
ATOM     30  N   UNL     1      -0.326   2.834   2.750  0.00  0.00    -0.043 NA
ATOM     31  N   UNL     1      -0.462   1.868   1.905  0.00  0.00    -0.220 N 
BRANCH  31  32
ATOM     32  C   UNL     1       0.385   1.607   0.739  0.00  0.00    +0.267 C 
BRANCH  32  33
ATOM     33  C   UNL     1      -0.176   2.328  -0.460  0.00  0.00    +0.329 C 
ATOM     34  O   UNL     1      -1.180   2.992  -0.351  0.00  0.00    -0.249 OA
BRANCH  33  35
ATOM     35  O   UNL     1       0.440   2.233  -1.649  0.00  0.00    -0.464 OA
BRANCH  35  36
ATOM     36  C   UNL     1      -0.156   2.954  -2.760  0.00  0.00    +0.229 C 
ATOM     37  C   UNL     1       0.678   2.728  -4.022  0.00  0.00    +0.048 C 
ENDBRANCH  35  36
ENDBRANCH  33  35
ENDBRANCH  32  33
ENDBRANCH  31  32
ENDBRANCH  26  27
ENDBRANCH   1  26
TORSDOF 11
