REMARK  Name = ZINC35844701
REMARK  10 active torsions:
REMARK  status: ('A' for Active; 'I' for Inactive)
REMARK    1  A    between atoms: C_3  and  C_17
REMARK    2  A    between atoms: N_4  and  C_6
REMARK    3  A    between atoms: C_6  and  C_7
REMARK    4  A    between atoms: C_10  and  C_13
REMARK    5  A    between atoms: C_17  and  N_18
REMARK    6  A    between atoms: N_18  and  C_19
REMARK    7  A    between atoms: N_18  and  C_28
REMARK    8  A    between atoms: C_19  and  C_20
REMARK    9  A    between atoms: C_23  and  C_26
REMARK   10  A    between atoms: C_28  and  C_29
REMARK                            x       y       z     vdW  Elec       q    Type
REMARK                         _______ _______ _______ _____ _____    ______ ____
ROOT
ATOM      1  N   UNL     1       4.031   0.426   1.272  0.00  0.00    +0.386 N 
ATOM      2  H   UNL     1       3.481  -0.339   1.633  0.00  0.00    -0.081 HD
ENDROOT
BRANCH   1   3
ATOM      3  C   UNL     1       3.663   0.678  -0.127  0.00  0.00    -0.024 C 
BRANCH   3   6
ATOM      4  C   UNL     1       0.201   1.947  -0.289  0.00  0.00    +0.019 A 
ATOM      5  C   UNL     1       1.590   2.151  -0.170  0.00  0.00    +0.021 A 
ATOM      6  C   UNL     1       2.182   0.941  -0.217  0.00  0.00    +0.003 A 
ATOM      7  N   UNL     1       1.209  -0.004  -0.361  0.00  0.00    -0.348 N 
ATOM      8  C   UNL     1      -0.003   0.619  -0.404  0.00  0.00    +0.086 A 
BRANCH   7   9
ATOM      9  C   UNL     1       1.430  -1.449  -0.453  0.00  0.00    +0.156 C 
BRANCH   9  10
ATOM     10  C   UNL     1       1.303  -2.066   0.916  0.00  0.00    -0.028 A 
ATOM     11  C   UNL     1       2.435  -2.321   1.667  0.00  0.00    +0.006 A 
ATOM     12  C   UNL     1       2.319  -2.887   2.923  0.00  0.00    +0.013 A 
ATOM     13  C   UNL     1       1.070  -3.196   3.429  0.00  0.00    +0.055 A 
ATOM     14  C   UNL     1      -0.062  -2.939   2.678  0.00  0.00    +0.013 A 
ATOM     15  C   UNL     1       0.054  -2.370   1.424  0.00  0.00    +0.006 A 
BRANCH  13  16
ATOM     16  C   UNL     1       0.943  -3.813   4.797  0.00  0.00    +0.417 C 
ATOM     17  F   UNL     1       0.822  -2.801   5.756  0.00  0.00    -0.166 F 
ATOM     18  F   UNL     1      -0.192  -4.630   4.837  0.00  0.00    -0.166 F 
ATOM     19  F   UNL     1       2.080  -4.581   5.070  0.00  0.00    -0.166 F 
ENDBRANCH  13  16
ENDBRANCH   9  10
ENDBRANCH   7   9
ENDBRANCH   3   6
ENDBRANCH   1   3
BRANCH   1  20
ATOM     20  C   UNL     1       5.457   0.083   1.349  0.00  0.00    -0.042 C 
BRANCH  20  21
ATOM     21  C   UNL     1       5.808  -0.295   2.766  0.00  0.00    -0.064 A 
ATOM     22  C   UNL     1       6.225   0.680   3.655  0.00  0.00    +0.003 A 
ATOM     23  C   UNL     1       6.548   0.342   4.953  0.00  0.00    +0.019 A 
ATOM     24  C   UNL     1       6.451  -0.988   5.369  0.00  0.00    +0.052 A 
ATOM     25  C   UNL     1       6.028  -1.966   4.466  0.00  0.00    +0.019 A 
ATOM     26  C   UNL     1       5.705  -1.613   3.173  0.00  0.00    +0.003 A 
BRANCH  24  27
ATOM     27  C   UNL     1       6.784  -1.347   6.714  0.00  0.00    +0.099 C 
ATOM     28  N   UNL     1       7.049  -1.631   7.782  0.00  0.00    -0.191 NA
ENDBRANCH  24  27
ENDBRANCH  20  21
ENDBRANCH   1  20
BRANCH   1  29
ATOM     29  C   UNL     1       3.774   1.632   2.071  0.00  0.00    -0.074 C 
BRANCH  29  30
ATOM     30  C   UNL     1       2.305   1.658   2.497  0.00  0.00    -0.028 C 
ATOM     31  C   UNL     1       2.037   0.513   3.475  0.00  0.00    +0.002 C 
ATOM     32  C   UNL     1       0.568   0.539   3.901  0.00  0.00    +0.000 C 
ATOM     33  C   UNL     1       0.258   1.874   4.582  0.00  0.00    +0.000 C 
ATOM     34  C   UNL     1       0.526   3.019   3.603  0.00  0.00    +0.000 C 
ATOM     35  C   UNL     1       1.995   2.993   3.178  0.00  0.00    +0.002 C 
ENDBRANCH  29  30
ENDBRANCH   1  29
TORSDOF 10
