REMARK  Name = ZINC35062333
REMARK  11 active torsions:
REMARK  status: ('A' for Active; 'I' for Inactive)
REMARK    1  A    between atoms: C_1  and  C_2
REMARK    2  A    between atoms: C_7  and  N_8
REMARK    3  A    between atoms: C_18  and  C_19
REMARK    4  A    between atoms: C_19  and  C_21
REMARK    5  A    between atoms: C_19  and  N_22
REMARK    6  A    between atoms: N_22  and  C_23
REMARK    7  A    between atoms: C_23  and  C_24
REMARK    8  A    between atoms: C_24  and  N_25
REMARK    9  A    between atoms: N_25  and  C_26
REMARK   10  A    between atoms: N_25  and  C_27
REMARK   11  A    between atoms: C_28  and  C_30
REMARK                            x       y       z     vdW  Elec       q    Type
REMARK                         _______ _______ _______ _____ _____    ______ ____
ROOT
ATOM      1  N   UNL     1       0.374   0.519   3.767  0.00  0.00    -0.263 N 
ATOM      2  C   UNL     1      -0.483   0.274   4.786  0.00  0.00    +0.266 A 
ATOM      3  O   UNL     1      -1.648   0.622   4.729  0.00  0.00    -0.267 OA
ATOM      4  C   UNL     1       0.048  -0.430   5.962  0.00  0.00    +0.065 A 
ATOM      5  C   UNL     1      -0.751  -0.732   7.063  0.00  0.00    +0.015 A 
ATOM      6  C   UNL     1      -0.203  -1.394   8.139  0.00  0.00    +0.001 A 
ATOM      7  C   UNL     1       1.137  -1.761   8.134  0.00  0.00    +0.002 A 
ATOM      8  C   UNL     1       1.943  -1.473   7.057  0.00  0.00    +0.028 A 
ATOM      9  C   UNL     1       1.411  -0.803   5.954  0.00  0.00    +0.078 A 
ATOM     10  N   UNL     1       2.169  -0.499   4.871  0.00  0.00    -0.231 NA
ATOM     11  C   UNL     1       1.672   0.119   3.843  0.00  0.00    +0.138 A 
ENDROOT
BRANCH   1  18
ATOM     12  C   UNL     1       0.447   3.364   3.752  0.00  0.00    +0.046 C 
ATOM     13  C   UNL     1      -0.062   2.574   2.573  0.00  0.00    -0.025 A 
ATOM     14  C   UNL     1      -0.506   3.230   1.441  0.00  0.00    +0.025 A 
ATOM     15  C   UNL     1      -0.974   2.505   0.359  0.00  0.00    +0.041 A 
ATOM     16  C   UNL     1      -0.999   1.122   0.408  0.00  0.00    +0.022 A 
ATOM     17  C   UNL     1      -0.556   0.462   1.538  0.00  0.00    +0.028 A 
ATOM     18  C   UNL     1      -0.081   1.187   2.623  0.00  0.00    +0.054 A 
ATOM     19 CL   UNL     1      -1.531   3.332  -1.061  0.00  0.00    -0.084 Cl
ENDBRANCH   1  18
BRANCH  11  20
ATOM     20  C   UNL     1       2.581   0.414   2.678  0.00  0.00    +0.139 C 
ATOM     21  C   UNL     1       2.616  -0.794   1.740  0.00  0.00    +0.036 C 
BRANCH  20  22
ATOM     22  N   UNL     1       3.933   0.689   3.170  0.00  0.00    -0.293 N 
ATOM     23  C   UNL     1       4.636  -0.281   3.786  0.00  0.00    +0.219 C 
ATOM     24  O   UNL     1       4.182  -1.403   3.864  0.00  0.00    -0.275 OA
BRANCH  23  25
ATOM     25  C   UNL     1       5.988   0.027   4.378  0.00  0.00    +0.075 C 
ATOM     26  C   UNL     1       7.070  -0.025   3.280  0.00  0.00    +0.013 C 
ATOM     27  C   UNL     1       8.301  -0.643   3.989  0.00  0.00    +0.001 C 
ATOM     28  C   UNL     1       7.663  -1.708   4.915  0.00  0.00    +0.001 C 
ATOM     29  C   UNL     1       6.364  -1.043   5.418  0.00  0.00    +0.013 C 
ENDBRANCH  23  25
BRANCH  22  30
ATOM     30  C   UNL     1       4.521   2.020   2.993  0.00  0.00    +0.090 C 
BRANCH  30  31
ATOM     31  C   UNL     1       4.182   2.892   4.203  0.00  0.00    -0.060 C 
BRANCH  31  32
ATOM     32  N   UNL     1       4.676   4.257   3.977  0.00  0.00    +0.377 N 
ATOM     33  C   UNL     1       4.248   5.122   5.083  0.00  0.00    -0.097 C 
ATOM     34  C   UNL     1       6.143   4.242   3.906  0.00  0.00    -0.097 C 
ATOM     35  H   UNL     1       4.301   4.610   3.109  0.00  0.00    -0.083 HD
ENDBRANCH  31  32
ENDBRANCH  30  31
ENDBRANCH  22  30
ENDBRANCH  20  22
ENDBRANCH  11  20
TORSDOF 7
