REMARK  Name = ZINC36599710
REMARK  15 active torsions:
REMARK  status: ('A' for Active; 'I' for Inactive)
REMARK    1  A    between atoms: C_1  and  C_2
REMARK    2  A    between atoms: C_2  and  C_3
REMARK    3  A    between atoms: C_3  and  C_4
REMARK    4  A    between atoms: N_6  and  C_7
REMARK    5  A    between atoms: N_6  and  C_14
REMARK    6  A    between atoms: C_7  and  C_8
REMARK    7  A    between atoms: C_11  and  C_13
REMARK    8  A    between atoms: C_14  and  C_16
REMARK    9  A    between atoms: C_14  and  C_25
REMARK   10  A    between atoms: C_16  and  C_18
REMARK   11  A    between atoms: C_16  and  C_19
REMARK   12  A    between atoms: N_27  and  C_28
REMARK   13  A    between atoms: C_28  and  S_29
REMARK   14  A    between atoms: S_29  and  C_32
REMARK   15  A    between atoms: C_35  and  C_38
REMARK                            x       y       z     vdW  Elec       q    Type
REMARK                         _______ _______ _______ _____ _____    ______ ____
ROOT
ATOM      1  C   UNL     1       2.086  -1.957   3.278  0.00  0.00    +0.169 C 
ENDROOT
BRANCH   1   2
ATOM      2  C   UNL     1       0.873  -1.318   3.902  0.00  0.00    +0.235 C 
ATOM      3  O   UNL     1      -0.238  -1.659   3.556  0.00  0.00    -0.274 OA
ATOM      4  N   UNL     1       1.022  -0.366   4.845  0.00  0.00    -0.295 N 
ATOM      5  H   UNL     1       1.910  -0.093   5.122  0.00  0.00    +0.150 HD
BRANCH   4   6
ATOM      6  C   UNL     1      -0.158   0.255   5.452  0.00  0.00    +0.278 C 
BRANCH   6   7
ATOM      7  S   UNL     1      -0.565  -0.602   6.998  0.00  0.00    +0.013 S 
ATOM      8  O   UNL     1      -1.670   0.028   7.631  0.00  0.00    -0.168 OA
ATOM      9  O   UNL     1      -0.552  -2.009   6.796  0.00  0.00    -0.168 OA
BRANCH   7  10
ATOM     10  C   UNL     1       0.803  -0.289   8.063  0.00  0.00    +0.090 A 
ATOM     11  C   UNL     1       1.884  -1.151   8.072  0.00  0.00    +0.027 A 
ATOM     12  C   UNL     1       2.957  -0.904   8.908  0.00  0.00    +0.005 A 
ATOM     13  C   UNL     1       2.950   0.203   9.735  0.00  0.00    -0.050 A 
ATOM     14  C   UNL     1       1.869   1.065   9.725  0.00  0.00    +0.005 A 
ATOM     15  C   UNL     1       0.798   0.822   8.886  0.00  0.00    +0.027 A 
ATOM     16  C   UNL     1       4.119   0.471  10.646  0.00  0.00    +0.044 C 
ENDBRANCH   7  10
ENDBRANCH   6   7
ENDBRANCH   4   6
ENDBRANCH   1   2
BRANCH   1  19
ATOM     17  C   UNL     1       0.907  -2.827   1.331  0.00  0.00    +0.217 C 
ATOM     18  O   UNL     1       0.475  -3.752   0.678  0.00  0.00    -0.276 OA
ATOM     19  N   UNL     1       1.667  -3.066   2.419  0.00  0.00    -0.282 N 
BRANCH  17  20
ATOM     20  C   UNL     1       0.596  -1.409   0.927  0.00  0.00    +0.096 C 
BRANCH  20  22
ATOM     21  C   UNL     1      -0.834   0.030  -0.531  0.00  0.00    +0.004 C 
ATOM     22  C   UNL     1      -0.518  -1.410  -0.121  0.00  0.00    +0.006 C 
ENDBRANCH  20  22
ENDBRANCH  17  20
BRANCH  19  23
ATOM     23  C   UNL     1       2.072  -4.437   2.741  0.00  0.00    +0.182 C 
BRANCH  23  24
ATOM     24  C   UNL     1       3.385  -4.744   2.068  0.00  0.00    +0.122 A 
ATOM     25  C   UNL     1       4.606  -4.544   2.597  0.00  0.00    +0.046 A 
ATOM     26  C   UNL     1       5.545  -4.968   1.629  0.00  0.00    +0.045 A 
ATOM     27  C   UNL     1       4.843  -5.402   0.568  0.00  0.00    +0.102 A 
ATOM     28  O   UNL     1       3.535  -5.269   0.841  0.00  0.00    -0.463 OA
ATOM     29  C   UNL     1       5.425  -5.949  -0.710  0.00  0.00    +0.086 C 
ENDBRANCH  23  24
ENDBRANCH  19  23
ENDBRANCH   1  19
BRANCH   1  30
ATOM     30  C   UNL     1       2.836  -0.918   2.440  0.00  0.00    +0.045 C 
ATOM     31  C   UNL     1       3.965  -1.604   1.669  0.00  0.00    +0.015 C 
BRANCH  30  32
ATOM     32  C   UNL     1       3.415   0.136   3.348  0.00  0.00    -0.042 A 
ATOM     33  C   UNL     1       4.326  -0.218   4.326  0.00  0.00    +0.004 A 
ATOM     34  C   UNL     1       4.857   0.750   5.158  0.00  0.00    +0.000 A 
ATOM     35  C   UNL     1       4.477   2.071   5.013  0.00  0.00    +0.000 A 
ATOM     36  C   UNL     1       3.567   2.425   4.035  0.00  0.00    +0.000 A 
ATOM     37  C   UNL     1       3.039   1.458   3.199  0.00  0.00    +0.004 A 
ENDBRANCH  30  32
ENDBRANCH   1  30
TORSDOF 11
