REMARK  Name = ZINC02731682
REMARK  11 active torsions:
REMARK  status: ('A' for Active; 'I' for Inactive)
REMARK    1  A    between atoms: C_1  and  C_2
REMARK    2  A    between atoms: C_3  and  C_31
REMARK    3  A    between atoms: C_4  and  C_20
REMARK    4  A    between atoms: C_10  and  C_15
REMARK    5  A    between atoms: C_31  and  O_33
REMARK    6  A    between atoms: O_33  and  C_34
REMARK    7  A    between atoms: C_34  and  C_35
REMARK    8  A    between atoms: C_35  and  O_36
REMARK    9  A    between atoms: O_36  and  C_37
REMARK   10  A    between atoms: C_37  and  C_38
REMARK   11  A    between atoms: C_37  and  C_39
REMARK                            x       y       z     vdW  Elec       q    Type
REMARK                         _______ _______ _______ _____ _____    ______ ____
ROOT
ATOM      1  C   UNL     1       3.224   4.437   2.673  0.00  0.00    +0.061 C 
ATOM      2  C   UNL     1       2.877   3.534   1.518  0.00  0.00    +0.016 C 
ATOM      3  C   UNL     1       3.849   3.091   0.701  0.00  0.00    +0.065 C 
ATOM      4  C   UNL     1       3.541   2.196  -0.463  0.00  0.00    +0.099 C 
ATOM      5  C   UNL     1       2.181   1.560  -0.310  0.00  0.00    +0.024 C 
ATOM      6  C   UNL     1       1.272   2.074   0.545  0.00  0.00    +0.016 C 
ATOM      7  N   UNL     1       1.576   3.171   1.307  0.00  0.00    -0.321 N 
ATOM      8  C   UNL     1      -0.096   1.456   0.688  0.00  0.00    +0.060 C 
ATOM      9  C   UNL     1      -0.009  -0.050   0.427  0.00  0.00    +0.039 C 
ATOM     10  C   UNL     1       0.557  -0.268  -0.980  0.00  0.00    +0.088 C 
ATOM     11  C   UNL     1       1.888   0.425  -1.085  0.00  0.00    +0.162 C 
ATOM     12  O   UNL     1       2.725  -0.005  -1.854  0.00  0.00    -0.292 OA
ATOM     13  H   UNL     1       0.761   3.761   1.751  0.00  0.00    +0.152 HD
ENDROOT
BRANCH   4  14
ATOM     14  C   UNL     1       3.567   3.009  -1.732  0.00  0.00    +0.047 A 
ATOM     15  C   UNL     1       2.650   3.971  -1.939  0.00  0.00    +0.204 A 
ATOM     16  O   UNL     1       2.627   4.726  -3.042  0.00  0.00    -0.462 OA
ATOM     17  C   UNL     1       3.521   4.573  -4.041  0.00  0.00    +0.138 A 
ATOM     18  C   UNL     1       3.466   5.371  -5.178  0.00  0.00    +0.047 A 
ATOM     19  C   UNL     1       4.390   5.196  -6.185  0.00  0.00    +0.004 A 
ATOM     20  C   UNL     1       5.379   4.228  -6.079  0.00  0.00    +0.001 A 
ATOM     21  C   UNL     1       5.450   3.426  -4.961  0.00  0.00    +0.015 A 
ATOM     22  C   UNL     1       4.522   3.594  -3.935  0.00  0.00    +0.064 A 
ATOM     23  C   UNL     1       4.558   2.760  -2.718  0.00  0.00    +0.197 A 
ATOM     24  O   UNL     1       5.402   1.893  -2.567  0.00  0.00    -0.287 OA
ENDBRANCH   4  14
BRANCH   9  25
ATOM     25  C   UNL     1      -1.383  -0.661   0.525  0.00  0.00    -0.006 A 
ATOM     26  C   UNL     1      -1.829  -1.628   1.364  0.00  0.00    +0.011 A 
ATOM     27  C   UNL     1      -3.147  -2.038   1.274  0.00  0.00    +0.008 A 
ATOM     28  C   UNL     1      -3.953  -1.461   0.349  0.00  0.00    +0.045 A 
ATOM     29  S   UNL     1      -2.847  -0.294  -0.428  0.00  0.00    -0.101 S 
ENDBRANCH   9  25
BRANCH   3  30
ATOM     30  C   UNL     1       5.188   3.476   0.945  0.00  0.00    +0.338 C 
ATOM     31  O   UNL     1       5.953   2.705   1.493  0.00  0.00    -0.245 OA
BRANCH  30  32
ATOM     32  O   UNL     1       5.618   4.699   0.569  0.00  0.00    -0.459 OA
BRANCH  32  33
ATOM     33  C   UNL     1       6.945   5.066   0.950  0.00  0.00    +0.260 C 
BRANCH  33  34
ATOM     34  C   UNL     1       7.210   6.518   0.544  0.00  0.00    +0.201 C 
BRANCH  34  35
ATOM     35  O   UNL     1       6.347   7.383   1.285  0.00  0.00    -0.374 OA
BRANCH  35  36
ATOM     36  C   UNL     1       6.434   8.757   0.901  0.00  0.00    +0.112 C 
ATOM     37  C   UNL     1       5.115   9.461   1.224  0.00  0.00    +0.037 C 
ATOM     38  C   UNL     1       7.573   9.430   1.671  0.00  0.00    +0.037 C 
ENDBRANCH  35  36
ENDBRANCH  34  35
ENDBRANCH  33  34
ENDBRANCH  32  33
ENDBRANCH  30  32
ENDBRANCH   3  30
TORSDOF 8
