REMARK  Name = ZINC13151178
REMARK  15 active torsions:
REMARK  status: ('A' for Active; 'I' for Inactive)
REMARK    1  A    between atoms: C_1  and  C_2
REMARK    2  A    between atoms: C_2  and  C_3
REMARK    3  A    between atoms: C_3  and  C_4
REMARK    4  A    between atoms: C_4  and  C_6
REMARK    5  A    between atoms: C_4  and  N_15
REMARK    6  A    between atoms: N_10  and  C_11
REMARK    7  A    between atoms: C_11  and  C_12
REMARK    8  A    between atoms: C_12  and  O_13
REMARK    9  A    between atoms: O_13  and  C_14
REMARK   10  A    between atoms: N_15  and  C_16
REMARK   11  A    between atoms: N_15  and  C_31
REMARK   12  A    between atoms: C_16  and  C_17
REMARK   13  A    between atoms: C_21  and  C_30
REMARK   14  A    between atoms: C_22  and  C_29
REMARK   15  A    between atoms: C_31  and  C_32
REMARK                            x       y       z     vdW  Elec       q    Type
REMARK                         _______ _______ _______ _____ _____    ______ ____
ROOT
ATOM      1  N   UNL     1      -0.798  -2.745  -1.255  0.00  0.00    +0.391 N 
ATOM      2  H   UNL     1      -1.399  -2.091  -1.734  0.00  0.00    -0.080 HD
ENDROOT
BRANCH   1   3
ATOM      3  C   UNL     1      -0.938  -2.566   0.196  0.00  0.00    +0.003 C 
BRANCH   3   4
ATOM      4  C   UNL     1       0.003  -3.501   0.911  0.00  0.00    +0.138 A 
ATOM      5  N   UNL     1       0.206  -4.767   0.637  0.00  0.00    -0.115 NA
ATOM      6  N   UNL     1       1.081  -5.218   1.469  0.00  0.00    -0.023 NA
ATOM      7  N   UNL     1       1.441  -4.274   2.266  0.00  0.00    -0.044 NA
ATOM      8  N   UNL     1       0.803  -3.197   1.950  0.00  0.00    -0.229 N 
BRANCH   8   9
ATOM      9  C   UNL     1       0.923  -1.891   2.603  0.00  0.00    +0.175 C 
BRANCH   9  10
ATOM     10  C   UNL     1      -0.089  -1.798   3.747  0.00  0.00    +0.183 C 
BRANCH  10  11
ATOM     11  O   UNL     1       0.029  -0.524   4.383  0.00  0.00    -0.381 OA
ATOM     12  C   UNL     1      -0.877  -0.332   5.472  0.00  0.00    +0.194 C 
ENDBRANCH  10  11
ENDBRANCH   9  10
ENDBRANCH   8   9
ENDBRANCH   3   4
BRANCH   3  13
ATOM     13  C   UNL     1      -2.377  -2.874   0.612  0.00  0.00    -0.008 C 
BRANCH  13  15
ATOM     14  C   UNL     1      -4.774  -2.263   0.258  0.00  0.00    +0.004 C 
ATOM     15  C   UNL     1      -3.327  -1.884  -0.065  0.00  0.00    -0.005 C 
ENDBRANCH  13  15
ENDBRANCH   3  13
ENDBRANCH   1   3
BRANCH   1  16
ATOM     16  C   UNL     1      -1.178  -4.116  -1.618  0.00  0.00    -0.036 C 
BRANCH  16  17
ATOM     17  C   UNL     1      -1.183  -4.256  -3.118  0.00  0.00    +0.001 A 
ATOM     18  C   UNL     1      -0.098  -4.763  -3.754  0.00  0.00    +0.017 A 
ATOM     19  C   UNL     1      -0.135  -4.885  -5.212  0.00  0.00    -0.001 A 
ATOM     20  C   UNL     1       0.954  -5.401  -5.923  0.00  0.00    +0.013 A 
ATOM     21  C   UNL     1       0.888  -5.503  -7.283  0.00  0.00    -0.047 A 
ATOM     22  C   UNL     1      -0.251  -5.099  -7.967  0.00  0.00    -0.046 A 
ATOM     23  C   UNL     1      -1.335  -4.588  -7.288  0.00  0.00    +0.030 A 
ATOM     24  C   UNL     1      -1.291  -4.475  -5.902  0.00  0.00    +0.049 A 
ATOM     25  N   UNL     1      -2.362  -3.968  -5.197  0.00  0.00    -0.322 N 
ATOM     26  H   UNL     1      -3.158  -3.686  -5.674  0.00  0.00    +0.169 HD
ATOM     27  C   UNL     1      -2.321  -3.864  -3.857  0.00  0.00    +0.251 A 
ATOM     28  O   UNL     1      -3.288  -3.416  -3.266  0.00  0.00    -0.268 OA
ATOM     29  C   UNL     1      -0.301  -5.221  -9.469  0.00  0.00    +0.044 C 
ATOM     30  C   UNL     1       2.061  -6.059  -8.049  0.00  0.00    +0.044 C 
ENDBRANCH  16  17
ENDBRANCH   1  16
BRANCH   1  31
ATOM     31  C   UNL     1       0.598  -2.504  -1.646  0.00  0.00    -0.045 C 
BRANCH  31  32
ATOM     32  C   UNL     1       0.921  -1.016  -1.492  0.00  0.00    +0.102 C 
ATOM     33  C   UNL     1       2.334  -0.728  -2.044  0.00  0.00    +0.032 C 
ATOM     34  C   UNL     1       2.884   0.301  -1.019  0.00  0.00    +0.030 C 
ATOM     35  C   UNL     1       2.221  -0.203   0.288  0.00  0.00    +0.160 C 
ATOM     36  O   UNL     1       0.915  -0.659  -0.105  0.00  0.00    -0.378 OA
ENDBRANCH  31  32
ENDBRANCH   1  31
TORSDOF 11
