REMARK  Name = ZINC08582963
REMARK  8 active torsions:
REMARK  status: ('A' for Active; 'I' for Inactive)
REMARK    1  A    between atoms: C_1  and  C_2
REMARK    2  A    between atoms: C_7  and  C_13
REMARK    3  A    between atoms: C_8  and  O_12
REMARK    4  A    between atoms: C_13  and  C_15
REMARK    5  A    between atoms: C_13  and  N_66
REMARK    6  A    between atoms: N_19  and  C_20
REMARK    7  A    between atoms: C_20  and  C_21
REMARK    8  A    between atoms: N_29  and  C_32
REMARK                            x       y       z     vdW  Elec       q    Type
REMARK                         _______ _______ _______ _____ _____    ______ ____
ROOT
ATOM      1  C   UNL     1       1.783  -1.450  -1.740  0.00  0.00    +0.039 C 
ENDROOT
BRANCH   1   8
ATOM      2  C   UNL     1       7.202  -7.201  -1.110  0.00  0.00    +0.044 C 
ATOM      3  C   UNL     1       6.332  -5.996  -1.358  0.00  0.00    -0.048 A 
ATOM      4  C   UNL     1       6.821  -4.943  -2.127  0.00  0.00    +0.004 A 
ATOM      5  C   UNL     1       6.058  -3.841  -2.369  0.00  0.00    +0.010 A 
ATOM      6  C   UNL     1       4.761  -3.764  -1.838  0.00  0.00    +0.001 A 
ATOM      7  C   UNL     1       3.942  -2.641  -2.067  0.00  0.00    +0.017 A 
ATOM      8  C   UNL     1       2.693  -2.631  -1.521  0.00  0.00    +0.008 A 
ATOM      9  C   UNL     1       2.259  -3.718  -0.752  0.00  0.00    +0.215 A 
ATOM     10  N   UNL     1       3.026  -4.767  -0.547  0.00  0.00    -0.213 NA
ATOM     11  C   UNL     1       4.261  -4.834  -1.056  0.00  0.00    +0.075 A 
ATOM     12  C   UNL     1       5.079  -5.954  -0.828  0.00  0.00    +0.031 A 
BRANCH   9  13
ATOM     13  O   UNL     1       1.016  -3.692  -0.212  0.00  0.00    -0.492 OA
ATOM     14  H   UNL     1       0.331  -4.069  -0.782  0.00  0.00    +0.294 HD
ENDBRANCH   9  13
ENDBRANCH   1   8
BRANCH   1  20
ATOM     15  C   UNL     1       1.363  -2.273  -3.978  0.00  0.00    -0.058 C 
ATOM     16  C   UNL     1       0.260  -2.703  -4.949  0.00  0.00    +0.086 C 
ATOM     17  N   UNL     1      -0.638  -1.567  -5.200  0.00  0.00    -0.333 N 
ATOM     18  C   UNL     1      -1.247  -1.095  -3.949  0.00  0.00    +0.086 C 
ATOM     19  C   UNL     1      -0.145  -0.665  -2.978  0.00  0.00    -0.058 C 
ATOM     20  N   UNL     1       0.738  -1.822  -2.717  0.00  0.00    +0.391 N 
ATOM     21  H   UNL     1       0.177  -2.590  -2.329  0.00  0.00    -0.080 HD
BRANCH  17  22
ATOM     22  C   UNL     1      -1.617  -1.901  -6.139  0.00  0.00    +0.030 A 
ATOM     23  C   UNL     1      -2.962  -1.769  -5.818  0.00  0.00    +0.023 A 
ATOM     24  C   UNL     1      -3.927  -2.096  -6.751  0.00  0.00    +0.002 A 
ATOM     25  C   UNL     1      -3.556  -2.563  -7.998  0.00  0.00    +0.000 A 
ATOM     26  C   UNL     1      -2.217  -2.700  -8.318  0.00  0.00    +0.002 A 
ATOM     27  C   UNL     1      -1.247  -2.371  -7.393  0.00  0.00    +0.023 A 
ENDBRANCH  17  22
ENDBRANCH   1  20
BRANCH   1  28
ATOM     28  C   UNL     1       2.589  -0.282  -2.248  0.00  0.00    +0.143 A 
ATOM     29  N   UNL     1       3.067  -0.129  -3.458  0.00  0.00    -0.115 NA
ATOM     30  N   UNL     1       3.700   0.992  -3.497  0.00  0.00    -0.023 NA
ATOM     31  N   UNL     1       3.635   1.560  -2.344  0.00  0.00    -0.044 NA
ATOM     32  N   UNL     1       2.955   0.807  -1.547  0.00  0.00    -0.226 N 
BRANCH  32  33
ATOM     33  C   UNL     1       2.644   1.083  -0.142  0.00  0.00    +0.182 C 
BRANCH  33  34
ATOM     34  C   UNL     1       1.344   1.839  -0.054  0.00  0.00    -0.026 A 
ATOM     35  C   UNL     1       0.150   1.150   0.058  0.00  0.00    +0.005 A 
ATOM     36  C   UNL     1      -1.043   1.843   0.134  0.00  0.00    +0.000 A 
ATOM     37  C   UNL     1      -1.043   3.225   0.107  0.00  0.00    +0.000 A 
ATOM     38  C   UNL     1       0.151   3.914  -0.004  0.00  0.00    +0.000 A 
ATOM     39  C   UNL     1       1.344   3.221  -0.084  0.00  0.00    +0.005 A 
ENDBRANCH  33  34
ENDBRANCH  32  33
ENDBRANCH   1  28
TORSDOF 7
