REMARK  Name = ZINC03011838
REMARK  6 active torsions:
REMARK  status: ('A' for Active; 'I' for Inactive)
REMARK    1  A    between atoms: C_1  and  C_2
REMARK    2  A    between atoms: C_5  and  C_8
REMARK    3  A    between atoms: C_11  and  C_33
REMARK    4  A    between atoms: C_16  and  C_18
REMARK    5  A    between atoms: N_20  and  C_21
REMARK    6  A    between atoms: C_26  and  C_27
REMARK                            x       y       z     vdW  Elec       q    Type
REMARK                         _______ _______ _______ _____ _____    ______ ____
ROOT
ATOM      1  C   UNL     1       0.036  -4.260   0.019  0.00  0.00    +0.104 C 
ATOM      2  C   UNL     1      -1.374  -4.798   0.286  0.00  0.00    +0.063 C 
ATOM      3  C   UNL     1      -1.372  -6.329   0.202  0.00  0.00    +0.215 C 
ATOM      4  N   UNL     1      -0.280  -6.848   1.030  0.00  0.00    -0.238 N 
ATOM      5  C   UNL     1       0.789  -6.099   1.432  0.00  0.00    +0.119 A 
ATOM      6  C   UNL     1       1.594  -6.881   2.176  0.00  0.00    +0.078 A 
ATOM      7  C   UNL     1       1.006  -8.165   2.236  0.00  0.00    +0.149 A 
ATOM      8  N   UNL     1      -0.120  -8.134   1.544  0.00  0.00    -0.164 NA
ATOM      9  N   UNL     1       0.940  -4.754   1.076  0.00  0.00    -0.322 N 
ATOM     10  H   UNL     1       1.597  -4.180   1.500  0.00  0.00    +0.148 HD
ENDROOT
BRANCH   1  15
ATOM     11  C   UNL     1      -0.053   1.518   0.086  0.00  0.00    +0.044 C 
ATOM     12  C   UNL     1      -0.030   0.011   0.068  0.00  0.00    -0.050 A 
ATOM     13  C   UNL     1      -0.030  -0.666  -1.137  0.00  0.00    +0.004 A 
ATOM     14  C   UNL     1      -0.008  -2.048  -1.153  0.00  0.00    +0.006 A 
ATOM     15  C   UNL     1       0.013  -2.753   0.036  0.00  0.00    -0.027 A 
ATOM     16  C   UNL     1       0.014  -2.075   1.242  0.00  0.00    +0.006 A 
ATOM     17  C   UNL     1      -0.003  -0.693   1.257  0.00  0.00    +0.004 A 
ENDBRANCH   1  15
BRANCH   7  18
ATOM     18  C   UNL     1       1.553  -9.337   2.950  0.00  0.00    +0.268 C 
ATOM     19  O   UNL     1       2.602  -9.244   3.556  0.00  0.00    -0.268 OA
ATOM     20  N   UNL     1       0.889 -10.509   2.928  0.00  0.00    -0.280 N 
ATOM     21  H   UNL     1       0.020 -10.567   2.500  0.00  0.00    +0.155 HD
BRANCH  20  22
ATOM     22  C   UNL     1       1.452 -11.644   3.523  0.00  0.00    +0.045 A 
ATOM     23  C   UNL     1       2.220 -11.517   4.673  0.00  0.00    +0.025 A 
ATOM     24  C   UNL     1       2.775 -12.638   5.258  0.00  0.00    +0.022 A 
ATOM     25  C   UNL     1       2.566 -13.887   4.699  0.00  0.00    +0.042 A 
ATOM     26  C   UNL     1       1.801 -14.016   3.554  0.00  0.00    +0.034 A 
ATOM     27  C   UNL     1       1.239 -12.899   2.968  0.00  0.00    +0.077 A 
ATOM     28 CL   UNL     1       3.266 -15.294   5.437  0.00  0.00    -0.084 Cl
BRANCH  27  29
ATOM     29  C   UNL     1       0.400 -13.041   1.724  0.00  0.00    +0.419 C 
ATOM     30  F   UNL     1       0.331 -14.390   1.360  0.00  0.00    -0.166 F 
ATOM     31  F   UNL     1      -0.890 -12.559   1.974  0.00  0.00    -0.166 F 
ATOM     32  F   UNL     1       0.979 -12.306   0.684  0.00  0.00    -0.166 F 
ENDBRANCH  27  29
ENDBRANCH  20  22
ENDBRANCH   7  18
BRANCH   3  33
ATOM     33  C   UNL     1      -2.709  -6.872   0.713  0.00  0.00    +0.412 C 
ATOM     34  F   UNL     1      -3.749  -6.364  -0.073  0.00  0.00    -0.168 F 
ATOM     35  F   UNL     1      -2.705  -8.268   0.635  0.00  0.00    -0.168 F 
ATOM     36  F   UNL     1      -2.894  -6.479   2.042  0.00  0.00    -0.168 F 
ENDBRANCH   3  33
TORSDOF 5
