REMARK  Name = ZINC34726081
REMARK  9 active torsions:
REMARK  status: ('A' for Active; 'I' for Inactive)
REMARK    1  A    between atoms: C_1  and  C_2
REMARK    2  A    between atoms: C_5  and  C_9
REMARK    3  A    between atoms: C_6  and  C_8
REMARK    4  A    between atoms: C_9  and  N_10
REMARK    5  A    between atoms: N_18  and  C_21
REMARK    6  A    between atoms: C_21  and  C_22
REMARK    7  A    between atoms: N_24  and  C_25
REMARK    8  A    between atoms: C_32  and  C_35
REMARK    9  A    between atoms: C_33  and  C_34
REMARK                            x       y       z     vdW  Elec       q    Type
REMARK                         _______ _______ _______ _____ _____    ______ ____
ROOT
ATOM      1  N   UNL     1      -1.289  -4.835   0.368  0.00  0.00    -0.256 N 
ATOM      2  C   UNL     1      -1.637  -4.958   1.662  0.00  0.00    +0.266 A 
ATOM      3  O   UNL     1      -0.858  -4.641   2.542  0.00  0.00    -0.267 OA
ATOM      4  C   UNL     1      -2.975  -5.484   2.000  0.00  0.00    +0.078 A 
ATOM      5  C   UNL     1      -3.560  -5.700   3.341  0.00  0.00    +0.003 A 
ATOM      6  C   UNL     1      -4.824  -6.200   3.370  0.00  0.00    +0.004 A 
ATOM      7  S   UNL     1      -5.281  -6.398   1.670  0.00  0.00    -0.074 S 
ATOM      8  C   UNL     1      -3.785  -5.815   0.918  0.00  0.00    +0.098 A 
ATOM      9  N   UNL     1      -3.357  -5.660  -0.371  0.00  0.00    -0.278 N 
ATOM     10  C   UNL     1      -2.127  -5.170  -0.627  0.00  0.00    +0.334 A 
ATOM     11  O   UNL     1      -1.767  -5.035  -1.780  0.00  0.00    -0.246 OA
ATOM     12  C   UNL     1      -5.245  -6.352   4.801  0.00  0.00    +0.073 C 
ATOM     13  C   UNL     1      -4.059  -5.875   5.607  0.00  0.00    -0.064 C 
ATOM     14  C   UNL     1      -3.120  -5.512   4.753  0.00  0.00    -0.042 C 
ATOM     15  C   UNL     1      -1.771  -4.975   5.155  0.00  0.00    +0.044 C 
ATOM     16  C   UNL     1      -3.965  -5.822   7.110  0.00  0.00    +0.039 C 
ENDROOT
BRANCH   1  17
ATOM     17  C   UNL     1       0.039  -4.314   0.035  0.00  0.00    +0.165 C 
BRANCH  17  22
ATOM     18  C   UNL     1      -0.105   1.463   0.025  0.00  0.00    +0.044 C 
ATOM     19  C   UNL     1      -0.068  -0.044   0.028  0.00  0.00    -0.050 A 
ATOM     20  C   UNL     1      -1.233  -0.764   0.213  0.00  0.00    +0.004 A 
ATOM     21  C   UNL     1      -1.199  -2.146   0.215  0.00  0.00    +0.006 A 
ATOM     22  C   UNL     1       0.001  -2.808   0.031  0.00  0.00    -0.025 A 
ATOM     23  C   UNL     1       1.166  -2.087  -0.155  0.00  0.00    -0.045 A 
ATOM     24  C   UNL     1       1.131  -0.705  -0.161  0.00  0.00    +0.007 A 
ATOM     25  C   UNL     1       2.474  -2.809  -0.355  0.00  0.00    +0.044 C 
ENDBRANCH  17  22
ENDBRANCH   1  17
BRANCH   9  26
ATOM     26  C   UNL     1      -4.242  -6.021  -1.482  0.00  0.00    +0.223 C 
BRANCH  26  27
ATOM     27  C   UNL     1      -5.067  -4.823  -1.876  0.00  0.00    +0.237 C 
ATOM     28  O   UNL     1      -4.929  -3.772  -1.288  0.00  0.00    -0.274 OA
ATOM     29  N   UNL     1      -5.958  -4.921  -2.883  0.00  0.00    -0.284 N 
ATOM     30  H   UNL     1      -6.021  -5.741  -3.397  0.00  0.00    +0.155 HD
BRANCH  29  31
ATOM     31  C   UNL     1      -6.792  -3.839  -3.187  0.00  0.00    +0.033 A 
ATOM     32  C   UNL     1      -8.094  -4.063  -3.615  0.00  0.00    +0.023 A 
ATOM     33  C   UNL     1      -8.914  -2.993  -3.914  0.00  0.00    +0.002 A 
ATOM     34  C   UNL     1      -8.441  -1.700  -3.787  0.00  0.00    +0.000 A 
ATOM     35  C   UNL     1      -7.144  -1.474  -3.362  0.00  0.00    +0.002 A 
ATOM     36  C   UNL     1      -6.321  -2.539  -3.055  0.00  0.00    +0.023 A 
ENDBRANCH  29  31
ENDBRANCH  26  27
ENDBRANCH   9  26
TORSDOF 5
