REMARK  Name = ZINC67651896
REMARK  11 active torsions:
REMARK  status: ('A' for Active; 'I' for Inactive)
REMARK    1  A    between atoms: C_1  and  C_2
REMARK    2  A    between atoms: C_7  and  N_8
REMARK    3  A    between atoms: C_9  and  C_21
REMARK    4  A    between atoms: C_12  and  S_13
REMARK    5  A    between atoms: S_13  and  C_14
REMARK    6  A    between atoms: C_14  and  C_15
REMARK    7  A    between atoms: C_15  and  O_16
REMARK    8  A    between atoms: O_16  and  C_17
REMARK    9  A    between atoms: C_17  and  C_18
REMARK   10  A    between atoms: C_17  and  C_19
REMARK   11  A    between atoms: C_17  and  C_20
REMARK                            x       y       z     vdW  Elec       q    Type
REMARK                         _______ _______ _______ _____ _____    ______ ____
ROOT
ATOM      1  N   UNL     1       0.025  -0.013   2.419  0.00  0.00    -0.270 N 
ATOM      2  C   UNL     1      -1.072   0.378   3.156  0.00  0.00    +0.171 A 
ATOM      3  N   UNL     1      -0.618   0.994   4.223  0.00  0.00    -0.128 NA
ATOM      4  N   UNL     1       0.667   1.016   4.205  0.00  0.00    -0.122 NA
ATOM      5  C   UNL     1       1.115   0.410   3.128  0.00  0.00    +0.196 A 
ENDROOT
BRANCH   1  12
ATOM      6  C   UNL     1      -0.018   1.503   0.010  0.00  0.00    +0.046 C 
ATOM      7  C   UNL     1       0.002  -0.004   0.002  0.00  0.00    -0.026 A 
ATOM      8  C   UNL     1       0.006  -0.689  -1.198  0.00  0.00    +0.005 A 
ATOM      9  C   UNL     1       0.025  -2.071  -1.206  0.00  0.00    +0.000 A 
ATOM     10  C   UNL     1       0.040  -2.773  -0.014  0.00  0.00    +0.002 A 
ATOM     11  C   UNL     1       0.036  -2.094   1.188  0.00  0.00    +0.026 A 
ATOM     12  C   UNL     1       0.023  -0.705   1.200  0.00  0.00    +0.053 A 
ENDBRANCH   1  12
BRANCH   2  13
ATOM     13  C   UNL     1      -2.490   0.148   2.811  0.00  0.00    +0.038 A 
ATOM     14  C   UNL     1      -3.506   0.858   3.463  0.00  0.00    +0.014 A 
ATOM     15  C   UNL     1      -4.817   0.607   3.103  0.00  0.00    +0.020 A 
ATOM     16  C   UNL     1      -5.082  -0.330   2.119  0.00  0.00    +0.111 A 
ATOM     17  N   UNL     1      -4.105  -0.985   1.522  0.00  0.00    -0.263 NA
ATOM     18  C   UNL     1      -2.840  -0.776   1.826  0.00  0.00    +0.122 A 
ENDBRANCH   2  13
BRANCH   5  19
ATOM     19  S   UNL     1       2.805   0.188   2.680  0.00  0.00    -0.083 S 
BRANCH  19  20
ATOM     20  C   UNL     1       3.724   0.973   4.033  0.00  0.00    +0.105 C 
BRANCH  20  21
ATOM     21  C   UNL     1       5.226   0.850   3.767  0.00  0.00    +0.171 C 
BRANCH  21  22
ATOM     22  O   UNL     1       5.950   1.469   4.832  0.00  0.00    -0.373 OA
BRANCH  22  23
ATOM     23  C   UNL     1       7.370   1.409   4.681  0.00  0.00    +0.061 C 
ATOM     24  C   UNL     1       7.775   2.120   3.388  0.00  0.00    +0.041 C 
ATOM     25  C   UNL     1       8.039   2.098   5.872  0.00  0.00    +0.041 C 
ATOM     26  C   UNL     1       7.816  -0.053   4.621  0.00  0.00    +0.041 C 
ENDBRANCH  22  23
ENDBRANCH  21  22
ENDBRANCH  20  21
ENDBRANCH  19  20
ENDBRANCH   5  19
TORSDOF 7
