REMARK  Name = ZINC08790117
REMARK  7 active torsions:
REMARK  status: ('A' for Active; 'I' for Inactive)
REMARK    1  A    between atoms: C_1  and  C_2
REMARK    2  A    between atoms: C_16  and  C_18
REMARK    3  A    between atoms: C_18  and  C_19
REMARK    4  A    between atoms: C_22  and  O_25
REMARK    5  A    between atoms: N_28  and  C_31
REMARK    6  A    between atoms: C_31  and  C_32
REMARK    7  A    between atoms: C_32  and  C_33
REMARK                            x       y       z     vdW  Elec       q    Type
REMARK                         _______ _______ _______ _____ _____    ______ ____
ROOT
ATOM      1  C   UNL     1       3.050   3.711  -0.005  0.00  0.00    +0.047 C 
ATOM      2  C   UNL     1       1.613   3.256   0.005  0.00  0.00    -0.011 A 
ATOM      3  C   UNL     1       0.596   4.190   0.021  0.00  0.00    +0.046 A 
ATOM      4  C   UNL     1      -0.726   3.782   0.029  0.00  0.00    +0.020 A 
ATOM      5  C   UNL     1      -1.030   2.432   0.020  0.00  0.00    +0.006 A 
ATOM      6  C   UNL     1      -0.018   1.498   0.010  0.00  0.00    -0.027 A 
ATOM      7  C   UNL     1       1.316   1.896  -0.000  0.00  0.00    +0.040 A 
ATOM      8  N   UNL     1       2.153   0.779  -0.016  0.00  0.00    -0.286 N 
ATOM      9  C   UNL     1       1.459  -0.376  -0.017  0.00  0.00    +0.211 C 
ATOM     10  O   UNL     1       1.921  -1.498  -0.032  0.00  0.00    -0.277 OA
ATOM     11  C   UNL     1       0.002  -0.004   0.002  0.00  0.00    +0.050 C 
ATOM     12  C   UNL     1      -0.707  -0.583   1.232  0.00  0.00    +0.088 C 
ATOM     13  C   UNL     1      -2.132  -0.946   0.727  0.00  0.00    +0.073 C 
ATOM     14  C   UNL     1      -2.146  -0.524  -0.757  0.00  0.00    -0.053 C 
ATOM     15  C   UNL     1      -2.166  -2.453   0.834  0.00  0.00    +0.224 C 
ATOM     16  O   UNL     1      -3.106  -3.156   0.528  0.00  0.00    -0.275 OA
ATOM     17  N   UNL     1      -0.998  -2.892   1.317  0.00  0.00    -0.241 N 
ATOM     18  C   UNL     1      -0.097  -1.920   1.588  0.00  0.00    +0.225 C 
ATOM     19  O   UNL     1       1.017  -2.083   2.038  0.00  0.00    -0.275 OA
ATOM     20 CL   UNL     1       0.978   5.884   0.029  0.00  0.00    -0.083 Cl
ATOM     21  H   UNL     1       3.122   0.828  -0.025  0.00  0.00    +0.155 HD
ATOM     22  N   UNL     1      -0.725  -0.537  -1.135  0.00  0.00    +0.394 N 
ATOM     23  H   UNL     1      -0.419  -1.496  -1.335  0.00  0.00    -0.083 HD
ATOM     24  H   UNL     1      -0.572   0.051  -1.962  0.00  0.00    -0.083 HD
ENDROOT
BRANCH  14  25
ATOM     25  C   UNL     1      -2.940  -1.532  -1.590  0.00  0.00    +0.020 C 
BRANCH  25  26
ATOM     26  C   UNL     1      -3.045  -1.039  -3.010  0.00  0.00    -0.049 A 
ATOM     27  C   UNL     1      -4.112  -0.245  -3.387  0.00  0.00    +0.007 A 
ATOM     28  C   UNL     1      -4.208   0.213  -4.687  0.00  0.00    +0.045 A 
ATOM     29  C   UNL     1      -3.238  -0.134  -5.617  0.00  0.00    +0.117 A 
ATOM     30  C   UNL     1      -2.172  -0.936  -5.237  0.00  0.00    +0.045 A 
ATOM     31  C   UNL     1      -2.077  -1.386  -3.934  0.00  0.00    +0.007 A 
BRANCH  29  32
ATOM     32  O   UNL     1      -3.334   0.310  -6.897  0.00  0.00    -0.507 OA
ATOM     33  H   UNL     1      -3.826  -0.281  -7.483  0.00  0.00    +0.292 HD
ENDBRANCH  29  32
ENDBRANCH  25  26
ENDBRANCH  14  25
BRANCH  17  34
ATOM     34  C   UNL     1      -0.716  -4.312   1.542  0.00  0.00    +0.121 C 
BRANCH  34  35
ATOM     35  C   UNL     1      -0.105  -4.917   0.276  0.00  0.00    +0.054 C 
BRANCH  35  36
ATOM     36  C   UNL     1       0.185  -6.378   0.507  0.00  0.00    -0.046 A 
ATOM     37  C   UNL     1       1.414  -6.768   1.004  0.00  0.00    +0.004 A 
ATOM     38  C   UNL     1       1.678  -8.108   1.220  0.00  0.00    +0.000 A 
ATOM     39  C   UNL     1       0.716  -9.057   0.931  0.00  0.00    +0.000 A 
ATOM     40  C   UNL     1      -0.511  -8.667   0.430  0.00  0.00    +0.000 A 
ATOM     41  C   UNL     1      -0.777  -7.327   0.218  0.00  0.00    +0.004 A 
ENDBRANCH  35  36
ENDBRANCH  34  35
ENDBRANCH  17  34
TORSDOF 6
