REMARK  Name = ZINC02788536
REMARK  10 active torsions:
REMARK  status: ('A' for Active; 'I' for Inactive)
REMARK    1  A    between atoms: C_1  and  C_2
REMARK    2  A    between atoms: C_2  and  O_3
REMARK    3  A    between atoms: O_3  and  C_4
REMARK    4  A    between atoms: C_4  and  C_5
REMARK    5  A    between atoms: C_5  and  O_6
REMARK    6  A    between atoms: O_6  and  C_7
REMARK    7  A    between atoms: C_7  and  C_9
REMARK    8  A    between atoms: C_10  and  C_36
REMARK    9  A    between atoms: C_14  and  C_16
REMARK   10  A    between atoms: C_26  and  C_29
REMARK                            x       y       z     vdW  Elec       q    Type
REMARK                         _______ _______ _______ _____ _____    ______ ____
ROOT
ATOM      1  C   UNL     1      -3.750   1.980  -0.360  0.00  0.00    +0.065 C 
ATOM      2  C   UNL     1      -3.592   3.315  -0.352  0.00  0.00    +0.016 C 
ATOM      3  N   UNL     1      -2.398   3.869   0.029  0.00  0.00    -0.321 N 
ATOM      4  C   UNL     1      -1.249   3.124   0.007  0.00  0.00    +0.016 C 
ATOM      5  C   UNL     1      -1.306   1.776   0.008  0.00  0.00    +0.024 C 
ATOM      6  C   UNL     1      -2.633   1.061   0.042  0.00  0.00    +0.092 C 
ATOM      7  C   UNL     1      -0.134   1.000  -0.012  0.00  0.00    +0.162 C 
ATOM      8  O   UNL     1      -0.220  -0.212  -0.025  0.00  0.00    -0.292 OA
ATOM      9  C   UNL     1       1.226   1.643  -0.023  0.00  0.00    +0.088 C 
ATOM     10  C   UNL     1       1.140   3.004   0.677  0.00  0.00    +0.032 C 
ATOM     11  C   UNL     1       0.076   3.846  -0.030  0.00  0.00    +0.059 C 
ATOM     12  C   UNL     1      -4.738   4.207  -0.754  0.00  0.00    +0.061 C 
ATOM     13  H   UNL     1      -2.358   4.918   0.356  0.00  0.00    +0.152 HD
ENDROOT
BRANCH   6  14
ATOM     14  C   UNL     1      -2.887   0.555   1.438  0.00  0.00    -0.035 A 
ATOM     15  C   UNL     1      -2.949   1.444   2.495  0.00  0.00    +0.006 A 
ATOM     16  C   UNL     1      -3.188   0.981   3.775  0.00  0.00    +0.020 A 
ATOM     17  C   UNL     1      -3.353  -0.374   4.000  0.00  0.00    +0.041 A 
ATOM     18  C   UNL     1      -3.286  -1.264   2.943  0.00  0.00    +0.020 A 
ATOM     19  C   UNL     1      -3.053  -0.799   1.663  0.00  0.00    +0.006 A 
ATOM     20 CL   UNL     1      -3.646  -0.957   5.609  0.00  0.00    -0.084 Cl
ENDBRANCH   6  14
BRANCH  10  21
ATOM     21  C   UNL     1       2.473   3.700   0.596  0.00  0.00    -0.043 A 
ATOM     22  C   UNL     1       3.027   3.992  -0.636  0.00  0.00    +0.005 A 
ATOM     23  C   UNL     1       4.248   4.636  -0.711  0.00  0.00    +0.020 A 
ATOM     24  C   UNL     1       4.921   4.979   0.449  0.00  0.00    +0.041 A 
ATOM     25  C   UNL     1       4.368   4.683   1.682  0.00  0.00    +0.020 A 
ATOM     26  C   UNL     1       3.145   4.043   1.755  0.00  0.00    +0.005 A 
ATOM     27 CL   UNL     1       6.457   5.782   0.356  0.00  0.00    -0.084 Cl
ENDBRANCH  10  21
BRANCH   1  28
ATOM     28  C   UNL     1      -4.992   1.431  -0.754  0.00  0.00    +0.338 C 
ATOM     29  O   UNL     1      -5.937   2.164  -0.980  0.00  0.00    -0.245 OA
BRANCH  28  30
ATOM     30  O   UNL     1      -5.130   0.094  -0.881  0.00  0.00    -0.459 OA
BRANCH  30  31
ATOM     31  C   UNL     1      -6.412  -0.391  -1.283  0.00  0.00    +0.260 C 
BRANCH  31  32
ATOM     32  C   UNL     1      -6.375  -1.918  -1.371  0.00  0.00    +0.201 C 
BRANCH  32  33
ATOM     33  O   UNL     1      -6.155  -2.465  -0.070  0.00  0.00    -0.377 OA
BRANCH  33  35
ATOM     34  C   UNL     1      -5.864  -4.365   1.395  0.00  0.00    +0.034 C 
ATOM     35  C   UNL     1      -6.103  -3.893  -0.041  0.00  0.00    +0.156 C 
ENDBRANCH  33  35
ENDBRANCH  32  33
ENDBRANCH  31  32
ENDBRANCH  30  31
ENDBRANCH  28  30
ENDBRANCH   1  28
TORSDOF 8
