REMARK  Name = ZINC37063975
REMARK  6 active torsions:
REMARK  status: ('A' for Active; 'I' for Inactive)
REMARK    1  A    between atoms: C_1  and  C_2
REMARK    2  A    between atoms: N_8  and  S_9
REMARK    3  A    between atoms: S_9  and  C_12
REMARK    4  A    between atoms: C_13  and  C_20
REMARK    5  A    between atoms: C_14  and  C_19
REMARK    6  A    between atoms: C_17  and  N_18
REMARK                            x       y       z     vdW  Elec       q    Type
REMARK                         _______ _______ _______ _____ _____    ______ ____
ROOT
ATOM      1  S   UNL     1      -0.293  -4.367   0.659  0.00  0.00    +0.075 S 
ATOM      2  O   UNL     1      -0.141  -3.092   0.051  0.00  0.00    -0.150 OA
ATOM      3  O   UNL     1      -0.577  -5.540  -0.092  0.00  0.00    -0.150 OA
ENDROOT
BRANCH   1  11
ATOM      4  C   UNL     1       1.409  -9.214   4.776  0.00  0.00    +0.045 C 
ATOM      5  C   UNL     1       1.365  -7.987   3.901  0.00  0.00    -0.032 A 
ATOM      6  C   UNL     1       2.510  -7.229   3.698  0.00  0.00    +0.008 A 
ATOM      7  C   UNL     1       2.427  -6.111   2.888  0.00  0.00    +0.045 A 
ATOM      8  C   UNL     1       1.205  -5.786   2.307  0.00  0.00    +0.138 A 
ATOM      9  N   UNL     1       0.135  -6.535   2.525  0.00  0.00    -0.239 NA
ATOM     10  C   UNL     1       0.186  -7.610   3.289  0.00  0.00    +0.116 A 
ATOM     11  N   UNL     1       1.107  -4.665   1.491  0.00  0.00    -0.199 N 
ATOM     12  H   UNL     1       1.858  -4.057   1.410  0.00  0.00    +0.175 HD
ENDBRANCH   1  11
BRANCH   1  13
ATOM     13  C   UNL     1      -1.583  -4.208   1.848  0.00  0.00    +0.132 A 
ATOM     14  C   UNL     1      -1.749  -3.020   2.534  0.00  0.00    -0.019 A 
ATOM     15  C   UNL     1      -2.761  -2.894   3.468  0.00  0.00    -0.046 A 
ATOM     16  C   UNL     1      -3.610  -3.956   3.719  0.00  0.00    +0.005 A 
ATOM     17  C   UNL     1      -3.451  -5.146   3.037  0.00  0.00    +0.025 A 
ATOM     18  C   UNL     1      -2.438  -5.275   2.094  0.00  0.00    +0.052 A 
ATOM     19  C   UNL     1      -2.938  -1.597   4.214  0.00  0.00    +0.044 C 
ATOM     20  C   UNL     1      -0.826  -1.860   2.263  0.00  0.00    +0.046 C 
BRANCH  18  21
ATOM     21  N   UNL     1      -2.277  -6.475   1.399  0.00  0.00    -0.356 N 
ATOM     22  H   UNL     1      -1.405  -6.724   1.056  0.00  0.00    +0.142 HD
ATOM     23  H   UNL     1      -3.038  -7.060   1.258  0.00  0.00    +0.142 HD
ENDBRANCH  18  21
ENDBRANCH   1  13
TORSDOF 3
