REMARK  Name = ZINC35842614
REMARK  20 active torsions:
REMARK  status: ('A' for Active; 'I' for Inactive)
REMARK    1  A    between atoms: C_1  and  C_2
REMARK    2  A    between atoms: C_2  and  C_4
REMARK    3  A    between atoms: C_2  and  O_38
REMARK    4  A    between atoms: C_4  and  N_5
REMARK    5  A    between atoms: N_5  and  C_6
REMARK    6  A    between atoms: N_5  and  C_11
REMARK    7  A    between atoms: C_6  and  C_7
REMARK    8  A    between atoms: C_7  and  C_8
REMARK    9  A    between atoms: C_8  and  O_9
REMARK   10  A    between atoms: O_9  and  C_10
REMARK   11  A    between atoms: C_11  and  C_12
REMARK   12  A    between atoms: N_14  and  C_15
REMARK   13  A    between atoms: N_14  and  C_27
REMARK   14  A    between atoms: C_15  and  C_16
REMARK   15  A    between atoms: C_16  and  C_17
REMARK   16  A    between atoms: C_27  and  C_28
REMARK   17  A    between atoms: C_31  and  C_34
REMARK   18  A    between atoms: C_34  and  C_35
REMARK   19  A    between atoms: C_34  and  C_36
REMARK   20  A    between atoms: C_34  and  C_37
REMARK                            x       y       z     vdW  Elec       q    Type
REMARK                         _______ _______ _______ _____ _____    ______ ____
ROOT
ATOM      1  C   UNL     1       0.876  -1.695  -1.186  0.00  0.00    +0.199 C 
ATOM      2  O   UNL     1      -0.172  -1.096  -1.071  0.00  0.00    -0.278 OA
ATOM      3  N   UNL     1       1.442  -1.836  -2.401  0.00  0.00    -0.298 N 
ENDROOT
BRANCH   1   4
ATOM      4  C   UNL     1       1.546  -2.281   0.030  0.00  0.00    +0.019 C 
BRANCH   4   5
ATOM      5  N   UNL     1       0.672  -2.114   1.199  0.00  0.00    +0.387 N 
ATOM      6  H   UNL     1       0.410  -1.143   1.287  0.00  0.00    -0.081 HD
BRANCH   5   7
ATOM      7  C   UNL     1       1.388  -2.539   2.409  0.00  0.00    -0.047 C 
BRANCH   7   9
ATOM      8  C   UNL     1       3.315  -2.044   3.920  0.00  0.00    +0.035 C 
ATOM      9  C   UNL     1       2.563  -1.594   2.666  0.00  0.00    +0.095 C 
BRANCH   9  10
ATOM     10  O   UNL     1       2.072  -0.265   2.857  0.00  0.00    -0.394 OA
ATOM     11  H   UNL     1       1.464  -0.174   3.603  0.00  0.00    +0.210 HD
ENDBRANCH   9  10
ENDBRANCH   7   9
ENDBRANCH   5   7
BRANCH   5  12
ATOM     12  C   UNL     1      -0.535  -2.934   1.030  0.00  0.00    -0.076 C 
BRANCH  12  13
ATOM     13  C   UNL     1      -1.500  -2.665   2.186  0.00  0.00    +0.009 C 
BRANCH  13  14
ATOM     14  C   UNL     1      -2.757  -3.519   2.009  0.00  0.00    +0.157 C 
BRANCH  14  15
ATOM     15  O   UNL     1      -3.659  -3.268   3.089  0.00  0.00    -0.383 OA
ATOM     16  C   UNL     1      -4.872  -4.020   3.020  0.00  0.00    +0.193 C 
ENDBRANCH  14  15
ENDBRANCH  13  14
ENDBRANCH  12  13
ENDBRANCH   5  12
ENDBRANCH   4   5
ENDBRANCH   1   4
BRANCH   3  17
ATOM     17  C   UNL     1       2.708  -2.559  -2.540  0.00  0.00    +0.113 C 
BRANCH  17  18
ATOM     18  C   UNL     1       2.423  -4.043  -2.783  0.00  0.00    +0.056 C 
BRANCH  18  19
ATOM     19  C   UNL     1       3.726  -4.787  -2.926  0.00  0.00    -0.021 A 
ATOM     20  C   UNL     1       4.356  -5.080  -4.074  0.00  0.00    +0.087 A 
ATOM     21  N   UNL     1       5.511  -5.765  -3.811  0.00  0.00    -0.360 N 
ATOM     22  H   UNL     1       6.135  -6.084  -4.482  0.00  0.00    +0.165 HD
ATOM     23  C   UNL     1       5.656  -5.933  -2.452  0.00  0.00    +0.047 A 
ATOM     24  C   UNL     1       4.548  -5.323  -1.838  0.00  0.00    +0.003 A 
ATOM     25  C   UNL     1       4.429  -5.332  -0.447  0.00  0.00    +0.010 A 
ATOM     26  C   UNL     1       5.394  -5.933   0.312  0.00  0.00    +0.001 A 
ATOM     27  C   UNL     1       6.492  -6.533  -0.289  0.00  0.00    +0.002 A 
ATOM     28  C   UNL     1       6.624  -6.543  -1.661  0.00  0.00    +0.026 A 
ENDBRANCH  18  19
ENDBRANCH  17  18
ENDBRANCH   3  17
BRANCH   3  29
ATOM     29  C   UNL     1       0.790  -1.266  -3.583  0.00  0.00    +0.142 C 
BRANCH  29  30
ATOM     30  C   UNL     1       1.281   0.143  -3.797  0.00  0.00    -0.030 A 
ATOM     31  C   UNL     1       0.622   1.202  -3.202  0.00  0.00    +0.005 A 
ATOM     32  C   UNL     1       1.072   2.494  -3.398  0.00  0.00    +0.004 A 
ATOM     33  C   UNL     1       2.182   2.727  -4.189  0.00  0.00    -0.042 A 
ATOM     34  C   UNL     1       2.841   1.668  -4.783  0.00  0.00    +0.004 A 
ATOM     35  C   UNL     1       2.394   0.375  -4.584  0.00  0.00    +0.005 A 
BRANCH  33  36
ATOM     36  C   UNL     1       2.672   4.136  -4.403  0.00  0.00    -0.013 C 
ATOM     37  C   UNL     1       3.042   4.758  -3.055  0.00  0.00    +0.015 C 
ATOM     38  C   UNL     1       3.904   4.115  -5.310  0.00  0.00    +0.015 C 
ATOM     39  C   UNL     1       1.568   4.965  -5.062  0.00  0.00    +0.015 C 
ENDBRANCH  33  36
ENDBRANCH  29  30
ENDBRANCH   3  29
TORSDOF 15
