REMARK  Name = ZINC20451965
REMARK  15 active torsions:
REMARK  status: ('A' for Active; 'I' for Inactive)
REMARK    1  A    between atoms: C_1  and  C_2
REMARK    2  A    between atoms: C_4  and  C_11
REMARK    3  A    between atoms: C_5  and  C_10
REMARK    4  A    between atoms: C_7  and  O_8
REMARK    5  A    between atoms: O_8  and  C_9
REMARK    6  A    between atoms: C_11  and  N_12
REMARK    7  A    between atoms: N_12  and  C_13
REMARK    8  A    between atoms: C_16  and  C_24
REMARK    9  A    between atoms: N_18  and  C_20
REMARK   10  A    between atoms: C_20  and  C_21
REMARK   11  A    between atoms: C_21  and  C_22
REMARK   12  A    between atoms: C_21  and  C_23
REMARK   13  A    between atoms: N_26  and  C_27
REMARK   14  A    between atoms: C_27  and  C_28
REMARK   15  A    between atoms: C_28  and  C_29
REMARK                            x       y       z     vdW  Elec       q    Type
REMARK                         _______ _______ _______ _____ _____    ______ ____
ROOT
ATOM      1  C   UNL     1      -8.486  -1.111   2.652  0.00  0.00    -0.055 C 
ATOM      2  C   UNL     1      -7.297  -0.337   2.026  0.00  0.00    +0.014 C 
ATOM      3  C   UNL     1      -6.083  -1.094   2.620  0.00  0.00    +0.142 C 
ATOM      4  N   UNL     1      -6.491  -1.438   3.999  0.00  0.00    -0.293 NA
ATOM      5  C   UNL     1      -7.964  -1.474   4.058  0.00  0.00    +0.069 C 
ENDROOT
BRANCH   3   6
ATOM      6  C   UNL     1      -4.867  -0.203   2.639  0.00  0.00    +0.230 C 
ATOM      7  O   UNL     1      -4.338   0.078   3.694  0.00  0.00    -0.274 OA
ATOM      8  N   UNL     1      -4.368   0.280   1.485  0.00  0.00    -0.314 N 
ATOM      9  H   UNL     1      -4.848   0.025   0.529  0.00  0.00    +0.149 HD
BRANCH   8  10
ATOM     10  C   UNL     1      -3.186   1.146   1.503  0.00  0.00    +0.109 C 
BRANCH  10  11
ATOM     11  C   UNL     1      -2.830   1.553   0.072  0.00  0.00    +0.056 C 
BRANCH  11  12
ATOM     12  C   UNL     1      -1.614   2.443   0.091  0.00  0.00    -0.011 A 
ATOM     13  C   UNL     1      -1.764   3.818   0.099  0.00  0.00    +0.006 A 
ATOM     14  C   UNL     1      -0.649   4.635   0.112  0.00  0.00    +0.000 A 
ATOM     15  C   UNL     1       0.617   4.079   0.121  0.00  0.00    +0.003 A 
ATOM     16  C   UNL     1       0.769   2.705   0.119  0.00  0.00    +0.038 A 
ATOM     17  C   UNL     1      -0.347   1.886   0.107  0.00  0.00    +0.127 A 
ATOM     18  F   UNL     1      -0.200   0.543   0.105  0.00  0.00    -0.205 F 
ENDBRANCH  11  12
ENDBRANCH  10  11
ENDBRANCH   8  10
ENDBRANCH   3   6
BRANCH   1  19
ATOM     19  N   UNL     1      -9.674  -0.252   2.745  0.00  0.00    +0.384 N 
ATOM     20  H   UNL     1      -9.687   0.426   1.879  0.00  0.00    -0.085 HD
ATOM     21  H   UNL     1      -9.612   0.337   3.672  0.00  0.00    -0.085 HD
BRANCH  19  22
ATOM     22  C   UNL     1     -10.905  -1.055   2.757  0.00  0.00    -0.046 C 
BRANCH  22  26
ATOM     23  C   UNL     1     -14.498   1.101   5.490  0.00  0.00    +0.047 C 
ATOM     24  C   UNL     1     -13.819   0.891   4.162  0.00  0.00    -0.009 A 
ATOM     25  C   UNL     1     -12.726   0.049   4.070  0.00  0.00    +0.009 A 
ATOM     26  C   UNL     1     -12.099  -0.141   2.853  0.00  0.00    -0.061 A 
ATOM     27  C   UNL     1     -12.569   0.502   1.722  0.00  0.00    -0.046 A 
ATOM     28  C   UNL     1     -13.664   1.340   1.808  0.00  0.00    +0.049 A 
ATOM     29  C   UNL     1     -14.292   1.537   3.029  0.00  0.00    +0.123 A 
ATOM     30  C   UNL     1     -11.887   0.288   0.396  0.00  0.00    +0.044 C 
BRANCH  29  31
ATOM     31  O   UNL     1     -15.368   2.361   3.116  0.00  0.00    -0.495 OA
ATOM     32  C   UNL     1     -15.800   2.994   1.910  0.00  0.00    +0.277 C 
ENDBRANCH  29  31
ENDBRANCH  22  26
ENDBRANCH  19  22
ENDBRANCH   1  19
BRANCH   4  33
ATOM     33  C   UNL     1      -5.915  -2.724   4.413  0.00  0.00    +0.088 C 
BRANCH  33  34
ATOM     34  C   UNL     1      -6.024  -2.866   5.933  0.00  0.00    -0.003 C 
ATOM     35  C   UNL     1      -5.548  -4.259   6.350  0.00  0.00    +0.008 C 
ATOM     36  C   UNL     1      -5.152  -1.806   6.607  0.00  0.00    +0.008 C 
ENDBRANCH  33  34
ENDBRANCH   4  33
TORSDOF 10
