REMARK  Name = ZINC08965771
REMARK  8 active torsions:
REMARK  status: ('A' for Active; 'I' for Inactive)
REMARK    1  A    between atoms: C_1  and  C_2
REMARK    2  A    between atoms: C_12  and  C_14
REMARK    3  A    between atoms: C_14  and  S_15
REMARK    4  A    between atoms: S_15  and  C_16
REMARK    5  A    between atoms: C_19  and  C_28
REMARK    6  A    between atoms: N_20  and  C_21
REMARK    7  A    between atoms: C_28  and  C_30
REMARK    8  A    between atoms: C_28  and  N_64
REMARK                            x       y       z     vdW  Elec       q    Type
REMARK                         _______ _______ _______ _____ _____    ______ ____
ROOT
ATOM      1  C   UNL     1      -0.016   1.309   0.009  0.00  0.00    +0.197 A 
ATOM      2  N   UNL     1       0.002  -0.004   0.002  0.00  0.00    -0.122 NA
ATOM      3  N   UNL     1       1.216  -0.425  -0.012  0.00  0.00    -0.135 NA
ATOM      4  C   UNL     1       2.041   0.584  -0.014  0.00  0.00    +0.125 A 
ATOM      5  N   UNL     1       1.287   1.726  -0.001  0.00  0.00    -0.275 N 
ENDROOT
BRANCH   5   6
ATOM      6  C   UNL     1       1.753   3.050   0.001  0.00  0.00    +0.050 A 
ATOM      7  C   UNL     1       2.457   3.541  -1.090  0.00  0.00    +0.029 A 
ATOM      8  C   UNL     1       2.911   4.845  -1.088  0.00  0.00    +0.040 A 
ATOM      9  C   UNL     1       2.673   5.660   0.006  0.00  0.00    +0.124 A 
ATOM     10  C   UNL     1       1.975   5.171   1.098  0.00  0.00    +0.040 A 
ATOM     11  C   UNL     1       1.515   3.869   1.097  0.00  0.00    +0.029 A 
ATOM     12  F   UNL     1       3.122   6.934   0.009  0.00  0.00    -0.205 F 
ENDBRANCH   5   6
BRANCH   4  13
ATOM     13  C   UNL     1       3.546   0.507  -0.030  0.00  0.00    -0.002 C 
ATOM     14  C   UNL     1       4.022   0.115  -1.431  0.00  0.00    -0.005 C 
BRANCH  13  20
ATOM     15  C   UNL     1       3.472  -0.212   2.280  0.00  0.00    -0.078 C 
ATOM     16  C   UNL     1       3.837  -1.356   3.230  0.00  0.00    -0.019 C 
ATOM     17  C   UNL     1       5.360  -1.507   3.277  0.00  0.00    -0.004 C 
ATOM     18  C   UNL     1       5.884  -1.760   1.861  0.00  0.00    -0.019 C 
ATOM     19  C   UNL     1       5.460  -0.604   0.952  0.00  0.00    -0.078 C 
ATOM     20  N   UNL     1       3.984  -0.528   0.930  0.00  0.00    +0.386 N 
ATOM     21  H   UNL     1       3.607  -1.437   0.635  0.00  0.00    -0.081 HD
ENDBRANCH  13  20
ENDBRANCH   4  13
BRANCH   1  22
ATOM     22  S   UNL     1      -1.446   2.337   0.022  0.00  0.00    -0.076 S 
BRANCH  22  23
ATOM     23  C   UNL     1      -2.742   1.074   0.022  0.00  0.00    +0.173 C 
BRANCH  23  34
ATOM     24  C   UNL     1      -6.812   2.352   1.315  0.00  0.00    +0.029 C 
ATOM     25  C   UNL     1      -6.580   1.523   0.050  0.00  0.00    +0.083 C 
ATOM     26  C   UNL     1      -7.494   0.287   0.044  0.00  0.00    +0.059 C 
ATOM     27  C   UNL     1      -6.543  -0.889   0.033  0.00  0.00    -0.024 A 
ATOM     28  C   UNL     1      -6.785  -2.250   0.028  0.00  0.00    +0.005 A 
ATOM     29  C   UNL     1      -5.730  -3.142   0.019  0.00  0.00    +0.000 A 
ATOM     30  C   UNL     1      -4.430  -2.671   0.014  0.00  0.00    +0.002 A 
ATOM     31  C   UNL     1      -4.184  -1.315   0.018  0.00  0.00    +0.024 A 
ATOM     32  C   UNL     1      -5.244  -0.406   0.028  0.00  0.00    +0.040 A 
ATOM     33  N   UNL     1      -5.214   0.992   0.035  0.00  0.00    -0.267 N 
ATOM     34  C   UNL     1      -4.094   1.740   0.033  0.00  0.00    +0.230 C 
ATOM     35  O   UNL     1      -4.173   2.951   0.039  0.00  0.00    -0.274 OA
ENDBRANCH  23  34
ENDBRANCH  22  23
ENDBRANCH   1  22
TORSDOF 6
