REMARK  Name = ZINC01873312
REMARK  7 active torsions:
REMARK  status: ('A' for Active; 'I' for Inactive)
REMARK    1  A    between atoms: C_1  and  C_2
REMARK    2  A    between atoms: C_2  and  O_4
REMARK    3  A    between atoms: O_4  and  C_5
REMARK    4  A    between atoms: C_8  and  C_11
REMARK    5  A    between atoms: C_11  and  C_13
REMARK    6  A    between atoms: C_15  and  C_38
REMARK    7  A    between atoms: C_38  and  C_40
REMARK                            x       y       z     vdW  Elec       q    Type
REMARK                         _______ _______ _______ _____ _____    ______ ____
ROOT
ATOM      1  C   UNL     1      -1.675  -7.154   0.071  0.00  0.00    +0.157 C 
ATOM      2  C   UNL     1      -2.171  -7.341  -1.392  0.00  0.00    +0.110 C 
ATOM      3  C   UNL     1      -2.926  -8.682  -1.296  0.00  0.00    +0.108 C 
ATOM      4  C   UNL     1      -4.369  -8.483  -0.982  0.00  0.00    -0.008 A 
ATOM      5  C   UNL     1      -5.006  -7.887   0.085  0.00  0.00    +0.006 A 
ATOM      6  C   UNL     1      -6.397  -7.873   0.064  0.00  0.00    +0.000 A 
ATOM      7  C   UNL     1      -7.105  -8.432  -0.981  0.00  0.00    +0.002 A 
ATOM      8  C   UNL     1      -6.472  -9.033  -2.058  0.00  0.00    +0.023 A 
ATOM      9  C   UNL     1      -5.077  -9.053  -2.049  0.00  0.00    +0.038 A 
ATOM     10  N   UNL     1      -4.200  -9.579  -2.983  0.00  0.00    -0.284 N 
ATOM     11  C   UNL     1      -2.910  -9.403  -2.620  0.00  0.00    +0.231 C 
ATOM     12  O   UNL     1      -1.929  -9.758  -3.239  0.00  0.00    -0.274 OA
ATOM     13  C   UNL     1      -2.193  -9.470  -0.213  0.00  0.00    +0.117 C 
ATOM     14  N   UNL     1      -1.313  -8.509   0.494  0.00  0.00    -0.311 N 
ATOM     15  C   UNL     1      -0.298  -8.935   1.340  0.00  0.00    +0.038 A 
ATOM     16  C   UNL     1       0.133  -8.230   2.442  0.00  0.00    +0.024 A 
ATOM     17  C   UNL     1       1.141  -8.752   3.235  0.00  0.00    +0.002 A 
ATOM     18  C   UNL     1       1.713  -9.975   2.927  0.00  0.00    +0.001 A 
ATOM     19  C   UNL     1       1.295 -10.689   1.820  0.00  0.00    +0.010 A 
ATOM     20  C   UNL     1       0.290 -10.175   1.010  0.00  0.00    -0.004 A 
ATOM     21  C   UNL     1      -0.170 -10.873  -0.206  0.00  0.00    +0.007 C 
ATOM     22  C   UNL     1      -1.335 -10.562  -0.794  0.00  0.00    -0.003 C 
ATOM     23  H   UNL     1      -4.478 -10.020  -3.800  0.00  0.00    +0.155 HD
ENDROOT
BRANCH   1  24
ATOM     24  C   UNL     1      -0.473  -6.247   0.111  0.00  0.00    +0.184 C 
ATOM     25  O   UNL     1       0.643  -6.721   0.164  0.00  0.00    -0.290 OA
BRANCH  24  29
ATOM     26  C   UNL     1      -0.987  -2.038   0.034  0.00  0.00    +0.132 A 
ATOM     27  C   UNL     1       0.292  -2.579   0.097  0.00  0.00    +0.047 A 
ATOM     28  C   UNL     1       0.465  -3.944   0.122  0.00  0.00    +0.015 A 
ATOM     29  C   UNL     1      -0.651  -4.789   0.085  0.00  0.00    +0.020 A 
ATOM     30  C   UNL     1      -1.937  -4.240   0.022  0.00  0.00    +0.015 A 
ATOM     31  C   UNL     1      -2.099  -2.873   0.003  0.00  0.00    +0.047 A 
BRANCH  26  32
ATOM     32  O   UNL     1      -1.152  -0.691   0.009  0.00  0.00    -0.426 OA
BRANCH  32  34
ATOM     33  C   UNL     1      -1.627   1.421   1.197  0.00  0.00    +0.136 C 
ATOM     34  C   UNL     1      -1.538  -0.082   1.142  0.00  0.00    +0.309 C 
ATOM     35  O   UNL     1      -1.814  -0.740   2.118  0.00  0.00    -0.251 OA
ENDBRANCH  32  34
ENDBRANCH  26  32
ENDBRANCH  24  29
ENDBRANCH   1  24
BRANCH   2  36
ATOM     36  C   UNL     1      -3.100  -6.225  -1.794  0.00  0.00    +0.170 C 
ATOM     37  O   UNL     1      -4.290  -6.321  -1.583  0.00  0.00    -0.292 OA
BRANCH  36  38
ATOM     38  C   UNL     1      -2.563  -5.018  -2.442  0.00  0.00    +0.018 A 
ATOM     39  C   UNL     1      -1.192  -4.906  -2.692  0.00  0.00    +0.013 A 
ATOM     40  C   UNL     1      -0.696  -3.773  -3.300  0.00  0.00    +0.020 A 
ATOM     41  C   UNL     1      -1.553  -2.746  -3.663  0.00  0.00    +0.041 A 
ATOM     42  C   UNL     1      -2.913  -2.850  -3.419  0.00  0.00    +0.020 A 
ATOM     43  C   UNL     1      -3.423  -3.980  -2.817  0.00  0.00    +0.013 A 
ATOM     44 CL   UNL     1      -0.919  -1.322  -4.428  0.00  0.00    -0.084 Cl
ENDBRANCH  36  38
ENDBRANCH   2  36
TORSDOF 6
