REMARK  Name = ZINC04163101
REMARK  8 active torsions:
REMARK  status: ('A' for Active; 'I' for Inactive)
REMARK    1  A    between atoms: C_1  and  C_2
REMARK    2  A    between atoms: C_2  and  C_3
REMARK    3  A    between atoms: C_2  and  C_4
REMARK    4  A    between atoms: C_2  and  C_5
REMARK    5  A    between atoms: C_8  and  C_11
REMARK    6  A    between atoms: C_14  and  C_25
REMARK    7  A    between atoms: C_20  and  N_24
REMARK    8  A    between atoms: C_21  and  C_22
REMARK                            x       y       z     vdW  Elec       q    Type
REMARK                         _______ _______ _______ _____ _____    ______ ____
ROOT
ATOM      1  C   UNL     1       2.714  -1.929  -4.876  0.00  0.00    +0.102 C 
ATOM      2  C   UNL     1       3.982  -2.607  -4.421  0.00  0.00    +0.054 A 
ATOM      3  C   UNL     1       4.144  -3.832  -3.768  0.00  0.00    +0.102 A 
ATOM      4  N   UNL     1       5.435  -4.017  -3.567  0.00  0.00    -0.171 NA
ATOM      5  N   UNL     1       6.126  -2.911  -4.088  0.00  0.00    -0.246 N 
ATOM      6  H   UNL     1       7.088  -2.783  -4.077  0.00  0.00    +0.192 HD
ATOM      7  C   UNL     1       5.218  -2.059  -4.607  0.00  0.00    +0.223 A 
ATOM      8  O   UNL     1       5.405  -0.863  -5.219  0.00  0.00    -0.423 OA
ATOM      9  C   UNL     1       4.362  -0.337  -5.893  0.00  0.00    +0.200 C 
ATOM     10  C   UNL     1       3.091  -0.784  -5.782  0.00  0.00    +0.098 C 
ENDROOT
BRANCH   1  14
ATOM     11  C   UNL     1       0.579  -0.446  -1.486  0.00  0.00    -0.042 A 
ATOM     12  C   UNL     1      -0.040  -1.311  -2.369  0.00  0.00    +0.004 A 
ATOM     13  C   UNL     1       0.651  -1.791  -3.466  0.00  0.00    +0.005 A 
ATOM     14  C   UNL     1       1.961  -1.405  -3.680  0.00  0.00    -0.035 A 
ATOM     15  C   UNL     1       2.580  -0.540  -2.798  0.00  0.00    +0.005 A 
ATOM     16  C   UNL     1       1.888  -0.056  -1.704  0.00  0.00    +0.004 A 
BRANCH  11  18
ATOM     17  C   UNL     1      -0.250   1.604  -0.363  0.00  0.00    +0.015 C 
ATOM     18  C   UNL     1      -0.174   0.077  -0.290  0.00  0.00    -0.013 C 
ATOM     19  C   UNL     1       0.552  -0.337   0.991  0.00  0.00    +0.015 C 
ATOM     20  C   UNL     1      -1.589  -0.504  -0.285  0.00  0.00    +0.015 C 
ENDBRANCH  11  18
ENDBRANCH   1  14
BRANCH   3  21
ATOM     21  C   UNL     1       3.057  -4.762  -3.373  0.00  0.00    +0.021 A 
ATOM     22  C   UNL     1       1.992  -5.019  -4.240  0.00  0.00    +0.013 A 
ATOM     23  C   UNL     1       1.004  -5.894  -3.824  0.00  0.00    +0.020 A 
ATOM     24  C   UNL     1       1.100  -6.480  -2.575  0.00  0.00    +0.111 A 
ATOM     25  N   UNL     1       2.118  -6.217  -1.778  0.00  0.00    -0.263 NA
ATOM     26  C   UNL     1       3.085  -5.396  -2.133  0.00  0.00    +0.120 A 
ENDBRANCH   3  21
BRANCH   9  27
ATOM     27  N   UNL     1       4.605   0.715  -6.741  0.00  0.00    -0.328 N 
ATOM     28  H   UNL     1       5.507   1.059  -6.841  0.00  0.00    +0.145 HD
ATOM     29  H   UNL     1       3.876   1.115  -7.239  0.00  0.00    +0.145 HD
ENDBRANCH   9  27
BRANCH  10  30
ATOM     30  C   UNL     1       2.065  -0.149  -6.553  0.00  0.00    +0.101 C 
ATOM     31  N   UNL     1       1.251   0.355  -7.165  0.00  0.00    -0.191 NA
ENDBRANCH  10  30
TORSDOF 5
