REMARK  Name = ZINC20723509
REMARK  5 active torsions:
REMARK  status: ('A' for Active; 'I' for Inactive)
REMARK    1  A    between atoms: C_1  and  O_2
REMARK    2  A    between atoms: O_2  and  C_3
REMARK    3  A    between atoms: C_3  and  C_5
REMARK    4  A    between atoms: C_10  and  N_11
REMARK    5  A    between atoms: C_23  and  C_25
REMARK                            x       y       z     vdW  Elec       q    Type
REMARK                         _______ _______ _______ _____ _____    ______ ____
ROOT
ATOM      1  N   UNL     1       2.005  -1.724   3.071  0.00  0.00    -0.269 N 
ATOM      2  C   UNL     1       2.802  -2.337   3.969  0.00  0.00    +0.307 C 
ATOM      3  O   UNL     1       3.018  -3.529   3.876  0.00  0.00    -0.252 OA
ATOM      4  N   UNL     1       3.359  -1.627   4.970  0.00  0.00    -0.272 N 
ATOM      5  C   UNL     1       3.200  -0.166   5.039  0.00  0.00    +0.116 C 
ATOM      6  C   UNL     1       2.404   0.195   6.300  0.00  0.00    +0.076 C 
ATOM      7  C   UNL     1       2.952  -0.592   7.464  0.00  0.00    +0.066 A 
ATOM      8  C   UNL     1       3.719  -1.697   7.343  0.00  0.00    +0.064 A 
ATOM      9  N   UNL     1       4.011  -2.124   8.601  0.00  0.00    -0.346 N 
ATOM     10  H   UNL     1       4.545  -2.898   8.839  0.00  0.00    +0.167 HD
ATOM     11  C   UNL     1       3.416  -1.262   9.459  0.00  0.00    +0.197 A 
ATOM     12  N   UNL     1       2.785  -0.349   8.768  0.00  0.00    -0.240 NA
ATOM     13  C   UNL     1       4.139  -2.295   6.028  0.00  0.00    +0.156 C 
ATOM     14  H   UNL     1       1.887  -0.762   3.104  0.00  0.00    +0.156 HD
ENDROOT
BRANCH  13  15
ATOM     15  C   UNL     1       5.611  -2.058   5.808  0.00  0.00    -0.021 A 
ATOM     16  C   UNL     1       6.117  -0.773   5.850  0.00  0.00    +0.007 A 
ATOM     17  C   UNL     1       7.467  -0.555   5.648  0.00  0.00    +0.020 A 
ATOM     18  C   UNL     1       8.311  -1.624   5.404  0.00  0.00    +0.041 A 
ATOM     19  C   UNL     1       7.803  -2.910   5.363  0.00  0.00    +0.020 A 
ATOM     20  C   UNL     1       6.454  -3.127   5.570  0.00  0.00    +0.007 A 
ATOM     21 CL   UNL     1      10.007  -1.351   5.150  0.00  0.00    -0.084 Cl
ENDBRANCH  13  15
BRANCH   1  27
ATOM     22  C   UNL     1       0.080  -2.084   1.644  0.00  0.00    +0.080 A 
ATOM     23  C   UNL     1      -0.564  -2.841   0.661  0.00  0.00    +0.017 A 
ATOM     24  C   UNL     1       0.048  -3.965   0.149  0.00  0.00    +0.001 A 
ATOM     25  C   UNL     1       1.299  -4.349   0.603  0.00  0.00    +0.002 A 
ATOM     26  C   UNL     1       1.948  -3.611   1.573  0.00  0.00    +0.024 A 
ATOM     27  C   UNL     1       1.350  -2.473   2.097  0.00  0.00    +0.049 A 
BRANCH  22  28
ATOM     28  C   UNL     1      -0.568  -0.881   2.196  0.00  0.00    +0.341 C 
ATOM     29  O   UNL     1      -0.051  -0.282   3.118  0.00  0.00    -0.245 OA
BRANCH  28  31
ATOM     30  C   UNL     1      -2.305   0.726   2.262  0.00  0.00    +0.280 C 
ATOM     31  O   UNL     1      -1.734  -0.446   1.678  0.00  0.00    -0.464 OA
ENDBRANCH  28  31
ENDBRANCH  22  28
ENDBRANCH   1  27
TORSDOF 4
