REMARK  Name = ZINC63478836
REMARK  10 active torsions:
REMARK  status: ('A' for Active; 'I' for Inactive)
REMARK    1  A    between atoms: C_1  and  C_2
REMARK    2  A    between atoms: C_5  and  N_8
REMARK    3  A    between atoms: N_8  and  C_9
REMARK    4  A    between atoms: N_8  and  S_21
REMARK    5  A    between atoms: C_9  and  C_10
REMARK    6  A    between atoms: N_12  and  C_13
REMARK    7  A    between atoms: C_17  and  C_19
REMARK    8  A    between atoms: S_21  and  C_24
REMARK    9  A    between atoms: C_25  and  C_31
REMARK   10  A    between atoms: C_28  and  C_30
REMARK                            x       y       z     vdW  Elec       q    Type
REMARK                         _______ _______ _______ _____ _____    ______ ____
ROOT
ATOM      1  N   UNL     1       0.109  -3.837  -0.261  0.00  0.00    -0.194 N 
ENDROOT
BRANCH   1   6
ATOM      2  C   UNL     1      -0.306   1.623  -1.734  0.00  0.00    +0.044 C 
ATOM      3  C   UNL     1      -0.196   0.172  -1.343  0.00  0.00    -0.050 A 
ATOM      4  C   UNL     1      -0.839  -0.795  -2.092  0.00  0.00    +0.005 A 
ATOM      5  C   UNL     1      -0.741  -2.126  -1.736  0.00  0.00    +0.025 A 
ATOM      6  C   UNL     1       0.007  -2.492  -0.624  0.00  0.00    +0.052 A 
ATOM      7  C   UNL     1       0.652  -1.518   0.126  0.00  0.00    +0.025 A 
ATOM      8  C   UNL     1       0.554  -0.189  -0.238  0.00  0.00    +0.005 A 
ENDBRANCH   1   6
BRANCH   1   9
ATOM      9  S   UNL     1      -0.416  -4.335   1.228  0.00  0.00    +0.075 S 
ATOM     10  O   UNL     1       0.329  -5.500   1.553  0.00  0.00    -0.150 OA
ATOM     11  O   UNL     1      -0.429  -3.182   2.060  0.00  0.00    -0.150 OA
BRANCH   9  12
ATOM     12  C   UNL     1      -2.093  -4.843   1.047  0.00  0.00    +0.134 C 
ATOM     13  C   UNL     1      -3.195  -4.194   1.429  0.00  0.00    +0.085 C 
ATOM     14  N   UNL     1      -4.302  -4.904   1.118  0.00  0.00    -0.157 NA
ATOM     15  N   UNL     1      -4.080  -5.981   0.559  0.00  0.00    -0.178 NA
ATOM     16  C   UNL     1      -2.621  -6.119   0.414  0.00  0.00    +0.176 C 
ATOM     17  C   UNL     1      -2.118  -7.348   1.173  0.00  0.00    +0.041 C 
ATOM     18  C   UNL     1      -3.204  -2.852   2.113  0.00  0.00    +0.069 C 
ENDBRANCH   9  12
ENDBRANCH   1   9
BRANCH   1  19
ATOM     19  C   UNL     1       0.680  -4.807  -1.198  0.00  0.00    +0.227 C 
BRANCH  19  20
ATOM     20  C   UNL     1       2.181  -4.808  -1.068  0.00  0.00    +0.236 C 
ATOM     21  O   UNL     1       2.721  -4.070  -0.271  0.00  0.00    -0.274 OA
ATOM     22  N   UNL     1       2.924  -5.628  -1.838  0.00  0.00    -0.284 N 
ATOM     23  H   UNL     1       2.498  -6.170  -2.520  0.00  0.00    +0.155 HD
BRANCH  22  24
ATOM     24  C   UNL     1       4.309  -5.698  -1.652  0.00  0.00    +0.034 A 
ATOM     25  C   UNL     1       5.148  -5.905  -2.739  0.00  0.00    +0.024 A 
ATOM     26  C   UNL     1       6.514  -5.973  -2.553  0.00  0.00    +0.017 A 
ATOM     27  C   UNL     1       7.049  -5.835  -1.284  0.00  0.00    +0.021 A 
ATOM     28  C   UNL     1       6.216  -5.628  -0.199  0.00  0.00    -0.035 A 
ATOM     29  C   UNL     1       4.849  -5.554  -0.380  0.00  0.00    +0.027 A 
ATOM     30  C   UNL     1       6.801  -5.479   1.182  0.00  0.00    +0.045 C 
ATOM     31 BR   UNL     1       8.921  -5.930  -1.033  0.00  0.00    -0.050 Br
ENDBRANCH  22  24
ENDBRANCH  19  20
ENDBRANCH   1  19
TORSDOF 6
