REMARK  Name = ZINC39482832
REMARK  11 active torsions:
REMARK  status: ('A' for Active; 'I' for Inactive)
REMARK    1  A    between atoms: C_1  and  C_2
REMARK    2  A    between atoms: C_2  and  C_3
REMARK    3  A    between atoms: C_2  and  S_4
REMARK    4  A    between atoms: S_4  and  C_7
REMARK    5  A    between atoms: C_10  and  N_27
REMARK    6  A    between atoms: C_11  and  N_13
REMARK    7  A    between atoms: C_17  and  C_20
REMARK    8  A    between atoms: C_20  and  C_21
REMARK    9  A    between atoms: N_27  and  S_28
REMARK   10  A    between atoms: S_28  and  C_31
REMARK   11  A    between atoms: C_36  and  O_37
REMARK                            x       y       z     vdW  Elec       q    Type
REMARK                         _______ _______ _______ _____ _____    ______ ____
ROOT
ATOM      1  C   UNL     1      -0.307  -2.580   0.445  0.00  0.00    +0.090 A 
ATOM      2  C   UNL     1      -0.475  -3.250  -0.752  0.00  0.00    +0.029 A 
ATOM      3  C   UNL     1      -0.668  -4.619  -0.762  0.00  0.00    +0.028 A 
ATOM      4  C   UNL     1      -0.693  -5.324   0.432  0.00  0.00    +0.069 A 
ATOM      5  C   UNL     1      -0.523  -4.649   1.640  0.00  0.00    +0.054 A 
ATOM      6  C   UNL     1      -0.325  -3.276   1.640  0.00  0.00    +0.052 A 
ENDROOT
BRANCH   5   7
ATOM      7  N   UNL     1      -0.548  -5.355   2.849  0.00  0.00    -0.332 N 
ATOM      8  C   UNL     1       0.687  -5.906   3.428  0.00  0.00    +0.086 C 
ATOM      9  C   UNL     1       0.774  -5.469   4.894  0.00  0.00    -0.063 C 
ATOM     10  N   UNL     1      -0.454  -5.864   5.595  0.00  0.00    +0.383 N 
ATOM     11  C   UNL     1      -1.604  -5.144   5.035  0.00  0.00    -0.050 C 
ATOM     12  C   UNL     1      -1.808  -5.560   3.579  0.00  0.00    +0.089 C 
ATOM     13  H   UNL     1      -0.596  -6.858   5.487  0.00  0.00    -0.085 HD
ATOM     14  H   UNL     1      -0.365  -5.644   6.576  0.00  0.00    -0.085 HD
BRANCH  11  15
ATOM     15  C   UNL     1      -2.859  -5.479   5.844  0.00  0.00    +0.021 C 
BRANCH  15  16
ATOM     16  C   UNL     1      -2.706  -4.955   7.249  0.00  0.00    -0.049 A 
ATOM     17  C   UNL     1      -2.138  -5.752   8.225  0.00  0.00    +0.003 A 
ATOM     18  C   UNL     1      -1.998  -5.272   9.514  0.00  0.00    +0.000 A 
ATOM     19  C   UNL     1      -2.425  -3.994   9.826  0.00  0.00    +0.000 A 
ATOM     20  C   UNL     1      -2.991  -3.197   8.849  0.00  0.00    +0.000 A 
ATOM     21  C   UNL     1      -3.128  -3.676   7.559  0.00  0.00    +0.003 A 
ENDBRANCH  15  16
ENDBRANCH  11  15
ENDBRANCH   5   7
BRANCH   1  22
ATOM     22  S   UNL     1      -0.062  -0.835   0.449  0.00  0.00    -0.001 S 
ATOM     23  O   UNL     1      -0.527  -0.406   1.721  0.00  0.00    -0.169 OA
ATOM     24  O   UNL     1      -0.687  -0.379  -0.743  0.00  0.00    -0.169 OA
BRANCH  22  26
ATOM     25  C   UNL     1       2.077   0.869   0.455  0.00  0.00    +0.032 C 
ATOM     26  C   UNL     1       1.735  -0.617   0.334  0.00  0.00    +0.130 C 
ATOM     27  C   UNL     1       2.416  -1.390   1.466  0.00  0.00    +0.032 C 
ENDBRANCH  22  26
ENDBRANCH   1  22
BRANCH   4  28
ATOM     28  N   UNL     1      -0.889  -6.711   0.424  0.00  0.00    -0.214 N 
ATOM     29  H   UNL     1      -1.394  -7.133   1.136  0.00  0.00    +0.174 HD
BRANCH  28  30
ATOM     30  S   UNL     1      -0.257  -7.630  -0.800  0.00  0.00    +0.076 S 
ATOM     31  O   UNL     1       1.085  -7.198  -0.981  0.00  0.00    -0.150 OA
ATOM     32  O   UNL     1      -0.591  -8.980  -0.508  0.00  0.00    -0.150 OA
BRANCH  30  33
ATOM     33  C   UNL     1      -1.126  -7.204  -2.273  0.00  0.00    +0.150 A 
ATOM     34  C   UNL     1      -0.452  -6.622  -3.329  0.00  0.00    +0.032 A 
ATOM     35  C   UNL     1      -1.133  -6.287  -4.485  0.00  0.00    +0.002 A 
ATOM     36  C   UNL     1      -2.490  -6.533  -4.586  0.00  0.00    +0.004 A 
ATOM     37  C   UNL     1      -3.169  -7.114  -3.533  0.00  0.00    +0.047 A 
ATOM     38  C   UNL     1      -2.486  -7.457  -2.374  0.00  0.00    +0.143 A 
BRANCH  38  39
ATOM     39  O   UNL     1      -3.150  -8.034  -1.338  0.00  0.00    -0.505 OA
ATOM     40  H   UNL     1      -3.530  -7.401  -0.713  0.00  0.00    +0.292 HD
ENDBRANCH  38  39
ENDBRANCH  30  33
ENDBRANCH  28  30
ENDBRANCH   4  28
TORSDOF 9
