REMARK  Name = ZINC40894294
REMARK  12 active torsions:
REMARK  status: ('A' for Active; 'I' for Inactive)
REMARK    1  A    between atoms: C_1  and  C_2
REMARK    2  A    between atoms: C_2  and  C_4
REMARK    3  A    between atoms: C_2  and  N_10
REMARK    4  A    between atoms: C_11  and  C_13
REMARK    5  A    between atoms: C_18  and  O_24
REMARK    6  A    between atoms: O_24  and  C_25
REMARK    7  A    between atoms: C_25  and  C_27
REMARK    8  A    between atoms: C_27  and  C_38
REMARK    9  A    between atoms: C_28  and  C_29
REMARK   10  A    between atoms: C_32  and  C_35
REMARK   11  A    between atoms: C_35  and  C_36
REMARK   12  A    between atoms: C_35  and  C_37
REMARK                            x       y       z     vdW  Elec       q    Type
REMARK                         _______ _______ _______ _____ _____    ______ ____
ROOT
ATOM      1  C   UNL     1      -3.404  -1.209  -1.198  0.00  0.00    +0.122 A 
ATOM      2  C   UNL     1      -4.228  -1.206  -2.317  0.00  0.00    +0.031 A 
ATOM      3  C   UNL     1      -5.545  -1.708  -2.176  0.00  0.00    +0.019 A 
ATOM      4  C   UNL     1      -6.351  -1.916  -3.307  0.00  0.00    +0.015 A 
ATOM      5  C   UNL     1      -7.601  -2.439  -3.162  0.00  0.00    +0.047 A 
ATOM      6  C   UNL     1      -8.091  -2.764  -1.897  0.00  0.00    +0.136 A 
ATOM      7  C   UNL     1      -7.318  -2.547  -0.767  0.00  0.00    +0.093 A 
ATOM      8  C   UNL     1      -6.047  -2.010  -0.895  0.00  0.00    +0.143 A 
ATOM      9  O   UNL     1      -5.299  -1.754   0.205  0.00  0.00    -0.422 OA
ATOM     10  C   UNL     1      -3.953  -1.774   0.047  0.00  0.00    +0.350 A 
ATOM     11  O   UNL     1      -3.223  -2.237   0.903  0.00  0.00    -0.244 OA
ENDROOT
BRANCH   1  13
ATOM     12  N   UNL     1      -1.254  -0.695  -0.157  0.00  0.00    -0.305 N 
ATOM     13  C   UNL     1      -2.033  -0.674  -1.256  0.00  0.00    +0.251 C 
ATOM     14  O   UNL     1      -1.604  -0.213  -2.297  0.00  0.00    -0.270 OA
ATOM     15  H   UNL     1      -1.597  -1.063   0.673  0.00  0.00    +0.150 HD
BRANCH  12  17
ATOM     16  C   UNL     1       0.077   1.349   0.016  0.00  0.00    +0.033 C 
ATOM     17  C   UNL     1       0.109  -0.163  -0.215  0.00  0.00    +0.100 C 
BRANCH  17  18
ATOM     18  C   UNL     1       0.949  -0.817   0.852  0.00  0.00    -0.027 A 
ATOM     19  C   UNL     1       0.412  -1.059   2.103  0.00  0.00    +0.005 A 
ATOM     20  C   UNL     1       1.183  -1.659   3.082  0.00  0.00    +0.000 A 
ATOM     21  C   UNL     1       2.490  -2.016   2.810  0.00  0.00    +0.000 A 
ATOM     22  C   UNL     1       3.027  -1.774   1.559  0.00  0.00    +0.000 A 
ATOM     23  C   UNL     1       2.255  -1.179   0.579  0.00  0.00    +0.005 A 
ENDBRANCH  17  18
ENDBRANCH  12  17
ENDBRANCH   1  13
BRANCH   6  24
ATOM     24  O   UNL     1      -9.334  -3.295  -1.771  0.00  0.00    -0.422 OA
BRANCH  24  25
ATOM     25  C   UNL     1      -9.539  -4.542  -2.240  0.00  0.00    +0.355 C 
ATOM     26  O   UNL     1      -8.605  -5.194  -2.665  0.00  0.00    -0.244 OA
BRANCH  25  27
ATOM     27  C   UNL     1     -10.894  -5.114  -2.238  0.00  0.00    +0.136 C 
ATOM     28  C   UNL     1     -11.104  -6.388  -2.716  0.00  0.00    +0.034 C 
BRANCH  28  29
ATOM     29  C   UNL     1     -12.470  -6.905  -2.850  0.00  0.00    -0.024 A 
ATOM     30  C   UNL     1     -12.722  -8.276  -2.710  0.00  0.00    +0.008 A 
ATOM     31  C   UNL     1     -14.008  -8.753  -2.837  0.00  0.00    +0.004 A 
ATOM     32  C   UNL     1     -15.051  -7.882  -3.103  0.00  0.00    -0.045 A 
ATOM     33  C   UNL     1     -14.812  -6.525  -3.242  0.00  0.00    +0.004 A 
ATOM     34  C   UNL     1     -13.533  -6.030  -3.112  0.00  0.00    +0.008 A 
BRANCH  32  35
ATOM     35  C   UNL     1     -16.454  -8.414  -3.241  0.00  0.00    +0.013 C 
ATOM     36  C   UNL     1     -17.351  -7.767  -2.183  0.00  0.00    +0.012 C 
ATOM     37  C   UNL     1     -16.990  -8.082  -4.635  0.00  0.00    +0.012 C 
ENDBRANCH  32  35
ENDBRANCH  28  29
BRANCH  27  38
ATOM     38  C   UNL     1     -11.995  -4.347  -1.738  0.00  0.00    +0.106 C 
ATOM     39  N   UNL     1     -12.868  -3.738  -1.341  0.00  0.00    -0.191 NA
ENDBRANCH  27  38
ENDBRANCH  25  27
ENDBRANCH  24  25
ENDBRANCH   6  24
TORSDOF 9
