REMARK  Name = ZINC02276048
REMARK  7 active torsions:
REMARK  status: ('A' for Active; 'I' for Inactive)
REMARK    1  A    between atoms: C_1  and  O_2
REMARK    2  A    between atoms: O_2  and  C_3
REMARK    3  A    between atoms: C_6  and  C_18
REMARK    4  A    between atoms: C_8  and  C_9
REMARK    5  A    between atoms: C_9  and  O_10
REMARK    6  A    between atoms: O_10  and  C_11
REMARK    7  A    between atoms: N_29  and  C_30
REMARK                            x       y       z     vdW  Elec       q    Type
REMARK                         _______ _______ _______ _____ _____    ______ ____
ROOT
ATOM      1  C   UNL     1      -3.947   3.722   2.115  0.00  0.00    +0.198 C 
ATOM      2  N   UNL     1      -5.076   3.039   2.757  0.00  0.00    -0.321 N 
ATOM      3  C   UNL     1      -5.049   2.855   4.135  0.00  0.00    +0.041 A 
ATOM      4  C   UNL     1      -5.699   1.793   4.741  0.00  0.00    +0.024 A 
ATOM      5  C   UNL     1      -5.667   1.667   6.117  0.00  0.00    +0.002 A 
ATOM      6  C   UNL     1      -4.994   2.596   6.894  0.00  0.00    +0.001 A 
ATOM      7  C   UNL     1      -4.338   3.657   6.306  0.00  0.00    +0.015 A 
ATOM      8  C   UNL     1      -4.350   3.789   4.919  0.00  0.00    +0.058 A 
ATOM      9  C   UNL     1      -3.661   4.902   4.242  0.00  0.00    +0.254 C 
ATOM     10  O   UNL     1      -3.199   5.822   4.889  0.00  0.00    -0.270 OA
ATOM     11  N   UNL     1      -3.549   4.891   2.898  0.00  0.00    -0.242 N 
ATOM     12  H   UNL     1      -5.827   2.723   2.231  0.00  0.00    +0.148 HD
ENDROOT
BRANCH  11  13
ATOM     13  C   UNL     1      -3.042   6.019   2.242  0.00  0.00    +0.074 A 
ATOM     14  C   UNL     1      -3.910   6.972   1.726  0.00  0.00    +0.026 A 
ATOM     15  C   UNL     1      -3.408   8.084   1.079  0.00  0.00    +0.002 A 
ATOM     16  C   UNL     1      -2.041   8.250   0.944  0.00  0.00    +0.003 A 
ATOM     17  C   UNL     1      -1.173   7.304   1.456  0.00  0.00    +0.040 A 
ATOM     18  C   UNL     1      -1.669   6.191   2.110  0.00  0.00    +0.145 A 
ATOM     19  F   UNL     1      -0.820   5.269   2.615  0.00  0.00    -0.204 F 
ENDBRANCH  11  13
BRANCH   1  23
ATOM     20  C   UNL     1      -0.648   1.022   1.820  0.00  0.00    +0.126 A 
ATOM     21  C   UNL     1      -1.080   1.457   3.064  0.00  0.00    +0.046 A 
ATOM     22  C   UNL     1      -2.148   2.329   3.157  0.00  0.00    +0.010 A 
ATOM     23  C   UNL     1      -2.783   2.771   2.010  0.00  0.00    -0.008 A 
ATOM     24  C   UNL     1      -2.351   2.342   0.769  0.00  0.00    +0.017 A 
ATOM     25  C   UNL     1      -1.283   1.471   0.671  0.00  0.00    +0.032 A 
BRANCH  20  27
ATOM     26  C   UNL     1       1.005  -0.260   2.950  0.00  0.00    +0.277 C 
ATOM     27  O   UNL     1       0.399   0.161   1.726  0.00  0.00    -0.495 OA
ENDBRANCH  20  27
BRANCH  25  28
ATOM     28  C   UNL     1      -0.813   1.003  -0.682  0.00  0.00    +0.268 C 
BRANCH  28  29
ATOM     29  O   UNL     1      -1.624   1.595  -1.699  0.00  0.00    -0.484 OA
BRANCH  29  30
ATOM     30  C   UNL     1      -1.330   1.276  -2.987  0.00  0.00    +0.156 A 
ATOM     31  C   UNL     1      -0.280   0.414  -3.267  0.00  0.00    +0.048 A 
ATOM     32  C   UNL     1       0.014   0.087  -4.577  0.00  0.00    +0.004 A 
ATOM     33  C   UNL     1      -0.732   0.625  -5.610  0.00  0.00    +0.003 A 
ATOM     34  C   UNL     1      -1.776   1.487  -5.336  0.00  0.00    +0.042 A 
ATOM     35  C   UNL     1      -2.078   1.815  -4.026  0.00  0.00    +0.165 A 
ATOM     36  F   UNL     1      -3.099   2.659  -3.758  0.00  0.00    -0.202 F 
ENDBRANCH  29  30
ENDBRANCH  28  29
ENDBRANCH  25  28
ENDBRANCH   1  23
TORSDOF 6
