REMARK  Name = ZINC18200011
REMARK  8 active torsions:
REMARK  status: ('A' for Active; 'I' for Inactive)
REMARK    1  A    between atoms: C_1  and  O_2
REMARK    2  A    between atoms: O_2  and  C_3
REMARK    3  A    between atoms: C_5  and  C_13
REMARK    4  A    between atoms: C_7  and  O_11
REMARK    5  A    between atoms: C_8  and  O_9
REMARK    6  A    between atoms: O_9  and  C_10
REMARK    7  A    between atoms: O_11  and  C_12
REMARK    8  A    between atoms: C_18  and  C_30
REMARK                            x       y       z     vdW  Elec       q    Type
REMARK                         _______ _______ _______ _____ _____    ______ ____
ROOT
ATOM      1  C   UNL     1      -4.989  -2.632   0.035  0.00  0.00    +0.032 C 
ATOM      2  C   UNL     1      -6.012  -1.784   0.793  0.00  0.00    +0.059 C 
ATOM      3  C   UNL     1      -7.334  -2.511   0.849  0.00  0.00    +0.016 C 
ATOM      4  C   UNL     1      -7.386  -3.862   0.866  0.00  0.00    +0.024 C 
ATOM      5  C   UNL     1      -8.702  -4.594   0.931  0.00  0.00    +0.086 C 
ATOM      6  C   UNL     1      -9.806  -3.700   1.421  0.00  0.00    -0.011 A 
ATOM      7  C   UNL     1     -10.973  -4.255   1.914  0.00  0.00    +0.056 A 
ATOM      8  C   UNL     1     -11.996  -3.439   2.367  0.00  0.00    +0.167 A 
ATOM      9  C   UNL     1     -11.852  -2.053   2.325  0.00  0.00    +0.168 A 
ATOM     10  C   UNL     1     -10.684  -1.498   1.831  0.00  0.00    +0.073 A 
ATOM     11  C   UNL     1      -9.661  -2.321   1.381  0.00  0.00    +0.039 A 
ATOM     12  N   UNL     1      -8.477  -1.766   0.890  0.00  0.00    -0.317 N 
ATOM     13  O   UNL     1     -12.986  -1.481   2.823  0.00  0.00    -0.453 OA
ATOM     14  C   UNL     1     -13.986  -2.517   2.791  0.00  0.00    +0.466 C 
ATOM     15  O   UNL     1     -13.223  -3.733   2.892  0.00  0.00    -0.453 OA
ATOM     16  C   UNL     1      -6.211  -4.631   0.822  0.00  0.00    +0.162 C 
ATOM     17  O   UNL     1      -6.292  -5.843   0.845  0.00  0.00    -0.292 OA
ATOM     18  C   UNL     1      -4.856  -3.983   0.748  0.00  0.00    +0.088 C 
ATOM     19  H   UNL     1      -8.467  -0.848   0.576  0.00  0.00    +0.152 HD
ENDROOT
BRANCH   1  22
ATOM     20  C   UNL     1      -1.804  -0.975   1.217  0.00  0.00    +0.165 A 
ATOM     21  C   UNL     1      -3.034  -1.616   1.221  0.00  0.00    +0.053 A 
ATOM     22  C   UNL     1      -3.655  -1.931   0.027  0.00  0.00    -0.036 A 
ATOM     23  C   UNL     1      -3.057  -1.603  -1.176  0.00  0.00    +0.053 A 
ATOM     24  C   UNL     1      -1.830  -0.957  -1.188  0.00  0.00    +0.165 A 
ATOM     25  C   UNL     1      -1.202  -0.638   0.010  0.00  0.00    +0.204 A 
BRANCH  20  27
ATOM     26  C   UNL     1      -1.868  -1.046   3.593  0.00  0.00    +0.277 C 
ATOM     27  O   UNL     1      -1.191  -0.670   2.392  0.00  0.00    -0.491 OA
ENDBRANCH  20  27
BRANCH  25  28
ATOM     28  O   UNL     1       0.002  -0.004   0.002  0.00  0.00    -0.488 OA
ATOM     29  C   UNL     1      -0.017   1.425   0.010  0.00  0.00    +0.277 C 
ENDBRANCH  25  28
BRANCH  24  30
ATOM     30  O   UNL     1      -1.242  -0.635  -2.372  0.00  0.00    -0.491 OA
ATOM     31  C   UNL     1      -1.944  -0.993  -3.563  0.00  0.00    +0.277 C 
ENDBRANCH  24  30
ENDBRANCH   1  22
BRANCH   5  32
ATOM     32  C   UNL     1      -9.052  -5.101  -0.444  0.00  0.00    -0.035 A 
ATOM     33  C   UNL     1      -9.216  -4.210  -1.488  0.00  0.00    +0.004 A 
ATOM     34  C   UNL     1      -9.533  -4.676  -2.751  0.00  0.00    +0.000 A 
ATOM     35  C   UNL     1      -9.695  -6.032  -2.967  0.00  0.00    +0.000 A 
ATOM     36  C   UNL     1      -9.537  -6.922  -1.921  0.00  0.00    +0.000 A 
ATOM     37  C   UNL     1      -9.216  -6.457  -0.660  0.00  0.00    +0.004 A 
ENDBRANCH   5  32
TORSDOF 5
