REMARK  Name = ZINC00665538
REMARK  11 active torsions:
REMARK  status: ('A' for Active; 'I' for Inactive)
REMARK    1  A    between atoms: C_1  and  C_2
REMARK    2  A    between atoms: C_2  and  O_3
REMARK    3  A    between atoms: O_3  and  C_4
REMARK    4  A    between atoms: C_7  and  C_10
REMARK    5  A    between atoms: C_12  and  C_30
REMARK    6  A    between atoms: C_13  and  C_29
REMARK    7  A    between atoms: C_20  and  C_21
REMARK    8  A    between atoms: C_24  and  O_27
REMARK    9  A    between atoms: C_30  and  O_32
REMARK   10  A    between atoms: O_32  and  C_33
REMARK   11  A    between atoms: C_33  and  C_34
REMARK                            x       y       z     vdW  Elec       q    Type
REMARK                         _______ _______ _______ _____ _____    ______ ____
ROOT
ATOM      1  C   UNL     1      -0.613   3.368   3.443  0.00  0.00    +0.162 C 
ATOM      2  C   UNL     1       0.178   3.491   2.161  0.00  0.00    +0.085 C 
ATOM      3  C   UNL     1      -0.512   3.559   0.983  0.00  0.00    +0.053 C 
ATOM      4  N   UNL     1      -1.839   3.523   0.976  0.00  0.00    -0.228 NA
ATOM      5  C   UNL     1      -2.589   3.412   2.043  0.00  0.00    +0.178 A 
ATOM      6  N   UNL     1      -2.097   3.330   3.325  0.00  0.00    -0.275 N 
ATOM      7  C   UNL     1      -2.965   3.224   4.340  0.00  0.00    +0.268 A 
ATOM      8  O   UNL     1      -2.576   3.148   5.491  0.00  0.00    -0.266 OA
ATOM      9  C   UNL     1      -4.399   3.202   4.023  0.00  0.00    +0.081 A 
ATOM     10  C   UNL     1      -5.467   3.105   4.857  0.00  0.00    +0.028 C 
ATOM     11  S   UNL     1      -4.359   3.340   2.243  0.00  0.00    -0.046 S 
ATOM     12  C   UNL     1       0.239   3.683  -0.317  0.00  0.00    +0.066 C 
ENDROOT
BRANCH   1  16
ATOM     13  C   UNL     1       0.639  -0.208   5.420  0.00  0.00    +0.121 A 
ATOM     14  C   UNL     1       1.136   1.022   5.827  0.00  0.00    +0.046 A 
ATOM     15  C   UNL     1       0.730   2.176   5.186  0.00  0.00    +0.009 A 
ATOM     16  C   UNL     1      -0.171   2.107   4.140  0.00  0.00    -0.020 A 
ATOM     17  C   UNL     1      -0.673   0.883   3.736  0.00  0.00    +0.009 A 
ATOM     18  C   UNL     1      -0.265  -0.275   4.370  0.00  0.00    +0.046 A 
BRANCH  13  19
ATOM     19  O   UNL     1       1.037  -1.345   6.049  0.00  0.00    -0.492 OA
BRANCH  19  21
ATOM     20  C   UNL     1       1.046  -3.736   6.400  0.00  0.00    +0.048 C 
ATOM     21  C   UNL     1       0.484  -2.575   5.577  0.00  0.00    +0.225 C 
ENDBRANCH  19  21
ENDBRANCH  13  19
ENDBRANCH   1  16
BRANCH  10  22
ATOM     22  C   UNL     1      -6.827   3.273   4.331  0.00  0.00    -0.024 A 
ATOM     23  C   UNL     1      -7.027   3.862   3.076  0.00  0.00    +0.011 A 
ATOM     24  C   UNL     1      -8.305   4.011   2.585  0.00  0.00    +0.046 A 
ATOM     25  C   UNL     1      -9.395   3.591   3.338  0.00  0.00    +0.117 A 
ATOM     26  C   UNL     1      -9.202   3.012   4.587  0.00  0.00    +0.046 A 
ATOM     27  C   UNL     1      -7.929   2.852   5.085  0.00  0.00    +0.011 A 
BRANCH  25  28
ATOM     28  O   UNL     1     -10.653   3.747   2.852  0.00  0.00    -0.507 OA
ATOM     29  H   UNL     1     -11.065   4.589   3.088  0.00  0.00    +0.292 HD
ENDBRANCH  25  28
ENDBRANCH  10  22
BRANCH   2  30
ATOM     30  C   UNL     1       1.582   3.535   2.179  0.00  0.00    +0.339 C 
ATOM     31  O   UNL     1       2.205   3.526   1.133  0.00  0.00    -0.245 OA
BRANCH  30  32
ATOM     32  O   UNL     1       2.241   3.586   3.357  0.00  0.00    -0.462 OA
BRANCH  32  33
ATOM     33  C   UNL     1       3.668   3.628   3.301  0.00  0.00    +0.229 C 
ATOM     34  C   UNL     1       4.233   3.683   4.722  0.00  0.00    +0.048 C 
ENDBRANCH  32  33
ENDBRANCH  30  32
ENDBRANCH   2  30
TORSDOF 8
