REMARK  Name = ZINC13633540
REMARK  8 active torsions:
REMARK  status: ('A' for Active; 'I' for Inactive)
REMARK    1  A    between atoms: C_1  and  C_2
REMARK    2  A    between atoms: C_2  and  C_3
REMARK    3  A    between atoms: C_2  and  C_4
REMARK    4  A    between atoms: C_6  and  C_27
REMARK    5  A    between atoms: C_8  and  C_21
REMARK    6  A    between atoms: C_11  and  C_12
REMARK    7  A    between atoms: C_11  and  O_20
REMARK    8  A    between atoms: C_13  and  C_14
REMARK                            x       y       z     vdW  Elec       q    Type
REMARK                         _______ _______ _______ _____ _____    ______ ____
ROOT
ATOM      1  C   UNL     1       5.840   1.556  -0.544  0.00  0.00    +0.026 C 
ATOM      2  C   UNL     1       5.293   2.302   0.676  0.00  0.00    -0.033 C 
ATOM      3  C   UNL     1       4.633   0.219   1.725  0.00  0.00    -0.036 C 
ATOM      4  C   UNL     1       5.161  -0.588   0.537  0.00  0.00    +0.037 C 
ATOM      5  C   UNL     1       5.055   0.256  -0.736  0.00  0.00    +0.127 C 
ATOM      6  N   UNL     1       5.424   1.455   1.877  0.00  0.00    +0.388 N 
ATOM      7  H   UNL     1       5.086   1.975   2.695  0.00  0.00    -0.084 HD
ATOM      8  H   UNL     1       6.412   1.210   2.011  0.00  0.00    -0.084 HD
ENDROOT
BRANCH   3   9
ATOM      9  C   UNL     1       3.186   0.569   1.491  0.00  0.00    -0.061 A 
ATOM     10  C   UNL     1       2.845   1.478   0.507  0.00  0.00    +0.002 A 
ATOM     11  C   UNL     1       1.518   1.799   0.293  0.00  0.00    +0.000 A 
ATOM     12  C   UNL     1       0.531   1.211   1.063  0.00  0.00    +0.000 A 
ATOM     13  C   UNL     1       0.873   0.301   2.046  0.00  0.00    +0.000 A 
ATOM     14  C   UNL     1       2.200  -0.019   2.261  0.00  0.00    +0.002 A 
ENDBRANCH   3   9
BRANCH   2  15
ATOM     15  C   UNL     1       6.076   3.573   0.880  0.00  0.00    -0.061 A 
ATOM     16  C   UNL     1       7.394   3.514   1.294  0.00  0.00    +0.002 A 
ATOM     17  C   UNL     1       8.114   4.679   1.477  0.00  0.00    +0.000 A 
ATOM     18  C   UNL     1       7.513   5.905   1.257  0.00  0.00    +0.000 A 
ATOM     19  C   UNL     1       6.193   5.964   0.849  0.00  0.00    +0.000 A 
ATOM     20  C   UNL     1       5.475   4.798   0.660  0.00  0.00    +0.002 A 
ENDBRANCH   2  15
BRANCH   1  22
ATOM     21  C   UNL     1       6.038   1.613  -3.034  0.00  0.00    +0.007 C 
ATOM     22  C   UNL     1       5.690   2.433  -1.789  0.00  0.00    -0.012 C 
ATOM     23  C   UNL     1       4.247   2.930  -1.892  0.00  0.00    +0.007 C 
ENDBRANCH   1  22
BRANCH   5  24
ATOM     24  C   UNL     1       3.641   0.570  -1.001  0.00  0.00    -0.062 C 
ATOM     25  C   UNL     1       2.514   0.820  -1.213  0.00  0.00    -0.063 C 
BRANCH  25  26
ATOM     26  C   UNL     1       1.139   1.126  -1.471  0.00  0.00    +0.025 A 
ATOM     27  C   UNL     1       0.144   0.655  -0.613  0.00  0.00    +0.017 A 
ATOM     28  C   UNL     1      -1.179   0.957  -0.864  0.00  0.00    +0.001 A 
ATOM     29  C   UNL     1      -1.520   1.715  -1.970  0.00  0.00    +0.000 A 
ATOM     30  C   UNL     1      -0.539   2.180  -2.827  0.00  0.00    +0.001 A 
ATOM     31  C   UNL     1       0.788   1.890  -2.584  0.00  0.00    +0.017 A 
ENDBRANCH  25  26
ENDBRANCH   5  24
BRANCH   5  32
ATOM     32  O   UNL     1       5.597  -0.472  -1.839  0.00  0.00    -0.376 OA
ATOM     33  H   UNL     1       5.149  -1.311  -2.015  0.00  0.00    +0.211 HD
ENDBRANCH   5  32
TORSDOF 6
