REMARK  Name = ZINC39535069
REMARK  6 active torsions:
REMARK  status: ('A' for Active; 'I' for Inactive)
REMARK    1  A    between atoms: C_1  and  O_2
REMARK    2  A    between atoms: O_2  and  C_3
REMARK    3  A    between atoms: C_3  and  C_5
REMARK    4  A    between atoms: C_9  and  N_10
REMARK    5  A    between atoms: C_11  and  C_13
REMARK    6  A    between atoms: C_13  and  N_14
REMARK                            x       y       z     vdW  Elec       q    Type
REMARK                         _______ _______ _______ _____ _____    ______ ____
ROOT
ATOM      1  C   UNL     1       4.975  -2.571   1.271  0.00  0.00    +0.214 C 
ENDROOT
BRANCH   1   2
ATOM      2  N   UNL     1       5.841  -3.680   1.678  0.00  0.00    -0.215 N 
ATOM      3  C   UNL     1       5.740  -4.329   2.857  0.00  0.00    +0.252 C 
ATOM      4  O   UNL     1       4.946  -4.113   3.748  0.00  0.00    -0.272 OA
ATOM      5  C   UNL     1       6.824  -5.381   2.833  0.00  0.00    +0.144 C 
ATOM      6  C   UNL     1       6.214  -6.776   2.930  0.00  0.00    +0.081 C 
ATOM      7  C   UNL     1       5.773  -7.008   4.382  0.00  0.00    +0.232 C 
ATOM      8  O   UNL     1       6.932  -6.989   5.216  0.00  0.00    -0.492 OA
ATOM      9  C   UNL     1       7.804  -5.957   5.077  0.00  0.00    +0.126 A 
ATOM     10  C   UNL     1       7.802  -5.150   3.950  0.00  0.00    +0.027 A 
ATOM     11  C   UNL     1       8.714  -4.114   3.846  0.00  0.00    +0.010 A 
ATOM     12  C   UNL     1       9.621  -3.877   4.860  0.00  0.00    +0.001 A 
ATOM     13  C   UNL     1       9.621  -4.676   5.988  0.00  0.00    +0.004 A 
ATOM     14  C   UNL     1       8.716  -5.713   6.098  0.00  0.00    +0.046 A 
ATOM     15  N   UNL     1       7.475  -5.194   1.531  0.00  0.00    -0.281 N 
ATOM     16  C   UNL     1       6.828  -4.180   0.924  0.00  0.00    +0.310 C 
ATOM     17  O   UNL     1       7.111  -3.763  -0.182  0.00  0.00    -0.252 OA
ATOM     18  H   UNL     1       8.222  -5.702   1.176  0.00  0.00    +0.152 HD
ENDBRANCH   1   2
BRANCH   1  20
ATOM     19  N   UNL     1       2.826  -2.272   0.083  0.00  0.00    -0.278 N 
ATOM     20  C   UNL     1       3.768  -3.115   0.552  0.00  0.00    +0.236 C 
ATOM     21  O   UNL     1       3.643  -4.311   0.394  0.00  0.00    -0.274 OA
ATOM     22  H   UNL     1       2.926  -1.315   0.209  0.00  0.00    +0.155 HD
BRANCH  19  27
ATOM     23  C   UNL     1       0.659  -2.064  -1.123  0.00  0.00    +0.091 A 
ATOM     24  C   UNL     1      -0.396  -2.835  -1.780  0.00  0.00    -0.021 A 
ATOM     25  C   UNL     1      -0.195  -4.165  -1.762  0.00  0.00    -0.004 A 
ATOM     26  S   UNL     1       1.343  -4.375  -0.903  0.00  0.00    -0.077 S 
ATOM     27  C   UNL     1       1.716  -2.772  -0.579  0.00  0.00    +0.086 A 
ATOM     28  C   UNL     1      -1.310  -4.909  -2.447  0.00  0.00    +0.043 C 
ATOM     29  C   UNL     1      -2.467  -3.889  -2.531  0.00  0.00    +0.010 C 
ATOM     30  C   UNL     1      -1.706  -2.547  -2.510  0.00  0.00    +0.037 C 
BRANCH  23  31
ATOM     31  C   UNL     1       0.601  -0.603  -1.048  0.00  0.00    +0.342 C 
ATOM     32  O   UNL     1       1.094   0.071  -1.932  0.00  0.00    -0.245 OA
BRANCH  31  34
ATOM     33  C   UNL     1      -0.017   1.425   0.010  0.00  0.00    +0.280 C 
ATOM     34  O   UNL     1       0.002  -0.004   0.002  0.00  0.00    -0.464 OA
ENDBRANCH  31  34
ENDBRANCH  23  31
ENDBRANCH  19  27
ENDBRANCH   1  20
TORSDOF 5
