REMARK  Name = ZINC00598164
REMARK  13 active torsions:
REMARK  status: ('A' for Active; 'I' for Inactive)
REMARK    1  A    between atoms: C_1  and  C_2
REMARK    2  A    between atoms: C_2  and  O_3
REMARK    3  A    between atoms: O_3  and  C_4
REMARK    4  A    between atoms: C_4  and  C_6
REMARK    5  A    between atoms: C_7  and  C_22
REMARK    6  A    between atoms: N_8  and  C_21
REMARK    7  A    between atoms: C_11  and  C_17
REMARK    8  A    between atoms: C_12  and  O_16
REMARK    9  A    between atoms: C_17  and  N_18
REMARK   10  A    between atoms: N_18  and  C_19
REMARK   11  A    between atoms: N_18  and  C_20
REMARK   12  A    between atoms: C_22  and  S_23
REMARK   13  A    between atoms: S_23  and  C_24
REMARK                            x       y       z     vdW  Elec       q    Type
REMARK                         _______ _______ _______ _____ _____    ______ ____
ROOT
ATOM      1  C   UNL     1      -2.632  -2.220   0.009  0.00  0.00    +0.088 A 
ATOM      2  C   UNL     1      -3.367  -2.372  -1.131  0.00  0.00    +0.044 A 
ATOM      3  N   UNL     1      -4.581  -2.889  -0.828  0.00  0.00    -0.345 N 
ATOM      4  C   UNL     1      -4.690  -3.098   0.533  0.00  0.00    +0.051 A 
ATOM      5  C   UNL     1      -3.479  -2.697   1.119  0.00  0.00    +0.019 A 
ATOM      6  C   UNL     1      -3.299  -2.802   2.495  0.00  0.00    -0.011 A 
ATOM      7  C   UNL     1      -4.318  -3.305   3.282  0.00  0.00    +0.133 A 
ATOM      8  C   UNL     1      -5.517  -3.706   2.700  0.00  0.00    +0.061 A 
ATOM      9  C   UNL     1      -5.707  -3.598   1.339  0.00  0.00    +0.045 A 
ATOM     10 BR   UNL     1      -6.903  -4.394   3.788  0.00  0.00    -0.046 Br
ATOM     11  C   UNL     1      -5.632  -3.184  -1.806  0.00  0.00    +0.149 C 
ENDROOT
BRANCH   1  12
ATOM     12  C   UNL     1      -1.267  -1.693   0.110  0.00  0.00    +0.342 C 
ATOM     13  O   UNL     1      -0.319  -2.454   0.102  0.00  0.00    -0.245 OA
BRANCH  12  14
ATOM     14  O   UNL     1      -1.063  -0.364   0.211  0.00  0.00    -0.461 OA
BRANCH  14  16
ATOM     15  C   UNL     1       0.323   1.605   0.412  0.00  0.00    +0.048 C 
ATOM     16  C   UNL     1       0.292   0.080   0.305  0.00  0.00    +0.229 C 
ENDBRANCH  14  16
ENDBRANCH  12  14
ENDBRANCH   1  12
BRANCH   7  17
ATOM     17  O   UNL     1      -4.148  -3.409   4.627  0.00  0.00    -0.505 OA
ATOM     18  H   UNL     1      -4.421  -2.624   5.120  0.00  0.00    +0.292 HD
ENDBRANCH   7  17
BRANCH   6  19
ATOM     19  C   UNL     1      -1.999  -2.369   3.124  0.00  0.00    -0.039 C 
BRANCH  19  20
ATOM     20  N   UNL     1      -1.017  -3.455   3.017  0.00  0.00    +0.379 N 
ATOM     21  C   UNL     1       0.288  -2.986   3.502  0.00  0.00    -0.096 C 
ATOM     22  C   UNL     1      -1.459  -4.597   3.828  0.00  0.00    -0.096 C 
ATOM     23  H   UNL     1      -0.935  -3.740   2.052  0.00  0.00    -0.082 HD
ENDBRANCH  19  20
ENDBRANCH   6  19
BRANCH   2  24
ATOM     24  C   UNL     1      -2.898  -2.017  -2.519  0.00  0.00    +0.128 C 
BRANCH  24  25
ATOM     25  S   UNL     1      -3.335  -0.294  -2.882  0.00  0.00    -0.119 S 
BRANCH  25  26
ATOM     26  C   UNL     1      -2.728  -0.036  -4.516  0.00  0.00    +0.008 A 
ATOM     27  C   UNL     1      -2.091  -1.068  -5.194  0.00  0.00    +0.015 A 
ATOM     28  C   UNL     1      -1.616  -0.862  -6.474  0.00  0.00    +0.001 A 
ATOM     29  C   UNL     1      -1.774   0.370  -7.082  0.00  0.00    +0.000 A 
ATOM     30  C   UNL     1      -2.407   1.400  -6.410  0.00  0.00    +0.001 A 
ATOM     31  C   UNL     1      -2.890   1.199  -5.132  0.00  0.00    +0.015 A 
ENDBRANCH  25  26
ENDBRANCH  24  25
ENDBRANCH   2  24
TORSDOF 9
