REMARK  Name = ZINC36083597
REMARK  13 active torsions:
REMARK  status: ('A' for Active; 'I' for Inactive)
REMARK    1  A    between atoms: C_1  and  C_2
REMARK    2  A    between atoms: C_2  and  O_3
REMARK    3  A    between atoms: O_3  and  C_4
REMARK    4  A    between atoms: C_4  and  C_6
REMARK    5  A    between atoms: C_7  and  C_25
REMARK    6  A    between atoms: N_8  and  C_24
REMARK    7  A    between atoms: C_12  and  C_14
REMARK    8  A    between atoms: C_19  and  C_20
REMARK    9  A    between atoms: C_25  and  O_26
REMARK   10  A    between atoms: O_26  and  C_27
REMARK   11  A    between atoms: C_29  and  C_35
REMARK   12  A    between atoms: C_31  and  C_34
REMARK   13  A    between atoms: C_32  and  C_33
REMARK                            x       y       z     vdW  Elec       q    Type
REMARK                         _______ _______ _______ _____ _____    ______ ____
ROOT
ATOM      1  C   UNL     1      -2.863  -2.337  -0.197  0.00  0.00    +0.082 C 
ATOM      2  C   UNL     1      -2.767  -3.678  -0.328  0.00  0.00    +0.064 C 
ATOM      3  N   UNL     1      -3.871  -4.476  -0.232  0.00  0.00    -0.258 N 
ATOM      4  C   UNL     1      -5.106  -4.011  -0.007  0.00  0.00    +0.307 C 
ATOM      5  O   UNL     1      -6.028  -4.800   0.063  0.00  0.00    -0.252 OA
ATOM      6  N   UNL     1      -5.361  -2.696   0.145  0.00  0.00    -0.288 N 
ATOM      7  C   UNL     1      -4.235  -1.750   0.065  0.00  0.00    +0.144 C 
ATOM      8  C   UNL     1      -3.693  -5.922  -0.383  0.00  0.00    +0.139 C 
ATOM      9  H   UNL     1      -6.264  -2.381   0.307  0.00  0.00    +0.151 HD
ENDROOT
BRANCH   7  10
ATOM     10  C   UNL     1      -4.173  -0.984   1.361  0.00  0.00    -0.011 A 
ATOM     11  C   UNL     1      -4.134  -1.663   2.565  0.00  0.00    +0.006 A 
ATOM     12  C   UNL     1      -4.077  -0.960   3.753  0.00  0.00    +0.000 A 
ATOM     13  C   UNL     1      -4.058   0.422   3.739  0.00  0.00    +0.001 A 
ATOM     14  C   UNL     1      -4.095   1.101   2.536  0.00  0.00    +0.013 A 
ATOM     15  C   UNL     1      -4.148   0.398   1.347  0.00  0.00    +0.060 A 
BRANCH  15  16
ATOM     16  C   UNL     1      -4.183   1.138   0.034  0.00  0.00    +0.418 C 
ATOM     17  F   UNL     1      -4.179   2.516   0.276  0.00  0.00    -0.166 F 
ATOM     18  F   UNL     1      -3.060   0.794  -0.726  0.00  0.00    -0.166 F 
ATOM     19  F   UNL     1      -5.344   0.792  -0.666  0.00  0.00    -0.166 F 
ENDBRANCH  15  16
ENDBRANCH   7  10
BRANCH   1  20
ATOM     20  C   UNL     1      -1.720  -1.509  -0.296  0.00  0.00    +0.339 C 
ATOM     21  O   UNL     1      -1.454  -0.962  -1.350  0.00  0.00    -0.245 OA
BRANCH  20  22
ATOM     22  O   UNL     1      -0.925  -1.325   0.779  0.00  0.00    -0.462 OA
BRANCH  22  24
ATOM     23  C   UNL     1       1.007  -0.412   1.907  0.00  0.00    +0.048 C 
ATOM     24  C   UNL     1       0.158  -0.404   0.635  0.00  0.00    +0.229 C 
ENDBRANCH  22  24
ENDBRANCH  20  22
ENDBRANCH   1  20
BRANCH   2  25
ATOM     25  C   UNL     1      -1.420  -4.303  -0.584  0.00  0.00    +0.280 C 
BRANCH  25  26
ATOM     26  O   UNL     1      -1.027  -5.071   0.555  0.00  0.00    -0.486 OA
BRANCH  26  27
ATOM     27  C   UNL     1       0.173  -5.706   0.487  0.00  0.00    +0.124 A 
ATOM     28  C   UNL     1       0.959  -5.587  -0.650  0.00  0.00    +0.049 A 
ATOM     29  C   UNL     1       2.178  -6.232  -0.717  0.00  0.00    -0.047 A 
ATOM     30  C   UNL     1       2.616  -6.997   0.349  0.00  0.00    +0.007 A 
ATOM     31  C   UNL     1       1.835  -7.117   1.483  0.00  0.00    -0.044 A 
ATOM     32  C   UNL     1       0.617  -6.469   1.557  0.00  0.00    -0.006 A 
ATOM     33  C   UNL     1      -0.232  -6.596   2.796  0.00  0.00    +0.048 C 
ATOM     34  C   UNL     1       2.315  -7.952   2.643  0.00  0.00    +0.044 C 
ATOM     35  C   UNL     1       3.032  -6.103  -1.952  0.00  0.00    +0.044 C 
ENDBRANCH  26  27
ENDBRANCH  25  26
ENDBRANCH   2  25
TORSDOF 8
