REMARK  Name = ZINC09308700
REMARK  7 active torsions:
REMARK  status: ('A' for Active; 'I' for Inactive)
REMARK    1  A    between atoms: C_1  and  C_2
REMARK    2  A    between atoms: C_2  and  O_3
REMARK    3  A    between atoms: O_3  and  C_4
REMARK    4  A    between atoms: C_14  and  C_34
REMARK    5  A    between atoms: C_16  and  C_17
REMARK    6  A    between atoms: C_17  and  C_18
REMARK    7  A    between atoms: C_25  and  C_28
REMARK                            x       y       z     vdW  Elec       q    Type
REMARK                         _______ _______ _______ _____ _____    ______ ____
ROOT
ATOM      1  C   UNL     1       1.073  -1.778   1.380  0.00  0.00    +0.122 A 
ATOM      2  C   UNL     1       0.419  -2.602   0.468  0.00  0.00    +0.048 A 
ATOM      3  C   UNL     1       0.445  -3.957   0.585  0.00  0.00    +0.032 A 
ATOM      4  C   UNL     1       1.143  -4.581   1.645  0.00  0.00    +0.081 A 
ATOM      5  C   UNL     1       1.798  -3.720   2.555  0.00  0.00    +0.044 A 
ATOM      6  C   UNL     1       1.773  -2.354   2.430  0.00  0.00    +0.063 A 
ATOM      7  S   UNL     1       2.533  -4.866   3.697  0.00  0.00    -0.052 S 
ATOM      8  C   UNL     1       1.944  -6.365   2.922  0.00  0.00    +0.169 A 
ATOM      9  N   UNL     1       1.264  -5.903   1.899  0.00  0.00    -0.224 NA
ATOM     10  N   UNL     1       2.153  -7.679   3.303  0.00  0.00    -0.232 N 
ATOM     11  C   UNL     1       1.643  -8.870   2.614  0.00  0.00    +0.153 C 
ATOM     12  C   UNL     1       2.135 -10.058   3.407  0.00  0.00    +0.077 C 
ATOM     13  C   UNL     1       2.854  -9.566   4.443  0.00  0.00    +0.250 C 
ATOM     14  O   UNL     1       3.469 -10.307   5.393  0.00  0.00    -0.282 OA
ATOM     15  C   UNL     1       2.865  -8.091   4.368  0.00  0.00    +0.293 C 
ATOM     16  O   UNL     1       3.431  -7.357   5.154  0.00  0.00    -0.266 OA
ENDROOT
BRANCH  11  17
ATOM     17  C   UNL     1       0.136  -8.850   2.591  0.00  0.00    -0.004 A 
ATOM     18  C   UNL     1      -0.552  -9.157   1.427  0.00  0.00    +0.009 A 
ATOM     19  C   UNL     1      -1.938  -9.126   1.453  0.00  0.00    +0.020 A 
ATOM     20  C   UNL     1      -2.583  -8.791   2.629  0.00  0.00    +0.111 A 
ATOM     21  N   UNL     1      -1.895  -8.504   3.717  0.00  0.00    -0.263 NA
ATOM     22  C   UNL     1      -0.576  -8.530   3.731  0.00  0.00    +0.116 A 
ENDBRANCH  11  17
BRANCH  12  23
ATOM     23  C   UNL     1       1.883 -11.472   3.111  0.00  0.00    +0.195 C 
ATOM     24  O   UNL     1       1.213 -12.143   3.873  0.00  0.00    -0.287 OA
BRANCH  23  25
ATOM     25  C   UNL     1       2.443 -12.081   1.888  0.00  0.00    +0.023 A 
ATOM     26  C   UNL     1       3.315 -11.352   1.073  0.00  0.00    +0.015 A 
ATOM     27  C   UNL     1       3.838 -11.922  -0.062  0.00  0.00    +0.046 A 
ATOM     28  C   UNL     1       3.505 -13.232  -0.415  0.00  0.00    +0.124 A 
ATOM     29  C   UNL     1       2.630 -13.950   0.396  0.00  0.00    -0.002 A 
ATOM     30  C   UNL     1       2.110 -13.394   1.538  0.00  0.00    +0.019 A 
ATOM     31  C   UNL     1       2.443 -15.310  -0.249  0.00  0.00    +0.083 C 
ATOM     32  C   UNL     1       2.999 -15.067  -1.672  0.00  0.00    +0.175 C 
ATOM     33  O   UNL     1       3.916 -13.977  -1.475  0.00  0.00    -0.488 OA
ATOM     34  C   UNL     1       1.876 -14.669  -2.632  0.00  0.00    +0.052 C 
ENDBRANCH  23  25
ENDBRANCH  12  23
BRANCH   1  35
ATOM     35  O   UNL     1       1.031  -0.427   1.239  0.00  0.00    -0.492 OA
BRANCH  35  37
ATOM     36  C   UNL     1       0.355   1.616   0.139  0.00  0.00    +0.048 C 
ATOM     37  C   UNL     1       0.289   0.088   0.131  0.00  0.00    +0.225 C 
ENDBRANCH  35  37
ENDBRANCH   1  35
TORSDOF 5
