REMARK  Name = ZINC24072241
REMARK  10 active torsions:
REMARK  status: ('A' for Active; 'I' for Inactive)
REMARK    1  A    between atoms: C_1  and  C_2
REMARK    2  A    between atoms: C_15  and  C_17
REMARK    3  A    between atoms: C_17  and  C_19
REMARK    4  A    between atoms: C_17  and  N_20
REMARK    5  A    between atoms: N_23  and  C_26
REMARK    6  A    between atoms: C_26  and  C_27
REMARK    7  A    between atoms: N_29  and  C_30
REMARK    8  A    between atoms: C_30  and  C_31
REMARK    9  A    between atoms: C_30  and  C_32
REMARK   10  A    between atoms: C_30  and  C_33
REMARK                            x       y       z     vdW  Elec       q    Type
REMARK                         _______ _______ _______ _____ _____    ______ ____
ROOT
ATOM      1  C   UNL     1       2.301  -8.127   0.768  0.00  0.00    -0.004 C 
ATOM      2  C   UNL     1       3.595  -8.589   0.094  0.00  0.00    -0.005 C 
ENDROOT
BRANCH   1  16
ATOM      3  C   UNL     1      -5.390 -14.088  -1.344  0.00  0.00    +0.008 C 
ATOM      4  C   UNL     1      -4.022 -13.413  -1.214  0.00  0.00    -0.009 C 
ATOM      5  C   UNL     1      -3.918 -12.264  -2.220  0.00  0.00    +0.008 C 
ATOM      6  C   UNL     1      -2.480 -11.748  -2.272  0.00  0.00    +0.037 C 
ATOM      7  C   UNL     1      -2.022 -11.418  -0.854  0.00  0.00    -0.023 A 
ATOM      8  C   UNL     1      -2.673 -11.933   0.216  0.00  0.00    -0.004 A 
ATOM      9  S   UNL     1      -1.814 -11.296   1.633  0.00  0.00    -0.073 S 
ATOM     10  C   UNL     1      -0.589 -10.345   0.792  0.00  0.00    +0.116 A 
ATOM     11  C   UNL     1      -0.889 -10.555  -0.573  0.00  0.00    +0.075 A 
ATOM     12  C   UNL     1      -0.050  -9.897  -1.534  0.00  0.00    +0.260 A 
ATOM     13  O   UNL     1      -0.224 -10.013  -2.734  0.00  0.00    -0.267 OA
ATOM     14  N   UNL     1       0.948  -9.139  -1.020  0.00  0.00    -0.312 N 
ATOM     15  H   UNL     1       1.539  -8.676  -1.634  0.00  0.00    +0.170 HD
ATOM     16  C   UNL     1       1.159  -8.997   0.310  0.00  0.00    +0.097 A 
ATOM     17  N   UNL     1       0.413  -9.583   1.221  0.00  0.00    -0.228 NA
ATOM     18  C   UNL     1      -3.861 -12.846   0.204  0.00  0.00    +0.046 C 
ENDBRANCH   1  16
BRANCH   1  19
ATOM     19  N   UNL     1       2.444  -8.234   2.227  0.00  0.00    +0.388 N 
ATOM     20  C   UNL     1       3.452  -7.272   2.691  0.00  0.00    -0.062 C 
ATOM     21  C   UNL     1       3.587  -7.370   4.212  0.00  0.00    +0.066 C 
ATOM     22  N   UNL     1       3.983  -8.737   4.580  0.00  0.00    -0.298 NA
ATOM     23  C   UNL     1       2.995  -9.713   4.099  0.00  0.00    +0.066 C 
ATOM     24  C   UNL     1       2.865  -9.596   2.579  0.00  0.00    -0.062 C 
ATOM     25  H   UNL     1       1.559  -8.031   2.666  0.00  0.00    -0.081 HD
BRANCH  22  26
ATOM     26  C   UNL     1       4.179  -8.856   6.030  0.00  0.00    +0.180 C 
BRANCH  26  27
ATOM     27  C   UNL     1       4.815 -10.186   6.344  0.00  0.00    +0.227 C 
ATOM     28  O   UNL     1       5.080 -10.958   5.446  0.00  0.00    -0.274 OA
ATOM     29  N   UNL     1       5.090 -10.517   7.621  0.00  0.00    -0.310 N 
ATOM     30  H   UNL     1       4.879  -9.900   8.338  0.00  0.00    +0.149 HD
BRANCH  29  31
ATOM     31  C   UNL     1       5.709 -11.810   7.925  0.00  0.00    +0.026 C 
ATOM     32  C   UNL     1       7.063 -11.906   7.218  0.00  0.00    +0.031 C 
ATOM     33  C   UNL     1       5.913 -11.934   9.436  0.00  0.00    +0.031 C 
ATOM     34  C   UNL     1       4.798 -12.939   7.439  0.00  0.00    +0.031 C 
ENDBRANCH  29  31
ENDBRANCH  26  27
ENDBRANCH  22  26
ENDBRANCH   1  19
TORSDOF 5
