REMARK  Name = ZINC34749958
REMARK  8 active torsions:
REMARK  status: ('A' for Active; 'I' for Inactive)
REMARK    1  A    between atoms: C_1  and  C_2
REMARK    2  A    between atoms: C_2  and  S_3
REMARK    3  A    between atoms: S_3  and  C_4
REMARK    4  A    between atoms: C_15  and  C_17
REMARK    5  A    between atoms: C_15  and  C_18
REMARK    6  A    between atoms: N_22  and  C_25
REMARK    7  A    between atoms: C_25  and  C_26
REMARK    8  A    between atoms: N_28  and  C_29
REMARK                            x       y       z     vdW  Elec       q    Type
REMARK                         _______ _______ _______ _____ _____    ______ ____
ROOT
ATOM      1  C   UNL     1      -0.849  -3.363   1.176  0.00  0.00    +0.191 A 
ATOM      2  N   UNL     1      -1.951  -4.103   1.137  0.00  0.00    -0.206 NA
ATOM      3  C   UNL     1      -2.506  -4.477  -0.004  0.00  0.00    +0.134 A 
ATOM      4  C   UNL     1      -1.909  -4.078  -1.233  0.00  0.00    +0.051 A 
ATOM      5  C   UNL     1      -2.339  -4.370  -2.599  0.00  0.00    -0.020 A 
ATOM      6  C   UNL     1      -1.588  -3.867  -3.601  0.00  0.00    +0.021 A 
ATOM      7  S   UNL     1      -0.280  -2.985  -2.799  0.00  0.00    -0.071 S 
ATOM      8  C   UNL     1      -0.743  -3.294  -1.114  0.00  0.00    +0.115 A 
ATOM      9  N   UNL     1      -0.253  -2.958   0.063  0.00  0.00    -0.215 NA
ATOM     10  C   UNL     1      -1.836  -4.040  -5.068  0.00  0.00    +0.203 C 
ATOM     11  O   UNL     1      -2.810  -5.084  -5.231  0.00  0.00    -0.368 OA
ATOM     12  C   UNL     1      -3.955  -4.931  -4.388  0.00  0.00    +0.068 C 
ATOM     13  C   UNL     1      -3.576  -5.202  -2.929  0.00  0.00    +0.071 C 
ATOM     14  C   UNL     1      -4.492  -3.504  -4.516  0.00  0.00    +0.041 C 
ATOM     15  C   UNL     1      -5.040  -5.919  -4.823  0.00  0.00    +0.041 C 
ATOM     16  N   UNL     1      -3.654  -5.248  -0.003  0.00  0.00    -0.318 N 
ATOM     17  C   UNL     1      -3.582  -6.713  -0.115  0.00  0.00    +0.088 C 
ATOM     18  C   UNL     1      -4.425  -7.328   1.007  0.00  0.00    -0.059 C 
ATOM     19  N   UNL     1      -5.787  -6.782   0.951  0.00  0.00    +0.387 N 
ATOM     20  C   UNL     1      -5.759  -5.340   1.223  0.00  0.00    -0.059 C 
ATOM     21  C   UNL     1      -4.982  -4.626   0.118  0.00  0.00    +0.088 C 
ATOM     22  H   UNL     1      -6.174  -6.943   0.033  0.00  0.00    -0.081 HD
ENDROOT
BRANCH   1  23
ATOM     23  S   UNL     1      -0.170  -2.906   2.737  0.00  0.00    -0.086 S 
BRANCH  23  25
ATOM     24  C   UNL     1       1.982  -1.449   3.589  0.00  0.00    +0.016 C 
ATOM     25  C   UNL     1       1.289  -1.917   2.308  0.00  0.00    +0.074 C 
ENDBRANCH  23  25
ENDBRANCH   1  23
BRANCH  19  26
ATOM     26  C   UNL     1      -6.623  -7.453   1.955  0.00  0.00    +0.019 C 
BRANCH  26  27
ATOM     27  C   UNL     1      -8.048  -6.983   1.817  0.00  0.00    +0.197 C 
ATOM     28  O   UNL     1      -8.338  -6.170   0.966  0.00  0.00    -0.278 OA
ATOM     29  N   UNL     1      -8.999  -7.467   2.640  0.00  0.00    -0.314 N 
ATOM     30  H   UNL     1      -8.767  -8.117   3.321  0.00  0.00    +0.149 HD
BRANCH  29  31
ATOM     31  C   UNL     1     -10.385  -7.010   2.506  0.00  0.00    +0.073 C 
ATOM     32  C   UNL     1     -10.572  -5.711   3.292  0.00  0.00    +0.022 C 
ATOM     33  C   UNL     1     -12.019  -5.234   3.152  0.00  0.00    +0.002 C 
ATOM     34  C   UNL     1     -12.964  -6.304   3.702  0.00  0.00    +0.000 C 
ATOM     35  C   UNL     1     -12.777  -7.604   2.916  0.00  0.00    +0.002 C 
ATOM     36  C   UNL     1     -11.330  -8.080   3.056  0.00  0.00    +0.022 C 
ENDBRANCH  29  31
ENDBRANCH  26  27
ENDBRANCH  19  26
TORSDOF 5
