REMARK  Name = ZINC54744456
REMARK  6 active torsions:
REMARK  status: ('A' for Active; 'I' for Inactive)
REMARK    1  A    between atoms: C_1  and  C_2
REMARK    2  A    between atoms: C_2  and  C_3
REMARK    3  A    between atoms: C_2  and  N_4
REMARK    4  A    between atoms: N_4  and  C_5
REMARK    5  A    between atoms: C_5  and  C_6
REMARK    6  A    between atoms: N_10  and  C_11
REMARK                            x       y       z     vdW  Elec       q    Type
REMARK                         _______ _______ _______ _____ _____    ______ ____
ROOT
ATOM      1  C   UNL     1       1.235  -0.718   3.383  0.00  0.00    +0.140 A 
ATOM      2  N   UNL     1       1.129  -1.815   4.087  0.00  0.00    -0.115 NA
ATOM      3  N   UNL     1       1.721  -1.685   5.219  0.00  0.00    -0.023 NA
ATOM      4  N   UNL     1       2.240  -0.509   5.318  0.00  0.00    -0.039 NA
ATOM      5  N   UNL     1       1.946   0.164   4.119  0.00  0.00    -0.196 N 
ENDROOT
BRANCH   5   6
ATOM      6  C   UNL     1       2.310   1.471   3.764  0.00  0.00    +0.106 A 
ATOM      7  C   UNL     1       1.335   2.451   3.620  0.00  0.00    +0.069 A 
ATOM      8  C   UNL     1       1.698   3.738   3.271  0.00  0.00    +0.037 A 
ATOM      9  C   UNL     1       3.029   4.052   3.064  0.00  0.00    +0.021 A 
ATOM     10  C   UNL     1       4.002   3.078   3.207  0.00  0.00    +0.037 A 
ATOM     11  C   UNL     1       3.647   1.790   3.562  0.00  0.00    +0.069 A 
ATOM     12 CL   UNL     1       4.869   0.572   3.748  0.00  0.00    -0.081 Cl
ATOM     13 BR   UNL     1       3.520   5.814   2.585  0.00  0.00    -0.050 Br
ATOM     14 CL   UNL     1      -0.336   2.058   3.879  0.00  0.00    -0.081 Cl
ENDBRANCH   5   6
BRANCH   1  15
ATOM     15  C   UNL     1       0.673  -0.483   2.005  0.00  0.00    -0.003 C 
BRANCH  15  16
ATOM     16  N   UNL     1       1.681  -0.838   0.998  0.00  0.00    +0.385 N 
ATOM     17  H   UNL     1       1.894  -1.822   1.067  0.00  0.00    -0.085 HD
ATOM     18  H   UNL     1       2.520  -0.301   1.158  0.00  0.00    -0.085 HD
BRANCH  16  20
ATOM     19  C   UNL     1       0.969   0.968  -0.495  0.00  0.00    -0.014 C 
ATOM     20  C   UNL     1       1.159  -0.543  -0.344  0.00  0.00    -0.078 C 
ATOM     21  C   UNL     1       2.151  -1.040  -1.397  0.00  0.00    -0.014 C 
ENDBRANCH  16  20
ENDBRANCH  15  16
ENDBRANCH   1  15
TORSDOF 4
