REMARK  Name = ZINC24820268
REMARK  8 active torsions:
REMARK  status: ('A' for Active; 'I' for Inactive)
REMARK    1  A    between atoms: C_1  and  C_2
REMARK    2  A    between atoms: C_5  and  C_7
REMARK    3  A    between atoms: C_8  and  C_18
REMARK    4  A    between atoms: N_10  and  C_12
REMARK    5  A    between atoms: N_20  and  C_21
REMARK    6  A    between atoms: N_20  and  C_22
REMARK    7  A    between atoms: C_22  and  C_23
REMARK    8  A    between atoms: N_25  and  C_26
REMARK                            x       y       z     vdW  Elec       q    Type
REMARK                         _______ _______ _______ _____ _____    ______ ____
ROOT
ATOM      1  C   UNL     1      -2.720   2.345   0.095  0.00  0.00    +0.140 A 
ATOM      2  C   UNL     1      -2.217   3.721   0.182  0.00  0.00    +0.086 A 
ATOM      3  C   UNL     1      -0.853   3.626   0.363  0.00  0.00    +0.128 A 
ATOM      4  N   UNL     1      -0.529   2.321   0.388  0.00  0.00    -0.238 N 
ATOM      5  N   UNL     1      -1.680   1.547   0.217  0.00  0.00    -0.162 NA
ENDROOT
BRANCH   1  10
ATOM      6  C   UNL     1      -7.730   2.294   0.369  0.00  0.00    +0.086 C 
ATOM      7  C   UNL     1      -6.317   1.907   0.018  0.00  0.00    +0.103 A 
ATOM      8  C   UNL     1      -5.956   0.844  -0.728  0.00  0.00    +0.045 A 
ATOM      9  C   UNL     1      -4.550   0.853  -0.808  0.00  0.00    +0.052 A 
ATOM     10  C   UNL     1      -4.125   1.933  -0.099  0.00  0.00    +0.156 A 
ATOM     11  O   UNL     1      -5.208   2.559   0.401  0.00  0.00    -0.458 OA
ENDBRANCH   1  10
BRANCH   4  12
ATOM     12  C   UNL     1       0.766   1.814   0.553  0.00  0.00    +0.065 A 
ATOM     13  C   UNL     1       1.839   2.683   0.703  0.00  0.00    +0.028 A 
ATOM     14  C   UNL     1       3.116   2.180   0.859  0.00  0.00    +0.002 A 
ATOM     15  C   UNL     1       3.327   0.814   0.868  0.00  0.00    +0.000 A 
ATOM     16  C   UNL     1       2.260  -0.054   0.720  0.00  0.00    +0.002 A 
ATOM     17  C   UNL     1       0.981   0.442   0.562  0.00  0.00    +0.028 A 
ENDBRANCH   4  12
BRANCH   2  18
ATOM     18  C   UNL     1      -3.010   4.957   0.093  0.00  0.00    +0.250 C 
ATOM     19  O   UNL     1      -3.915   5.043  -0.716  0.00  0.00    -0.270 OA
ATOM     20  N   UNL     1      -2.735   5.995   0.907  0.00  0.00    -0.292 N 
ATOM     21  C   UNL     1      -1.576   5.937   1.802  0.00  0.00    +0.133 C 
BRANCH  20  22
ATOM     22  C   UNL     1      -3.594   7.182   0.899  0.00  0.00    +0.203 C 
BRANCH  22  23
ATOM     23  C   UNL     1      -4.699   7.009   1.909  0.00  0.00    +0.235 C 
ATOM     24  O   UNL     1      -4.763   5.995   2.571  0.00  0.00    -0.274 OA
ATOM     25  N   UNL     1      -5.617   7.982   2.076  0.00  0.00    -0.283 N 
ATOM     26  H   UNL     1      -5.511   8.936   1.539  0.00  0.00    +0.155 HD
BRANCH  25  27
ATOM     27  C   UNL     1      -6.704   7.778   2.934  0.00  0.00    +0.047 A 
ATOM     28  C   UNL     1      -6.562   6.977   4.059  0.00  0.00    +0.024 A 
ATOM     29  C   UNL     1      -7.635   6.781   4.906  0.00  0.00    +0.002 A 
ATOM     30  C   UNL     1      -8.854   7.373   4.629  0.00  0.00    +0.001 A 
ATOM     31  C   UNL     1      -9.001   8.168   3.507  0.00  0.00    +0.017 A 
ATOM     32  C   UNL     1      -7.929   8.372   2.658  0.00  0.00    +0.039 A 
ATOM     33 BR   UNL     1      -8.131   9.457   1.123  0.00  0.00    -0.048 Br
ENDBRANCH  25  27
ENDBRANCH  22  23
ENDBRANCH  20  22
ENDBRANCH   2  18
TORSDOF 6
