REMARK  Name = ZINC39710976
REMARK  12 active torsions:
REMARK  status: ('A' for Active; 'I' for Inactive)
REMARK    1  A    between atoms: C_1  and  C_2
REMARK    2  A    between atoms: C_8  and  C_14
REMARK    3  A    between atoms: C_14  and  C_16
REMARK    4  A    between atoms: C_14  and  N_26
REMARK    5  A    between atoms: N_21  and  C_22
REMARK    6  A    between atoms: C_22  and  C_23
REMARK    7  A    between atoms: C_22  and  C_24
REMARK    8  A    between atoms: C_22  and  C_25
REMARK    9  A    between atoms: N_26  and  C_27
REMARK   10  A    between atoms: N_26  and  C_33
REMARK   11  A    between atoms: C_27  and  C_28
REMARK   12  A    between atoms: C_33  and  C_34
REMARK                            x       y       z     vdW  Elec       q    Type
REMARK                         _______ _______ _______ _____ _____    ______ ____
ROOT
ATOM      1  C   UNL     1       0.825  -2.477   4.313  0.00  0.00    -0.009 C 
ENDROOT
BRANCH   1   9
ATOM      2  C   UNL     1      -3.000  -4.955   0.203  0.00  0.00    +0.045 C 
ATOM      3  C   UNL     1      -3.216  -4.517   1.628  0.00  0.00    -0.029 A 
ATOM      4  C   UNL     1      -4.322  -4.930   2.301  0.00  0.00    +0.005 A 
ATOM      5  C   UNL     1      -4.581  -4.562   3.621  0.00  0.00    +0.001 A 
ATOM      6  C   UNL     1      -3.731  -3.759   4.311  0.00  0.00    +0.009 A 
ATOM      7  C   UNL     1      -2.519  -3.277   3.647  0.00  0.00    -0.007 A 
ATOM      8  C   UNL     1      -1.637  -2.469   4.301  0.00  0.00    -0.006 C 
ATOM      9  C   UNL     1      -0.409  -2.018   3.534  0.00  0.00    +0.088 C 
ATOM     10  C   UNL     1      -0.263  -2.499   2.108  0.00  0.00    +0.223 C 
ATOM     11  O   UNL     1       0.703  -2.167   1.448  0.00  0.00    -0.275 OA
ATOM     12  N   UNL     1      -1.190  -3.283   1.583  0.00  0.00    -0.284 N 
ATOM     13  C   UNL     1      -2.268  -3.687   2.254  0.00  0.00    +0.043 A 
ATOM     14  H   UNL     1      -1.078  -3.580   0.666  0.00  0.00    +0.155 HD
ENDBRANCH   1   9
BRANCH   1  15
ATOM     15  C   UNL     1       0.797  -4.000   4.462  0.00  0.00    +0.205 C 
ATOM     16  N   UNL     1      -0.249  -4.402   5.412  0.00  0.00    -0.152 NA
ATOM     17  N   UNL     1       0.278  -4.988   6.360  0.00  0.00    -0.070 NA
ATOM     18  N   UNL     1       1.664  -5.082   6.237  0.00  0.00    -0.179 N 
ATOM     19  N   UNL     1       2.056  -4.483   5.066  0.00  0.00    -0.183 NA
ATOM     20  H   UNL     1       2.257  -5.505   6.878  0.00  0.00    +0.191 HD
BRANCH  19  21
ATOM     21  C   UNL     1       2.731  -5.442   4.181  0.00  0.00    +0.035 C 
ATOM     22  C   UNL     1       3.002  -4.783   2.827  0.00  0.00    +0.029 C 
ATOM     23  C   UNL     1       4.056  -5.874   4.812  0.00  0.00    +0.029 C 
ATOM     24  C   UNL     1       1.837  -6.668   3.982  0.00  0.00    +0.029 C 
ENDBRANCH  19  21
ENDBRANCH   1  15
BRANCH   1  25
ATOM     25  N   UNL     1       0.825  -1.855   5.644  0.00  0.00    +0.389 N 
ATOM     26  H   UNL     1       0.060  -2.225   6.187  0.00  0.00    -0.081 HD
BRANCH  25  27
ATOM     27  C   UNL     1       0.669  -0.401   5.504  0.00  0.00    -0.035 C 
BRANCH  27  28
ATOM     28  C   UNL     1       1.783   0.144   4.648  0.00  0.00    -0.027 A 
ATOM     29  C   UNL     1       1.791   0.395   3.316  0.00  0.00    +0.009 A 
ATOM     30  C   UNL     1       2.939   0.901   2.736  0.00  0.00    +0.008 A 
ATOM     31  C   UNL     1       4.023   1.131   3.517  0.00  0.00    +0.045 A 
ATOM     32  S   UNL     1       3.432   0.634   5.126  0.00  0.00    -0.103 S 
ENDBRANCH  27  28
ENDBRANCH  25  27
BRANCH  25  33
ATOM     33  C   UNL     1       2.095  -2.149   6.322  0.00  0.00    -0.046 C 
BRANCH  33  34
ATOM     34  C   UNL     1       2.082  -1.527   7.720  0.00  0.00    +0.102 C 
ATOM     35  C   UNL     1       3.418  -1.818   8.435  0.00  0.00    +0.032 C 
ATOM     36  C   UNL     1       2.958  -2.101   9.891  0.00  0.00    +0.030 C 
ATOM     37  C   UNL     1       1.594  -2.791   9.639  0.00  0.00    +0.160 C 
ATOM     38  O   UNL     1       1.034  -2.112   8.502  0.00  0.00    -0.378 OA
ENDBRANCH  33  34
ENDBRANCH  25  33
ENDBRANCH   1  25
TORSDOF 8
