REMARK  Name = ZINC34830432
REMARK  11 active torsions:
REMARK  status: ('A' for Active; 'I' for Inactive)
REMARK    1  A    between atoms: C_1  and  C_2
REMARK    2  A    between atoms: C_2  and  C_3
REMARK    3  A    between atoms: C_3  and  C_4
REMARK    4  A    between atoms: C_4  and  C_5
REMARK    5  A    between atoms: C_5  and  C_6
REMARK    6  A    between atoms: C_6  and  C_7
REMARK    7  A    between atoms: C_16  and  C_18
REMARK    8  A    between atoms: C_18  and  C_20
REMARK    9  A    between atoms: C_18  and  N_21
REMARK   10  A    between atoms: C_29  and  C_31
REMARK   11  A    between atoms: C_36  and  C_37
REMARK                            x       y       z     vdW  Elec       q    Type
REMARK                         _______ _______ _______ _____ _____    ______ ____
ROOT
ATOM      1  C   UNL     1       0.900 -10.406  -4.028  0.00  0.00    +0.018 C 
ATOM      2  C   UNL     1      -0.452 -10.404  -3.311  0.00  0.00    -0.004 C 
ENDROOT
BRANCH   1  12
ATOM      3  C   UNL     1       1.955  -5.591  -7.075  0.00  0.00    +0.216 C 
ATOM      4  O   UNL     1       2.294  -5.381  -8.220  0.00  0.00    -0.276 OA
ATOM      5  N   UNL     1       2.130  -6.813  -6.533  0.00  0.00    -0.300 N 
ATOM      6  C   UNL     1       2.715  -7.876  -7.274  0.00  0.00    +0.109 C 
ATOM      7  C   UNL     1       1.717  -8.658  -8.189  0.00  0.00    +0.038 C 
ATOM      8  C   UNL     1       0.364  -8.770  -7.412  0.00  0.00    +0.109 C 
ATOM      9  N   UNL     1       0.501  -8.987  -6.014  0.00  0.00    -0.301 N 
ATOM     10  C   UNL     1       0.433  -7.791  -5.135  0.00  0.00    +0.126 C 
ATOM     11  C   UNL     1       1.727  -7.107  -5.134  0.00  0.00    +0.126 C 
ATOM     12  C   UNL     1       0.684 -10.223  -5.508  0.00  0.00    +0.202 C 
ATOM     13  O   UNL     1       0.675 -11.187  -6.244  0.00  0.00    -0.277 OA
BRANCH   3  14
ATOM     14  C   UNL     1       1.337  -4.487  -6.257  0.00  0.00    +0.096 C 
BRANCH  14  15
ATOM     15  C   UNL     1       1.253  -3.213  -7.101  0.00  0.00    +0.009 C 
BRANCH  15  16
ATOM     16  C   UNL     1       0.626  -2.091  -6.271  0.00  0.00    +0.000 C 
BRANCH  16  17
ATOM     17  C   UNL     1       0.541  -0.818  -7.115  0.00  0.00    -0.000 C 
BRANCH  17  19
ATOM     18  C   UNL     1      -0.170   1.577  -7.129  0.00  0.00    +0.004 C 
ATOM     19  C   UNL     1      -0.085   0.304  -6.285  0.00  0.00    -0.003 C 
ENDBRANCH  17  19
ENDBRANCH  16  17
ENDBRANCH  15  16
ENDBRANCH  14  15
ENDBRANCH   3  14
ENDBRANCH   1  12
BRANCH   1  20
ATOM     20  N   UNL     1       1.580 -11.686  -3.787  0.00  0.00    +0.395 N 
ATOM     21  C   UNL     1       0.725 -12.784  -4.261  0.00  0.00    -0.071 C 
ATOM     22  C   UNL     1       1.276 -14.113  -3.716  0.00  0.00    +0.024 C 
ATOM     23  C   UNL     1       2.749 -14.124  -3.962  0.00  0.00    -0.010 A 
ATOM     24  C   UNL     1       3.518 -13.057  -4.318  0.00  0.00    -0.047 A 
ATOM     25  C   UNL     1       4.877 -13.303  -4.500  0.00  0.00    +0.010 A 
ATOM     26  C   UNL     1       5.369 -14.552  -4.320  0.00  0.00    +0.045 A 
ATOM     27  S   UNL     1       3.900 -15.466  -3.872  0.00  0.00    -0.101 S 
ATOM     28  C   UNL     1       2.868 -11.688  -4.490  0.00  0.00    -0.005 C 
ATOM     29  H   UNL     1       1.741 -11.795  -2.797  0.00  0.00    -0.079 HD
BRANCH  28  30
ATOM     30  C   UNL     1       3.764 -10.626  -3.905  0.00  0.00    -0.054 A 
ATOM     31  C   UNL     1       3.596 -10.226  -2.592  0.00  0.00    +0.002 A 
ATOM     32  C   UNL     1       4.418  -9.253  -2.056  0.00  0.00    +0.000 A 
ATOM     33  C   UNL     1       5.407  -8.679  -2.833  0.00  0.00    +0.000 A 
ATOM     34  C   UNL     1       5.576  -9.079  -4.145  0.00  0.00    +0.003 A 
ATOM     35  C   UNL     1       4.757 -10.056  -4.680  0.00  0.00    -0.049 A 
ATOM     36  C   UNL     1       4.943 -10.496  -6.109  0.00  0.00    +0.044 C 
ENDBRANCH  28  30
ENDBRANCH   1  20
TORSDOF 8
