REMARK  Name = ZINC64539128
REMARK  4 active torsions:
REMARK  status: ('A' for Active; 'I' for Inactive)
REMARK    1  A    between atoms: C_6  and  C_11
REMARK    2  A    between atoms: C_17  and  C_19
REMARK    3  A    between atoms: C_23  and  C_26
REMARK    4  A    between atoms: N_28  and  C_29
REMARK                            x       y       z     vdW  Elec       q    Type
REMARK                         _______ _______ _______ _____ _____    ______ ____
ROOT
ATOM      1  C   UNL     1       5.119  -5.025   2.367  0.00  0.00    +0.149 C 
ATOM      2  N   UNL     1       5.829  -5.793   1.299  0.00  0.00    -0.240 NA
ATOM      3  N   UNL     1       7.059  -6.389   1.777  0.00  0.00    -0.234 NA
ATOM      4  C   UNL     1       7.056  -6.811   3.198  0.00  0.00    +0.214 C 
ATOM      5  S   UNL     1       5.429  -6.170   3.786  0.00  0.00    -0.110 S 
ATOM      6  H   UNL     1       5.224  -6.490   0.891  0.00  0.00    +0.142 HD
ATOM      7  H   UNL     1       7.353  -7.144   1.175  0.00  0.00    +0.142 HD
ENDROOT
BRANCH   1  14
ATOM      8  C   UNL     1       3.800  -2.807   0.689  0.00  0.00    +0.242 C 
ATOM      9  O   UNL     1       4.418  -2.240   1.564  0.00  0.00    -0.273 OA
ATOM     10  N   UNL     1       3.427  -4.092   0.851  0.00  0.00    -0.294 N 
ATOM     11  C   UNL     1       2.759  -4.928  -0.164  0.00  0.00    +0.108 C 
ATOM     12  C   UNL     1       2.014  -6.016   0.647  0.00  0.00    +0.021 C 
ATOM     13  C   UNL     1       3.016  -6.288   1.800  0.00  0.00    +0.026 C 
ATOM     14  C   UNL     1       3.624  -4.894   2.067  0.00  0.00    +0.104 C 
BRANCH   8  20
ATOM     15  C   UNL     1       1.039   1.889  -0.759  0.00  0.00    +0.001 A 
ATOM     16  C   UNL     1       2.349   2.388  -0.786  0.00  0.00    +0.002 A 
ATOM     17  C   UNL     1       3.435   1.587  -0.751  0.00  0.00    +0.026 A 
ATOM     18  C   UNL     1       3.284   0.175  -0.684  0.00  0.00    +0.043 A 
ATOM     19  N   UNL     1       4.164  -0.796  -0.642  0.00  0.00    -0.370 N 
ATOM     20  C   UNL     1       3.448  -2.075  -0.581  0.00  0.00    +0.190 C 
ATOM     21  C   UNL     1       1.976  -1.727  -0.593  0.00  0.00    +0.016 C 
ATOM     22  C   UNL     1       1.911  -0.377  -0.655  0.00  0.00    -0.004 A 
ATOM     23  C   UNL     1       0.784   0.563  -0.696  0.00  0.00    +0.010 A 
ATOM     24  H   UNL     1       5.128  -0.687  -0.650  0.00  0.00    +0.161 HD
ENDBRANCH   8  20
ENDBRANCH   1  14
BRANCH   4  25
ATOM     25  C   UNL     1       7.118  -8.312   3.313  0.00  0.00    +0.246 C 
ATOM     26  O   UNL     1       6.142  -8.934   3.678  0.00  0.00    -0.273 OA
ATOM     27  N   UNL     1       8.258  -8.965   3.011  0.00  0.00    -0.283 N 
ATOM     28  H   UNL     1       9.015  -8.477   2.651  0.00  0.00    +0.155 HD
BRANCH  27  29
ATOM     29  C   UNL     1       8.349 -10.346   3.215  0.00  0.00    +0.036 A 
ATOM     30  C   UNL     1       9.132 -11.125   2.373  0.00  0.00    +0.023 A 
ATOM     31  C   UNL     1       9.221 -12.488   2.576  0.00  0.00    +0.005 A 
ATOM     32  C   UNL     1       8.530 -13.079   3.618  0.00  0.00    +0.038 A 
ATOM     33  C   UNL     1       7.748 -12.307   4.461  0.00  0.00    +0.125 A 
ATOM     34  C   UNL     1       7.661 -10.940   4.264  0.00  0.00    +0.061 A 
ATOM     35  F   UNL     1       7.075 -12.888   5.478  0.00  0.00    -0.205 F 
ENDBRANCH  27  29
ENDBRANCH   4  25
TORSDOF 4
