REMARK  Name = ZINC55393129
REMARK  5 active torsions:
REMARK  status: ('A' for Active; 'I' for Inactive)
REMARK    1  A    between atoms: C_1  and  C_2
REMARK    2  A    between atoms: C_2  and  C_3
REMARK    3  A    between atoms: C_2  and  C_4
REMARK    4  A    between atoms: C_2  and  C_5
REMARK    5  A    between atoms: C_7  and  C_11
REMARK                            x       y       z     vdW  Elec       q    Type
REMARK                         _______ _______ _______ _____ _____    ______ ____
ROOT
ATOM      1  C   UNL     1       1.917  -2.997  -3.618  0.00  0.00    +0.159 A 
ATOM      2  N   UNL     1       2.631  -2.992  -4.787  0.00  0.00    -0.337 N 
ATOM      3  H   UNL     1       2.982  -2.212  -5.243  0.00  0.00    +0.167 HD
ATOM      4  C   UNL     1       2.756  -4.308  -5.195  0.00  0.00    +0.069 A 
ATOM      5  C   UNL     1       3.362  -4.920  -6.282  0.00  0.00    +0.055 A 
ATOM      6  C   UNL     1       3.312  -6.296  -6.412  0.00  0.00    +0.069 A 
ATOM      7  C   UNL     1       2.653  -7.074  -5.450  0.00  0.00    +0.069 A 
ATOM      8  C   UNL     1       2.047  -6.474  -4.365  0.00  0.00    +0.057 A 
ATOM      9  C   UNL     1       2.093  -5.083  -4.226  0.00  0.00    +0.092 A 
ATOM     10  N   UNL     1       1.609  -4.228  -3.291  0.00  0.00    -0.226 NA
ATOM     11  N   UNL     1       2.777  -8.403  -5.857  0.00  0.00    -0.306 N 
ATOM     12  H   UNL     1       2.420  -9.175  -5.390  0.00  0.00    +0.170 HD
ATOM     13  C   UNL     1       3.476  -8.432  -7.007  0.00  0.00    +0.325 A 
ATOM     14  O   UNL     1       3.760  -9.439  -7.627  0.00  0.00    -0.247 OA
ATOM     15  N   UNL     1       3.813  -7.180  -7.368  0.00  0.00    -0.306 N 
ATOM     16  H   UNL     1       4.318  -6.934  -8.158  0.00  0.00    +0.170 HD
ENDROOT
BRANCH   1  19
ATOM     17  C   UNL     1       0.707  -0.490  -1.238  0.00  0.00    +0.042 A 
ATOM     18  C   UNL     1       0.827  -1.776  -1.630  0.00  0.00    +0.056 A 
ATOM     19  C   UNL     1       1.555  -1.794  -2.837  0.00  0.00    +0.128 A 
ATOM     20  N   UNL     1       1.856  -0.549  -3.147  0.00  0.00    -0.171 NA
ATOM     21  N   UNL     1       1.326   0.286  -2.155  0.00  0.00    -0.280 N 
ATOM     22  H   UNL     1       1.393   1.253  -2.129  0.00  0.00    +0.189 HD
BRANCH  17  24
ATOM     23  C   UNL     1      -0.019   1.526   0.010  0.00  0.00    +0.017 C 
ATOM     24  C   UNL     1       0.002  -0.004   0.002  0.00  0.00    +0.004 C 
ATOM     25  C   UNL     1       0.742  -0.511   1.242  0.00  0.00    +0.017 C 
ATOM     26  C   UNL     1      -1.433  -0.534   0.013  0.00  0.00    +0.017 C 
ENDBRANCH  17  24
ENDBRANCH   1  19
TORSDOF 2
