REMARK  Name = ZINC41336469
REMARK  12 active torsions:
REMARK  status: ('A' for Active; 'I' for Inactive)
REMARK    1  A    between atoms: C_1  and  C_2
REMARK    2  A    between atoms: C_2  and  C_3
REMARK    3  A    between atoms: C_2  and  C_4
REMARK    4  A    between atoms: C_6  and  C_11
REMARK    5  A    between atoms: C_11  and  S_12
REMARK    6  A    between atoms: S_12  and  C_13
REMARK    7  A    between atoms: C_16  and  C_21
REMARK    8  A    between atoms: N_17  and  C_18
REMARK    9  A    between atoms: C_18  and  C_19
REMARK   10  A    between atoms: C_18  and  C_20
REMARK   11  A    between atoms: C_24  and  C_26
REMARK   12  A    between atoms: C_26  and  N_27
REMARK                            x       y       z     vdW  Elec       q    Type
REMARK                         _______ _______ _______ _____ _____    ______ ____
ROOT
ATOM      1  C   UNL     1      -5.877   1.759   3.446  0.00  0.00    +0.193 A 
ATOM      2  N   UNL     1      -6.729   2.385   2.666  0.00  0.00    -0.122 NA
ATOM      3  N   UNL     1      -7.548   3.080   3.372  0.00  0.00    -0.125 NA
ATOM      4  C   UNL     1      -7.268   2.941   4.649  0.00  0.00    +0.201 A 
ATOM      5  N   UNL     1      -6.192   2.085   4.736  0.00  0.00    -0.297 N 
ENDROOT
BRANCH   4   6
ATOM      6  C   UNL     1      -7.975   3.575   5.773  0.00  0.00    +0.172 A 
ATOM      7  C   UNL     1      -9.199   4.170   5.715  0.00  0.00    +0.053 A 
ATOM      8  C   UNL     1      -9.485   4.637   7.013  0.00  0.00    +0.047 A 
ATOM      9  C   UNL     1      -8.435   4.308   7.792  0.00  0.00    +0.127 A 
ATOM     10  O   UNL     1      -7.527   3.662   7.041  0.00  0.00    -0.455 OA
BRANCH   9  11
ATOM     11  C   UNL     1      -8.305   4.610   9.262  0.00  0.00    +0.217 C 
BRANCH  11  12
ATOM     12  N   UNL     1      -8.863   3.501  10.040  0.00  0.00    -0.264 N 
ATOM     13  C   UNL     1      -8.225   2.808  11.006  0.00  0.00    +0.109 A 
ATOM     14  C   UNL     1      -9.081   1.871  11.476  0.00  0.00    +0.041 A 
ATOM     15  C   UNL     1     -10.284   1.997  10.774  0.00  0.00    +0.134 A 
ATOM     16  N   UNL     1     -10.157   2.977   9.917  0.00  0.00    -0.179 NA
ENDBRANCH  11  12
ENDBRANCH   9  11
ENDBRANCH   4   6
BRANCH   5  17
ATOM     17  C   UNL     1      -5.524   1.624   5.955  0.00  0.00    +0.085 C 
ATOM     18  C   UNL     1      -5.609   0.099   6.037  0.00  0.00    +0.030 C 
ATOM     19  C   UNL     1      -4.055   2.052   5.924  0.00  0.00    +0.030 C 
ENDBRANCH   5  17
BRANCH   1  20
ATOM     20  S   UNL     1      -4.574   0.692   2.928  0.00  0.00    -0.080 S 
BRANCH  20  21
ATOM     21  C   UNL     1      -4.704   0.690   1.118  0.00  0.00    +0.133 C 
BRANCH  21  24
ATOM     22  C   UNL     1      -1.412  -0.526   0.013  0.00  0.00    +0.113 A 
ATOM     23  N   UNL     1      -2.364   0.220   0.507  0.00  0.00    -0.238 NA
ATOM     24  C   UNL     1      -3.631  -0.197   0.539  0.00  0.00    +0.059 A 
ATOM     25  C   UNL     1      -3.955  -1.426   0.048  0.00  0.00    +0.094 A 
ATOM     26  C   UNL     1      -2.927  -2.231  -0.486  0.00  0.00    +0.252 A 
ATOM     27  N   UNL     1      -1.666  -1.748  -0.493  0.00  0.00    -0.311 N 
ATOM     28  O   UNL     1      -3.174  -3.337  -0.936  0.00  0.00    -0.268 OA
ATOM     29  H   UNL     1      -0.944  -2.283  -0.859  0.00  0.00    +0.170 HD
BRANCH  22  31
ATOM     30  C   UNL     1      -0.019   1.526   0.010  0.00  0.00    +0.015 C 
ATOM     31  C   UNL     1       0.002  -0.004   0.002  0.00  0.00    +0.049 C 
ATOM     32  C   UNL     1       0.742  -0.511   1.242  0.00  0.00    +0.015 C 
ENDBRANCH  22  31
ENDBRANCH  21  24
ENDBRANCH  20  21
ENDBRANCH   1  20
TORSDOF 8
