REMARK  Name = ZINC12497709
REMARK  13 active torsions:
REMARK  status: ('A' for Active; 'I' for Inactive)
REMARK    1  A    between atoms: C_1  and  C_2
REMARK    2  A    between atoms: C_2  and  C_3
REMARK    3  A    between atoms: C_3  and  C_4
REMARK    4  A    between atoms: C_4  and  C_5
REMARK    5  A    between atoms: C_5  and  C_31
REMARK    6  A    between atoms: C_10  and  C_12
REMARK    7  A    between atoms: N_19  and  C_22
REMARK    8  A    between atoms: C_25  and  O_28
REMARK    9  A    between atoms: O_28  and  C_29
REMARK   10  A    between atoms: C_29  and  C_30
REMARK   11  A    between atoms: C_31  and  O_33
REMARK   12  A    between atoms: O_33  and  C_34
REMARK   13  A    between atoms: C_34  and  C_35
REMARK                            x       y       z     vdW  Elec       q    Type
REMARK                         _______ _______ _______ _____ _____    ______ ____
ROOT
ATOM      1  C   UNL     1      -1.413  -2.063   0.004  0.00  0.00    +0.044 C 
ATOM      2  C   UNL     1      -2.774  -2.606   0.148  0.00  0.00    +0.086 C 
ATOM      3  C   UNL     1      -2.488  -4.091   0.595  0.00  0.00    +0.078 C 
ATOM      4  C   UNL     1      -1.469  -3.807   1.685  0.00  0.00    -0.020 C 
ATOM      5  C   UNL     1      -3.898  -4.470   0.919  0.00  0.00    +0.229 C 
ATOM      6  O   UNL     1      -4.269  -5.232   1.786  0.00  0.00    -0.275 OA
ATOM      7  N   UNL     1      -4.684  -3.781   0.037  0.00  0.00    -0.210 N 
ATOM      8  C   UNL     1      -4.011  -2.760  -0.586  0.00  0.00    +0.229 C 
ATOM      9  O   UNL     1      -4.368  -2.126  -1.556  0.00  0.00    -0.275 OA
ATOM     10  N   UNL     1      -0.732  -2.600   1.224  0.00  0.00    +0.396 N 
ATOM     11  H   UNL     1      -0.736  -1.888   1.964  0.00  0.00    -0.083 HD
ATOM     12  H   UNL     1       0.237  -2.852   0.997  0.00  0.00    -0.083 HD
ENDROOT
BRANCH   7  13
ATOM     13  C   UNL     1      -6.033  -4.085  -0.204  0.00  0.00    +0.044 A 
ATOM     14  C   UNL     1      -6.763  -3.331  -1.112  0.00  0.00    +0.027 A 
ATOM     15  C   UNL     1      -8.088  -3.634  -1.353  0.00  0.00    +0.047 A 
ATOM     16  C   UNL     1      -8.693  -4.685  -0.680  0.00  0.00    +0.121 A 
ATOM     17  C   UNL     1      -7.966  -5.435   0.232  0.00  0.00    +0.047 A 
ATOM     18  C   UNL     1      -6.639  -5.136   0.470  0.00  0.00    +0.027 A 
BRANCH  16  19
ATOM     19  O   UNL     1     -10.000  -4.979  -0.914  0.00  0.00    -0.492 OA
BRANCH  19  20
ATOM     20  C   UNL     1     -10.688  -4.165  -1.866  0.00  0.00    +0.225 C 
ATOM     21  C   UNL     1     -12.136  -4.644  -1.994  0.00  0.00    +0.048 C 
ENDBRANCH  19  20
ENDBRANCH  16  19
ENDBRANCH   7  13
BRANCH   4  22
ATOM     22  C   UNL     1      -2.168  -3.528   2.991  0.00  0.00    -0.023 A 
ATOM     23  C   UNL     1      -2.331  -4.341   4.063  0.00  0.00    +0.009 A 
ATOM     24  C   UNL     1      -3.014  -3.867   5.167  0.00  0.00    +0.008 A 
ATOM     25  C   UNL     1      -3.501  -2.602   5.145  0.00  0.00    +0.045 A 
ATOM     26  S   UNL     1      -2.988  -2.037   3.531  0.00  0.00    -0.103 S 
ENDBRANCH   4  22
BRANCH   1  27
ATOM     27  C   UNL     1      -0.755  -2.581  -1.249  0.00  0.00    +0.297 C 
ATOM     28  O   UNL     1      -1.430  -2.896  -2.200  0.00  0.00    -0.252 OA
BRANCH  27  29
ATOM     29  O   UNL     1       0.582  -2.692  -1.308  0.00  0.00    -0.466 OA
BRANCH  29  30
ATOM     30  C   UNL     1       1.147  -3.198  -2.546  0.00  0.00    +0.228 C 
ATOM     31  C   UNL     1       2.671  -3.254  -2.426  0.00  0.00    +0.048 C 
ENDBRANCH  29  30
ENDBRANCH  27  29
ENDBRANCH   1  27
BRANCH   1  32
ATOM     32  C   UNL     1      -1.433  -0.534   0.013  0.00  0.00    -0.001 C 
BRANCH  32  33
ATOM     33  C   UNL     1       0.002  -0.004   0.002  0.00  0.00    -0.001 C 
BRANCH  33  35
ATOM     34  C   UNL     1       1.417   2.055  -0.000  0.00  0.00    +0.004 C 
ATOM     35  C   UNL     1      -0.019   1.526   0.010  0.00  0.00    -0.003 C 
ENDBRANCH  33  35
ENDBRANCH  32  33
ENDBRANCH   1  32
TORSDOF 10
