REMARK  Name = ZINC15783426
REMARK  8 active torsions:
REMARK  status: ('A' for Active; 'I' for Inactive)
REMARK    1  A    between atoms: C_1  and  C_2
REMARK    2  A    between atoms: C_2  and  C_3
REMARK    3  A    between atoms: C_2  and  C_4
REMARK    4  A    between atoms: C_4  and  C_5
REMARK    5  A    between atoms: C_19  and  S_20
REMARK    6  A    between atoms: S_20  and  C_21
REMARK    7  A    between atoms: C_21  and  C_22
REMARK    8  A    between atoms: N_24  and  C_25
REMARK                            x       y       z     vdW  Elec       q    Type
REMARK                         _______ _______ _______ _____ _____    ______ ____
ROOT
ATOM      1  C   UNL     1       7.246   0.260  -0.010  0.00  0.00    +0.194 C 
ATOM      2  C   UNL     1       5.735   0.176  -0.007  0.00  0.00    +0.251 C 
ATOM      3  O   UNL     1       5.056  -0.828  -0.014  0.00  0.00    -0.272 OA
ATOM      4  N   UNL     1       5.302   1.457   0.005  0.00  0.00    -0.200 N 
ATOM      5  C   UNL     1       6.378   2.328   0.009  0.00  0.00    +0.139 C 
ATOM      6  N   UNL     1       7.522   1.703   0.001  0.00  0.00    -0.255 NA
ATOM      7  C   UNL     1       6.078   3.776   0.022  0.00  0.00    +0.041 A 
ATOM      8  C   UNL     1       7.092   4.728   0.027  0.00  0.00    +0.013 A 
ATOM      9  C   UNL     1       6.766   6.068   0.038  0.00  0.00    +0.001 A 
ATOM     10  C   UNL     1       5.438   6.470   0.045  0.00  0.00    +0.002 A 
ATOM     11  C   UNL     1       4.420   5.542   0.041  0.00  0.00    +0.028 A 
ATOM     12  C   UNL     1       4.727   4.179   0.029  0.00  0.00    +0.077 A 
ATOM     13  N   UNL     1       3.750   3.237   0.018  0.00  0.00    -0.225 NA
ATOM     14  C   UNL     1       4.017   1.959   0.012  0.00  0.00    +0.169 C 
ENDROOT
BRANCH   1  15
ATOM     15  C   UNL     1       7.819  -0.386  -1.273  0.00  0.00    +0.039 C 
BRANCH  15  17
ATOM     16  C   UNL     1       9.924  -1.065  -2.436  0.00  0.00    +0.007 C 
ATOM     17  C   UNL     1       9.347  -0.311  -1.236  0.00  0.00    -0.015 C 
ATOM     18  C   UNL     1       9.787   1.153  -1.294  0.00  0.00    +0.007 C 
ENDBRANCH  15  17
ENDBRANCH   1  15
BRANCH  14  19
ATOM     19  S   UNL     1       2.671   0.821   0.006  0.00  0.00    -0.080 S 
BRANCH  19  20
ATOM     20  C   UNL     1       1.280   1.979   0.019  0.00  0.00    +0.173 C 
BRANCH  20  21
ATOM     21  C   UNL     1      -0.015   1.208   0.015  0.00  0.00    +0.228 C 
ATOM     22  O   UNL     1       0.001  -0.005   0.005  0.00  0.00    -0.275 OA
ATOM     23  N   UNL     1      -1.191   1.867   0.018  0.00  0.00    -0.284 N 
ATOM     24  H   UNL     1      -1.205   2.834   0.092  0.00  0.00    +0.155 HD
BRANCH  23  25
ATOM     25  C   UNL     1      -2.392   1.155  -0.086  0.00  0.00    +0.052 A 
ATOM     26  C   UNL     1      -2.510  -0.099   0.499  0.00  0.00    +0.025 A 
ATOM     27  C   UNL     1      -3.696  -0.799   0.395  0.00  0.00    +0.002 A 
ATOM     28  C   UNL     1      -4.766  -0.252  -0.291  0.00  0.00    +0.002 A 
ATOM     29  C   UNL     1      -4.652   0.996  -0.875  0.00  0.00    +0.022 A 
ATOM     30  C   UNL     1      -3.469   1.704  -0.770  0.00  0.00    +0.062 A 
ATOM     31 CL   UNL     1      -3.329   3.274  -1.497  0.00  0.00    -0.082 Cl
ENDBRANCH  23  25
ENDBRANCH  20  21
ENDBRANCH  19  20
ENDBRANCH  14  19
TORSDOF 6
