REMARK  Name = ZINC08916292
REMARK  7 active torsions:
REMARK  status: ('A' for Active; 'I' for Inactive)
REMARK    1  A    between atoms: C_1  and  C_2
REMARK    2  A    between atoms: C_5  and  C_8
REMARK    3  A    between atoms: C_8  and  C_10
REMARK    4  A    between atoms: C_11  and  N_19
REMARK    5  A    between atoms: C_20  and  C_22
REMARK    6  A    between atoms: C_29  and  C_34
REMARK    7  A    between atoms: C_30  and  C_33
REMARK                            x       y       z     vdW  Elec       q    Type
REMARK                         _______ _______ _______ _____ _____    ______ ____
ROOT
ATOM      1  C   UNL     1      -0.396  -2.113  -0.448  0.00  0.00    +0.197 A 
ATOM      2  C   UNL     1       0.918  -2.089  -0.020  0.00  0.00    +0.091 A 
ATOM      3  C   UNL     1       1.178  -0.703   0.385  0.00  0.00    +0.042 A 
ATOM      4  C   UNL     1       2.292  -0.036   0.899  0.00  0.00    +0.013 A 
ATOM      5  C   UNL     1       2.211   1.299   1.183  0.00  0.00    +0.001 A 
ATOM      6  C   UNL     1       1.030   1.993   0.964  0.00  0.00    +0.004 A 
ATOM      7  C   UNL     1      -0.081   1.352   0.458  0.00  0.00    +0.047 A 
ATOM      8  C   UNL     1      -0.022  -0.005   0.161  0.00  0.00    +0.138 A 
ATOM      9  O   UNL     1      -0.926  -0.875  -0.331  0.00  0.00    -0.450 OA
ENDROOT
BRANCH   2  10
ATOM     10  N   UNL     1       1.806  -3.153   0.018  0.00  0.00    -0.275 N 
ATOM     11  C   UNL     1       3.122  -2.939  -0.180  0.00  0.00    +0.284 C 
ATOM     12  O   UNL     1       3.542  -1.806  -0.306  0.00  0.00    -0.266 OA
ATOM     13  H   UNL     1       1.481  -4.051   0.186  0.00  0.00    +0.155 HD
BRANCH  11  14
ATOM     14  C   UNL     1       4.058  -4.086  -0.242  0.00  0.00    +0.194 A 
ATOM     15  C   UNL     1       5.375  -3.842  -0.442  0.00  0.00    +0.103 A 
ATOM     16  C   UNL     1       6.305  -4.980  -0.504  0.00  0.00    +0.193 A 
ATOM     17  O   UNL     1       7.500  -4.819  -0.680  0.00  0.00    -0.287 OA
ATOM     18  C   UNL     1       5.722  -6.325  -0.341  0.00  0.00    +0.064 A 
ATOM     19  C   UNL     1       6.517  -7.470  -0.383  0.00  0.00    +0.015 A 
ATOM     20  C   UNL     1       5.940  -8.700  -0.227  0.00  0.00    +0.004 A 
ATOM     21  C   UNL     1       4.571  -8.815  -0.029  0.00  0.00    -0.044 A 
ATOM     22  C   UNL     1       3.770  -7.694   0.016  0.00  0.00    -0.005 A 
ATOM     23  C   UNL     1       4.335  -6.432  -0.140  0.00  0.00    +0.143 A 
ATOM     24  O   UNL     1       3.568  -5.326  -0.094  0.00  0.00    -0.450 OA
ATOM     25  C   UNL     1       2.285  -7.836   0.233  0.00  0.00    +0.048 C 
ATOM     26  C   UNL     1       3.954 -10.179   0.140  0.00  0.00    +0.044 C 
ENDBRANCH  11  14
ENDBRANCH   2  10
BRANCH   1  27
ATOM     27  C   UNL     1      -1.079  -3.255  -0.933  0.00  0.00    +0.230 C 
ATOM     28  O   UNL     1      -0.475  -4.299  -1.105  0.00  0.00    -0.283 OA
BRANCH  27  33
ATOM     29  C   UNL     1      -6.711  -2.965  -2.085  0.00  0.00    +0.044 C 
ATOM     30  C   UNL     1      -5.236  -3.041  -1.784  0.00  0.00    -0.050 A 
ATOM     31  C   UNL     1      -4.524  -4.181  -2.111  0.00  0.00    +0.004 A 
ATOM     32  C   UNL     1      -3.174  -4.258  -1.837  0.00  0.00    +0.012 A 
ATOM     33  C   UNL     1      -2.527  -3.181  -1.229  0.00  0.00    +0.025 A 
ATOM     34  C   UNL     1      -3.252  -2.036  -0.896  0.00  0.00    +0.012 A 
ATOM     35  C   UNL     1      -4.601  -1.971  -1.180  0.00  0.00    +0.004 A 
ENDBRANCH  27  33
ENDBRANCH   1  27
TORSDOF 4
