REMARK  Name = ZINC39669739
REMARK  9 active torsions:
REMARK  status: ('A' for Active; 'I' for Inactive)
REMARK    1  A    between atoms: C_1  and  C_2
REMARK    2  A    between atoms: C_2  and  C_3
REMARK    3  A    between atoms: C_2  and  C_4
REMARK    4  A    between atoms: C_2  and  N_34
REMARK    5  A    between atoms: C_4  and  N_5
REMARK    6  A    between atoms: C_6  and  C_8
REMARK    7  A    between atoms: C_19  and  C_21
REMARK    8  A    between atoms: C_26  and  S_27
REMARK    9  A    between atoms: S_27  and  C_28
REMARK                            x       y       z     vdW  Elec       q    Type
REMARK                         _______ _______ _______ _____ _____    ______ ____
ROOT
ATOM      1  C   UNL     1      -3.293  -4.502  -0.085  0.00  0.00    +0.100 C 
ATOM      2  C   UNL     1      -2.802  -5.171   1.218  0.00  0.00    +0.121 C 
ATOM      3  N   UNL     1      -4.031  -5.370   2.022  0.00  0.00    -0.296 N 
ATOM      4  C   UNL     1      -5.056  -5.781   1.033  0.00  0.00    +0.115 C 
ATOM      5  C   UNL     1      -4.771  -4.907  -0.205  0.00  0.00    -0.004 C 
ATOM      6  C   UNL     1      -5.662  -3.668  -0.191  0.00  0.00    -0.010 C 
ATOM      7  C   UNL     1      -7.122  -4.093  -0.369  0.00  0.00    -0.082 C 
ATOM      8  N   UNL     1      -7.273  -4.815  -1.638  0.00  0.00    +0.379 N 
ATOM      9  C   UNL     1      -6.485  -6.053  -1.607  0.00  0.00    -0.082 C 
ATOM     10  C   UNL     1      -4.998  -5.711  -1.482  0.00  0.00    -0.010 C 
ATOM     11  C   UNL     1      -4.183  -5.214   3.352  0.00  0.00    +0.249 C 
ATOM     12  O   UNL     1      -3.267  -4.775   4.021  0.00  0.00    -0.270 OA
ATOM     13  H   UNL     1      -8.246  -5.040  -1.782  0.00  0.00    -0.086 HD
ATOM     14  H   UNL     1      -6.951  -4.231  -2.395  0.00  0.00    -0.086 HD
ENDROOT
BRANCH  11  15
ATOM     15  C   UNL     1      -5.458  -5.576   3.996  0.00  0.00    +0.069 A 
ATOM     16  C   UNL     1      -6.205  -6.667   3.535  0.00  0.00    +0.017 A 
ATOM     17  C   UNL     1      -7.395  -6.966   4.174  0.00  0.00    +0.020 A 
ATOM     18  C   UNL     1      -7.811  -6.187   5.240  0.00  0.00    +0.112 A 
ATOM     19  N   UNL     1      -7.094  -5.163   5.660  0.00  0.00    -0.248 NA
ATOM     20  C   UNL     1      -5.944  -4.836   5.088  0.00  0.00    +0.114 A 
BRANCH  20  21
ATOM     21  S   UNL     1      -5.023  -3.462   5.695  0.00  0.00    -0.069 S 
BRANCH  21  22
ATOM     22  C   UNL     1      -5.916  -2.948   7.124  0.00  0.00    +0.014 A 
ATOM     23  C   UNL     1      -5.540  -3.403   8.382  0.00  0.00    +0.015 A 
ATOM     24  C   UNL     1      -6.242  -2.997   9.500  0.00  0.00    +0.001 A 
ATOM     25  C   UNL     1      -7.319  -2.140   9.368  0.00  0.00    +0.000 A 
ATOM     26  C   UNL     1      -7.697  -1.686   8.118  0.00  0.00    +0.001 A 
ATOM     27  C   UNL     1      -6.996  -2.082   6.996  0.00  0.00    +0.015 A 
ENDBRANCH  21  22
ENDBRANCH  20  21
ENDBRANCH  11  15
BRANCH   1  29
ATOM     28  N   UNL     1      -2.936  -2.271  -1.094  0.00  0.00    -0.313 N 
ATOM     29  C   UNL     1      -3.166  -3.003   0.014  0.00  0.00    +0.218 C 
ATOM     30  O   UNL     1      -3.272  -2.456   1.091  0.00  0.00    -0.275 OA
ATOM     31  H   UNL     1      -2.851  -2.709  -1.955  0.00  0.00    +0.149 HD
BRANCH  28  32
ATOM     32  C   UNL     1      -2.812  -0.815  -0.997  0.00  0.00    +0.126 C 
BRANCH  32  34
ATOM     33  C   UNL     1      -2.678   1.308  -2.308  0.00  0.00    +0.029 C 
ATOM     34  C   UNL     1      -2.679  -0.220  -2.400  0.00  0.00    +0.032 C 
ATOM     35  C   UNL     1      -1.368  -0.693  -3.032  0.00  0.00    +0.029 C 
BRANCH  34  36
ATOM     36  N   UNL     1      -3.809  -0.660  -3.228  0.00  0.00    -0.291 NA
ATOM     37  C   UNL     1      -3.615  -0.274  -4.633  0.00  0.00    +0.113 C 
ATOM     38  C   UNL     1      -4.783  -0.803  -5.469  0.00  0.00    +0.175 C 
ATOM     39  O   UNL     1      -6.011  -0.301  -4.934  0.00  0.00    -0.377 OA
ATOM     40  C   UNL     1      -6.233  -0.659  -3.568  0.00  0.00    +0.175 C 
ATOM     41  C   UNL     1      -5.079  -0.128  -2.713  0.00  0.00    +0.113 C 
ENDBRANCH  34  36
ENDBRANCH  32  34
ENDBRANCH  28  32
ENDBRANCH   1  29
TORSDOF 7
