REMARK  Name = ZINC59170627
REMARK  7 active torsions:
REMARK  status: ('A' for Active; 'I' for Inactive)
REMARK    1  A    between atoms: C_1  and  C_2
REMARK    2  A    between atoms: C_2  and  C_3
REMARK    3  A    between atoms: C_6  and  N_9
REMARK    4  A    between atoms: C_10  and  C_12
REMARK    5  A    between atoms: N_22  and  C_23
REMARK    6  A    between atoms: C_26  and  S_29
REMARK    7  A    between atoms: S_29  and  N_32
REMARK                            x       y       z     vdW  Elec       q    Type
REMARK                         _______ _______ _______ _____ _____    ______ ____
ROOT
ATOM      1  C   UNL     1       4.684  -2.266  -5.917  0.00  0.00    +0.098 A 
ATOM      2  C   UNL     1       6.053  -2.501  -5.913  0.00  0.00    +0.030 A 
ATOM      3  C   UNL     1       6.668  -2.918  -7.175  0.00  0.00    +0.020 A 
ATOM      4  C   UNL     1       7.971  -3.429  -7.203  0.00  0.00    +0.031 A 
ATOM      5  C   UNL     1       8.525  -3.817  -8.403  0.00  0.00    +0.042 A 
ATOM      6  C   UNL     1       7.797  -3.705  -9.580  0.00  0.00    +0.023 A 
ATOM      7  C   UNL     1       6.512  -3.202  -9.568  0.00  0.00    +0.048 A 
ATOM      8  C   UNL     1       5.935  -2.804  -8.372  0.00  0.00    +0.138 A 
ATOM      9  O   UNL     1       4.676  -2.301  -8.346  0.00  0.00    -0.439 OA
ATOM     10  C   UNL     1       3.972  -2.465  -7.195  0.00  0.00    +0.212 A 
ATOM     11  N   UNL     1       2.696  -2.784  -7.217  0.00  0.00    -0.325 N 
ATOM     12 CL   UNL     1      10.141  -4.450  -8.443  0.00  0.00    -0.084 Cl
ATOM     13  H   UNL     1       2.236  -3.000  -6.391  0.00  0.00    +0.169 HD
ENDROOT
BRANCH  11  14
ATOM     14  C   UNL     1       2.019  -2.813  -8.405  0.00  0.00    +0.042 A 
ATOM     15  C   UNL     1       2.180  -1.778  -9.330  0.00  0.00    +0.027 A 
ATOM     16  C   UNL     1       1.494  -1.814 -10.526  0.00  0.00    +0.030 A 
ATOM     17  C   UNL     1       0.647  -2.870 -10.810  0.00  0.00    +0.105 A 
ATOM     18  C   UNL     1       0.482  -3.898  -9.899  0.00  0.00    +0.030 A 
ATOM     19  C   UNL     1       1.167  -3.880  -8.702  0.00  0.00    +0.027 A 
BRANCH  17  20
ATOM     20  S   UNL     1      -0.226  -2.907 -12.340  0.00  0.00    +0.056 S 
ATOM     21  O   UNL     1      -1.370  -3.724 -12.136  0.00  0.00    -0.153 OA
ATOM     22  O   UNL     1      -0.320  -1.561 -12.786  0.00  0.00    -0.153 OA
BRANCH  20  23
ATOM     23  N   UNL     1       0.733  -3.701 -13.432  0.00  0.00    -0.204 NA
ATOM     24  H   UNL     1       1.601  -4.040 -13.160  0.00  0.00    +0.144 HD
ATOM     25  H   UNL     1       0.428  -3.827 -14.344  0.00  0.00    +0.144 HD
ENDBRANCH  20  23
ENDBRANCH  17  20
ENDBRANCH  11  14
BRANCH   1  27
ATOM     26  N   UNL     1       2.674  -1.492  -4.764  0.00  0.00    -0.281 N 
ATOM     27  C   UNL     1       3.973  -1.844  -4.698  0.00  0.00    +0.253 C 
ATOM     28  O   UNL     1       4.559  -1.813  -3.633  0.00  0.00    -0.270 OA
ATOM     29  H   UNL     1       2.193  -1.568  -5.603  0.00  0.00    +0.155 HD
BRANCH  26  33
ATOM     30  C   UNL     1       0.724  -0.081  -1.364  0.00  0.00    -0.048 A 
ATOM     31  C   UNL     1       0.402   0.432  -2.607  0.00  0.00    +0.005 A 
ATOM     32  C   UNL     1       1.047  -0.033  -3.736  0.00  0.00    +0.023 A 
ATOM     33  C   UNL     1       2.020  -1.018  -3.623  0.00  0.00    +0.034 A 
ATOM     34  C   UNL     1       2.341  -1.532  -2.373  0.00  0.00    +0.023 A 
ATOM     35  C   UNL     1       1.696  -1.058  -1.247  0.00  0.00    +0.005 A 
BRANCH  30  37
ATOM     36  C   UNL     1       0.786   1.622   0.436  0.00  0.00    +0.009 C 
ATOM     37  C   UNL     1       0.018   0.429  -0.135  0.00  0.00    +0.032 C 
ENDBRANCH  30  37
ENDBRANCH  26  33
ENDBRANCH   1  27
TORSDOF 6
