REMARK  Name = ZINC04236598
REMARK  12 active torsions:
REMARK  status: ('A' for Active; 'I' for Inactive)
REMARK    1  A    between atoms: C_1  and  C_2
REMARK    2  A    between atoms: C_5  and  O_31
REMARK    3  A    between atoms: C_7  and  C_28
REMARK    4  A    between atoms: C_7  and  C_29
REMARK    5  A    between atoms: C_12  and  O_27
REMARK    6  A    between atoms: C_14  and  C_16
REMARK    7  A    between atoms: C_16  and  C_17
REMARK    8  A    between atoms: N_19  and  C_20
REMARK    9  A    between atoms: C_20  and  C_21
REMARK   10  A    between atoms: C_29  and  O_30
REMARK   11  A    between atoms: O_31  and  C_32
REMARK   12  A    between atoms: N_34  and  C_35
REMARK                            x       y       z     vdW  Elec       q    Type
REMARK                         _______ _______ _______ _____ _____    ______ ____
ROOT
ATOM      1  C   UNL     1       0.666   4.122   1.525  0.00  0.00    +0.012 C 
ATOM      2  C   UNL     1      -0.769   3.592   1.536  0.00  0.00    -0.023 C 
ATOM      3  C   UNL     1      -1.493   4.054   0.269  0.00  0.00    +0.011 C 
ATOM      4  C   UNL     1      -0.761   3.517  -0.962  0.00  0.00    +0.046 C 
ATOM      5  C   UNL     1      -0.740   1.988  -0.916  0.00  0.00    +0.186 C 
ATOM      6  C   UNL     1      -0.016   1.526   0.351  0.00  0.00    +0.031 C 
ATOM      7  C   UNL     1      -0.749   2.063   1.582  0.00  0.00    +0.007 C 
ATOM      8  C   UNL     1      -0.025   1.601   2.848  0.00  0.00    +0.007 C 
ATOM      9  C   UNL     1      -0.757   2.138   4.079  0.00  0.00    +0.032 C 
ATOM     10  C   UNL     1      -0.778   3.667   4.033  0.00  0.00    +0.119 C 
ATOM     11  C   UNL     1      -1.502   4.129   2.767  0.00  0.00    +0.032 C 
ATOM     12  C   UNL     1       0.005  -0.004   0.397  0.00  0.00    +0.017 C 
ENDROOT
BRANCH  10  13
ATOM     13  O   UNL     1       0.562   4.162   4.023  0.00  0.00    -0.391 OA
ATOM     14  H   UNL     1       1.081   3.907   4.798  0.00  0.00    +0.210 HD
ENDBRANCH  10  13
BRANCH  11  15
ATOM     15  C   UNL     1      -1.523   5.659   2.720  0.00  0.00    +0.102 C 
BRANCH  15  16
ATOM     16  C   UNL     1      -2.349   6.184   3.866  0.00  0.00    +0.214 C 
ATOM     17  O   UNL     1      -2.869   5.412   4.643  0.00  0.00    -0.276 OA
ATOM     18  N   UNL     1      -2.509   7.513   4.027  0.00  0.00    -0.311 N 
ATOM     19  H   UNL     1      -2.092   8.130   3.406  0.00  0.00    +0.149 HD
BRANCH  18  20
ATOM     20  C   UNL     1      -3.312   8.024   5.141  0.00  0.00    +0.139 C 
BRANCH  20  21
ATOM     21  C   UNL     1      -3.332   9.530   5.096  0.00  0.00    -0.030 A 
ATOM     22  C   UNL     1      -2.367  10.255   5.769  0.00  0.00    +0.005 A 
ATOM     23  C   UNL     1      -2.383  11.637   5.724  0.00  0.00    +0.000 A 
ATOM     24  C   UNL     1      -3.371  12.293   5.013  0.00  0.00    +0.000 A 
ATOM     25  C   UNL     1      -4.339  11.569   4.344  0.00  0.00    +0.000 A 
ATOM     26  C   UNL     1      -4.320  10.187   4.386  0.00  0.00    +0.005 A 
ENDBRANCH  20  21
ENDBRANCH  18  20
ENDBRANCH  15  16
ENDBRANCH  11  15
BRANCH   6  27
ATOM     27  C   UNL     1       1.419   2.055   0.340  0.00  0.00    +0.166 C 
BRANCH  27  28
ATOM     28  O   UNL     1       2.160   1.403  -0.694  0.00  0.00    -0.394 OA
ATOM     29  H   UNL     1       3.081   1.690  -0.759  0.00  0.00    +0.209 HD
ENDBRANCH  27  28
ENDBRANCH   6  27
BRANCH   5  30
ATOM     30  O   UNL     1      -0.045   1.478  -2.084  0.00  0.00    -0.446 OA
BRANCH  30  31
ATOM     31  C   UNL     1      -0.789   1.231  -3.179  0.00  0.00    +0.401 C 
ATOM     32  O   UNL     1      -1.986   1.436  -3.158  0.00  0.00    -0.226 OA
ATOM     33  N   UNL     1      -0.205   0.756  -4.297  0.00  0.00    -0.278 N 
ATOM     34  H   UNL     1       0.751   0.593  -4.313  0.00  0.00    +0.152 HD
BRANCH  33  35
ATOM     35  C   UNL     1      -1.015   0.487  -5.488  0.00  0.00    +0.076 C 
ATOM     36  C   UNL     1      -1.622  -0.913  -5.386  0.00  0.00    +0.022 C 
ATOM     37  C   UNL     1      -2.467  -1.194  -6.630  0.00  0.00    +0.002 C 
ATOM     38  C   UNL     1      -1.584  -1.110  -7.877  0.00  0.00    +0.000 C 
ATOM     39  C   UNL     1      -0.977   0.291  -7.979  0.00  0.00    +0.002 C 
ATOM     40  C   UNL     1      -0.132   0.571  -6.735  0.00  0.00    +0.022 C 
ENDBRANCH  33  35
ENDBRANCH  30  31
ENDBRANCH   5  30
TORSDOF 10
