REMARK  Name = ZINC35862552
REMARK  12 active torsions:
REMARK  status: ('A' for Active; 'I' for Inactive)
REMARK    1  A    between atoms: C_1  and  C_2
REMARK    2  A    between atoms: C_5  and  C_8
REMARK    3  A    between atoms: C_12  and  O_26
REMARK    4  A    between atoms: C_19  and  C_21
REMARK    5  A    between atoms: O_26  and  C_27
REMARK    6  A    between atoms: C_27  and  C_28
REMARK    7  A    between atoms: C_30  and  C_33
REMARK    8  A    between atoms: N_35  and  C_36
REMARK    9  A    between atoms: C_36  and  C_37
REMARK   10  A    between atoms: C_37  and  N_38
REMARK   11  A    between atoms: N_38  and  C_39
REMARK   12  A    between atoms: N_38  and  C_40
REMARK                            x       y       z     vdW  Elec       q    Type
REMARK                         _______ _______ _______ _____ _____    ______ ____
ROOT
ATOM      1  C   UNL     1       0.034  -4.266   0.011  0.00  0.00    +0.137 C 
ATOM      2  C   UNL     1      -1.317  -4.813   0.397  0.00  0.00    -0.016 A 
ATOM      3  C   UNL     1      -2.435  -4.270  -0.221  0.00  0.00    +0.051 A 
ATOM      4  C   UNL     1      -3.702  -4.738   0.084  0.00  0.00    +0.122 A 
ATOM      5  C   UNL     1      -3.851  -5.758   1.013  0.00  0.00    +0.046 A 
ATOM      6  C   UNL     1      -2.739  -6.292   1.627  0.00  0.00    +0.007 A 
ATOM      7  C   UNL     1      -1.467  -5.819   1.326  0.00  0.00    -0.040 A 
ATOM      8  C   UNL     1      -0.303  -6.434   2.058  0.00  0.00    +0.054 C 
ATOM      9  C   UNL     1       1.005  -6.182   1.309  0.00  0.00    +0.113 C 
ATOM     10  N   UNL     1       1.051  -4.756   0.947  0.00  0.00    -0.290 N 
ATOM     11  C   UNL     1       1.990  -3.934   1.455  0.00  0.00    +0.219 C 
ATOM     12  O   UNL     1       1.973  -2.752   1.183  0.00  0.00    -0.275 OA
ENDROOT
BRANCH   1  17
ATOM     13  C   UNL     1      -0.109   1.509   0.181  0.00  0.00    +0.044 C 
ATOM     14  C   UNL     1      -0.072   0.003   0.136  0.00  0.00    -0.050 A 
ATOM     15  C   UNL     1      -0.429  -0.731   1.252  0.00  0.00    +0.004 A 
ATOM     16  C   UNL     1      -0.395  -2.112   1.211  0.00  0.00    +0.006 A 
ATOM     17  C   UNL     1      -0.004  -2.760   0.055  0.00  0.00    -0.023 A 
ATOM     18  C   UNL     1       0.353  -2.026  -1.061  0.00  0.00    +0.006 A 
ATOM     19  C   UNL     1       0.315  -0.645  -1.022  0.00  0.00    +0.004 A 
ENDBRANCH   1  17
BRANCH  11  20
ATOM     20  C   UNL     1       3.062  -4.483   2.360  0.00  0.00    +0.075 C 
ATOM     21  C   UNL     1       2.427  -5.057   3.644  0.00  0.00    +0.013 C 
ATOM     22  C   UNL     1       3.435  -4.691   4.762  0.00  0.00    +0.001 C 
ATOM     23  C   UNL     1       3.914  -3.279   4.342  0.00  0.00    +0.001 C 
ATOM     24  C   UNL     1       4.008  -3.353   2.804  0.00  0.00    +0.013 C 
ENDBRANCH  11  20
BRANCH   4  25
ATOM     25  O   UNL     1      -4.793  -4.201  -0.522  0.00  0.00    -0.483 OA
BRANCH  25  26
ATOM     26  C   UNL     1      -6.067  -4.735  -0.157  0.00  0.00    +0.324 C 
BRANCH  26  27
ATOM     27  C   UNL     1      -7.150  -4.022  -0.925  0.00  0.00    +0.234 A 
ATOM     28  N   UNL     1      -7.616  -4.386  -2.082  0.00  0.00    -0.206 NA
ATOM     29  C   UNL     1      -8.580  -3.502  -2.457  0.00  0.00    +0.164 A 
ATOM     30  C   UNL     1      -8.680  -2.575  -1.465  0.00  0.00    +0.230 A 
ATOM     31  O   UNL     1      -7.789  -2.915  -0.520  0.00  0.00    -0.444 OA
BRANCH  29  32
ATOM     32  C   UNL     1      -9.368  -3.541  -3.702  0.00  0.00    +0.265 C 
ATOM     33  O   UNL     1     -10.204  -2.685  -3.919  0.00  0.00    -0.268 OA
ATOM     34  N   UNL     1      -9.161  -4.524  -4.600  0.00  0.00    -0.312 N 
ATOM     35  H   UNL     1      -8.494  -5.207  -4.427  0.00  0.00    +0.149 HD
BRANCH  34  36
ATOM     36  C   UNL     1      -9.944  -4.563  -5.838  0.00  0.00    +0.086 C 
BRANCH  36  37
ATOM     37  C   UNL     1      -9.516  -5.770  -6.675  0.00  0.00    -0.061 C 
BRANCH  37  38
ATOM     38  N   UNL     1     -10.301  -5.808  -7.916  0.00  0.00    +0.377 N 
ATOM     39  C   UNL     1      -9.979  -4.633  -8.736  0.00  0.00    -0.097 C 
ATOM     40  C   UNL     1      -9.976  -7.030  -8.663  0.00  0.00    -0.097 C 
ATOM     41  H   UNL     1     -11.285  -5.802  -7.692  0.00  0.00    -0.083 HD
ENDBRANCH  37  38
ENDBRANCH  36  37
ENDBRANCH  34  36
ENDBRANCH  29  32
ENDBRANCH  26  27
ENDBRANCH  25  26
ENDBRANCH   4  25
TORSDOF 9
