REMARK  Name = ZINC43480434
REMARK  4 active torsions:
REMARK  status: ('A' for Active; 'I' for Inactive)
REMARK    1  A    between atoms: C_5  and  C_7
REMARK    2  A    between atoms: C_7  and  C_8
REMARK    3  A    between atoms: C_8  and  N_9
REMARK    4  A    between atoms: C_16  and  C_18
REMARK                            x       y       z     vdW  Elec       q    Type
REMARK                         _______ _______ _______ _____ _____    ______ ____
ROOT
ATOM      1  N   UNL     1       1.394  -4.168   1.402  0.00  0.00    -0.299 N 
ATOM      2  C   UNL     1       1.516  -4.847   2.560  0.00  0.00    +0.303 C 
ATOM      3  O   UNL     1       1.610  -4.244   3.611  0.00  0.00    -0.253 OA
ATOM      4  N   UNL     1       1.534  -6.194   2.552  0.00  0.00    -0.277 N 
ATOM      5  C   UNL     1       1.436  -7.048   1.354  0.00  0.00    +0.110 C 
ATOM      6  C   UNL     1       0.889  -8.400   1.875  0.00  0.00    +0.021 C 
ATOM      7  C   UNL     1       1.604  -8.519   3.246  0.00  0.00    +0.031 C 
ATOM      8  C   UNL     1       1.661  -7.056   3.736  0.00  0.00    +0.133 C 
ATOM      9  H   UNL     1       1.319  -4.649   0.563  0.00  0.00    +0.150 HD
ENDROOT
BRANCH   8  10
ATOM     10  C   UNL     1       2.977  -6.794   4.422  0.00  0.00    +0.100 A 
ATOM     11  N   UNL     1       4.146  -6.638   3.873  0.00  0.00    -0.242 NA
ATOM     12  C   UNL     1       5.257  -6.405   4.601  0.00  0.00    +0.079 A 
ATOM     13  C   UNL     1       6.591  -6.214   4.182  0.00  0.00    +0.029 A 
ATOM     14  C   UNL     1       7.577  -5.990   5.093  0.00  0.00    +0.002 A 
ATOM     15  C   UNL     1       7.313  -5.944   6.455  0.00  0.00    +0.001 A 
ATOM     16  C   UNL     1       6.018  -6.126   6.904  0.00  0.00    +0.017 A 
ATOM     17  C   UNL     1       5.015  -6.352   5.992  0.00  0.00    +0.039 A 
ATOM     18  S   UNL     1       3.265  -6.629   6.072  0.00  0.00    -0.070 S 
ENDBRANCH   8  10
BRANCH   1  19
ATOM     19  C   UNL     1       1.375  -2.703   1.411  0.00  0.00    +0.110 C 
BRANCH  19  20
ATOM     20  C   UNL     1       1.228  -2.186  -0.022  0.00  0.00    +0.057 C 
BRANCH  20  25
ATOM     21  C   UNL     1      -0.017   1.378   0.010  0.00  0.00    +0.000 A 
ATOM     22  C   UNL     1       1.171   2.087   0.002  0.00  0.00    +0.003 A 
ATOM     23  C   UNL     1       2.377   1.414  -0.013  0.00  0.00    +0.038 A 
ATOM     24  C   UNL     1       2.397   0.029  -0.021  0.00  0.00    +0.127 A 
ATOM     25  C   UNL     1       1.208  -0.679  -0.013  0.00  0.00    -0.011 A 
ATOM     26  C   UNL     1       0.002  -0.004   0.002  0.00  0.00    +0.006 A 
ATOM     27  F   UNL     1       3.577  -0.630  -0.036  0.00  0.00    -0.205 F 
ENDBRANCH  20  25
ENDBRANCH  19  20
ENDBRANCH   1  19
TORSDOF 4
