REMARK  Name = ZINC04473496
REMARK  7 active torsions:
REMARK  status: ('A' for Active; 'I' for Inactive)
REMARK    1  A    between atoms: C_1  and  C_2
REMARK    2  A    between atoms: C_2  and  C_3
REMARK    3  A    between atoms: C_2  and  C_4
REMARK    4  A    between atoms: C_2  and  C_5
REMARK    5  A    between atoms: C_12  and  N_23
REMARK    6  A    between atoms: C_13  and  C_21
REMARK    7  A    between atoms: C_14  and  C_16
REMARK                            x       y       z     vdW  Elec       q    Type
REMARK                         _______ _______ _______ _____ _____    ______ ____
ROOT
ATOM      1  C   UNL     1       1.045  -0.626  -1.929  0.00  0.00    +0.076 A 
ATOM      2  C   UNL     1       1.096  -2.013  -1.891  0.00  0.00    +0.050 A 
ATOM      3  C   UNL     1       1.923  -2.434  -2.896  0.00  0.00    +0.223 A 
ATOM      4  N   UNL     1       2.369  -1.342  -3.538  0.00  0.00    -0.246 N 
ATOM      5  H   UNL     1       2.973  -1.333  -4.297  0.00  0.00    +0.192 HD
ATOM      6  N   UNL     1       1.803  -0.217  -2.919  0.00  0.00    -0.175 NA
ATOM      7  O   UNL     1       2.187  -3.744  -3.126  0.00  0.00    -0.423 OA
ATOM      8  C   UNL     1       1.835  -4.629  -2.171  0.00  0.00    +0.200 C 
ATOM      9  C   UNL     1       1.016  -4.335  -1.137  0.00  0.00    +0.099 C 
ATOM     10  C   UNL     1       0.403  -2.968  -0.954  0.00  0.00    +0.108 C 
ENDROOT
BRANCH  10  11
ATOM     11  C   UNL     1      -1.067  -3.022  -1.278  0.00  0.00    +0.003 A 
ATOM     12  C   UNL     1      -2.129  -2.961  -0.438  0.00  0.00    +0.012 A 
ATOM     13  C   UNL     1      -3.405  -3.029  -0.965  0.00  0.00    +0.008 A 
ATOM     14  C   UNL     1      -3.557  -3.155  -2.305  0.00  0.00    +0.045 A 
ATOM     15  S   UNL     1      -1.863  -3.173  -2.869  0.00  0.00    -0.101 S 
ENDBRANCH  10  11
BRANCH   1  17
ATOM     16  C   UNL     1      -1.242   0.068  -1.269  0.00  0.00    +0.017 C 
ATOM     17  C   UNL     1       0.252   0.256  -0.999  0.00  0.00    +0.007 C 
ATOM     18  C   UNL     1       0.633   1.718  -1.234  0.00  0.00    +0.017 C 
ATOM     19  C   UNL     1       0.560  -0.125   0.451  0.00  0.00    +0.017 C 
ENDBRANCH   1  17
BRANCH   8  20
ATOM     20  N   UNL     1       2.339  -5.903  -2.254  0.00  0.00    -0.328 N 
ATOM     21  H   UNL     1       2.930  -6.145  -2.984  0.00  0.00    +0.145 HD
ATOM     22  H   UNL     1       2.104  -6.562  -1.582  0.00  0.00    +0.145 HD
ENDBRANCH   8  20
BRANCH   9  23
ATOM     23  C   UNL     1       0.718  -5.358  -0.181  0.00  0.00    +0.101 C 
ATOM     24  N   UNL     1       0.481  -6.170   0.578  0.00  0.00    -0.191 NA
ENDBRANCH   9  23
TORSDOF 4
