REMARK  Name = ZINC67293142
REMARK  6 active torsions:
REMARK  status: ('A' for Active; 'I' for Inactive)
REMARK    1  A    between atoms: C_1  and  C_2
REMARK    2  A    between atoms: C_2  and  C_3
REMARK    3  A    between atoms: C_6  and  N_9
REMARK    4  A    between atoms: C_11  and  C_21
REMARK    5  A    between atoms: N_23  and  C_24
REMARK    6  A    between atoms: C_24  and  C_25
REMARK                            x       y       z     vdW  Elec       q    Type
REMARK                         _______ _______ _______ _____ _____    ______ ____
ROOT
ATOM      1  N   UNL     1      -5.296  -1.956   0.050  0.00  0.00    -0.325 N 
ATOM      2  C   UNL     1      -6.197  -1.427  -0.749  0.00  0.00    +0.212 A 
ATOM      3  C   UNL     1      -7.559  -1.988  -0.836  0.00  0.00    +0.097 A 
ATOM      4  C   UNL     1      -8.578  -1.121  -1.208  0.00  0.00    +0.030 A 
ATOM      5  C   UNL     1      -8.211   0.271  -1.479  0.00  0.00    +0.020 A 
ATOM      6  C   UNL     1      -9.194   1.261  -1.595  0.00  0.00    +0.031 A 
ATOM      7  C   UNL     1      -8.822   2.563  -1.847  0.00  0.00    +0.042 A 
ATOM      8  C   UNL     1      -7.481   2.896  -1.986  0.00  0.00    +0.023 A 
ATOM      9  C   UNL     1      -6.502   1.930  -1.874  0.00  0.00    +0.048 A 
ATOM     10  C   UNL     1      -6.853   0.612  -1.622  0.00  0.00    +0.138 A 
ATOM     11  O   UNL     1      -5.904  -0.345  -1.514  0.00  0.00    -0.439 OA
ATOM     12 CL   UNL     1     -10.037   3.795  -1.994  0.00  0.00    -0.084 Cl
ATOM     13  H   UNL     1      -5.545  -2.673   0.655  0.00  0.00    +0.169 HD
ENDROOT
BRANCH   1  17
ATOM     14  C   UNL     1      -1.401  -0.564  -0.013  0.00  0.00    -0.047 A 
ATOM     15  C   UNL     1      -2.034  -0.783   1.197  0.00  0.00    +0.005 A 
ATOM     16  C   UNL     1      -3.332  -1.247   1.226  0.00  0.00    +0.026 A 
ATOM     17  C   UNL     1      -4.008  -1.495   0.029  0.00  0.00    +0.042 A 
ATOM     18  C   UNL     1      -3.363  -1.271  -1.189  0.00  0.00    +0.026 A 
ATOM     19  C   UNL     1      -2.066  -0.802  -1.203  0.00  0.00    +0.005 A 
BRANCH  14  21
ATOM     20  C   UNL     1       0.013   1.474  -0.045  0.00  0.00    +0.009 C 
ATOM     21  C   UNL     1       0.018  -0.057  -0.037  0.00  0.00    +0.032 C 
ENDBRANCH  14  21
ENDBRANCH   1  17
BRANCH   3  22
ATOM     22  C   UNL     1      -7.827  -3.407  -0.543  0.00  0.00    +0.250 C 
ATOM     23  O   UNL     1      -6.932  -4.123  -0.136  0.00  0.00    -0.270 OA
ATOM     24  N   UNL     1      -9.063  -3.912  -0.726  0.00  0.00    -0.304 N 
ATOM     25  H   UNL     1      -9.758  -3.362  -1.120  0.00  0.00    +0.149 HD
BRANCH  24  26
ATOM     26  C   UNL     1      -9.357  -5.291  -0.329  0.00  0.00    +0.179 C 
BRANCH  26  27
ATOM     27  C   UNL     1     -10.798  -5.606  -0.637  0.00  0.00    +0.122 A 
ATOM     28  C   UNL     1     -11.261  -6.123  -1.789  0.00  0.00    +0.046 A 
ATOM     29  C   UNL     1     -12.661  -6.254  -1.646  0.00  0.00    +0.041 A 
ATOM     30  C   UNL     1     -12.970  -5.809  -0.415  0.00  0.00    +0.195 A 
ATOM     31  O   UNL     1     -11.837  -5.424   0.194  0.00  0.00    -0.466 OA
ENDBRANCH  26  27
ENDBRANCH  24  26
ENDBRANCH   3  22
TORSDOF 5
