REMARK  Name = ZINC15672540
REMARK  9 active torsions:
REMARK  status: ('A' for Active; 'I' for Inactive)
REMARK    1  A    between atoms: C_1  and  C_2
REMARK    2  A    between atoms: C_4  and  C_31
REMARK    3  A    between atoms: C_6  and  C_8
REMARK    4  A    between atoms: C_16  and  C_18
REMARK    5  A    between atoms: C_18  and  N_19
REMARK    6  A    between atoms: C_20  and  C_22
REMARK    7  A    between atoms: C_25  and  N_28
REMARK    8  A    between atoms: N_28  and  C_29
REMARK    9  A    between atoms: N_28  and  C_30
REMARK                            x       y       z     vdW  Elec       q    Type
REMARK                         _______ _______ _______ _____ _____    ______ ____
ROOT
ATOM      1  C   UNL     1       3.826  -5.514  -3.052  0.00  0.00    +0.024 C 
ATOM      2  C   UNL     1       3.784  -4.021  -2.716  0.00  0.00    -0.068 C 
ATOM      3  C   UNL     1       5.867  -4.183  -1.490  0.00  0.00    -0.078 C 
ATOM      4  C   UNL     1       5.968  -5.681  -1.791  0.00  0.00    -0.015 C 
ATOM      5  C   UNL     1       4.553  -6.257  -1.923  0.00  0.00    -0.007 C 
ATOM      6  C   UNL     1       3.799  -6.009  -0.611  0.00  0.00    -0.010 C 
ATOM      7  C   UNL     1       3.758  -4.502  -0.342  0.00  0.00    -0.051 C 
ATOM      8  N   UNL     1       4.450  -3.765  -1.421  0.00  0.00    +0.383 N 
ATOM      9  H   UNL     1       4.409  -2.760  -1.218  0.00  0.00    -0.081 HD
ENDROOT
BRANCH   1  15
ATOM     10  C   UNL     1       0.611  -9.137  -2.380  0.00  0.00    +0.088 C 
ATOM     11  C   UNL     1       0.898  -7.741  -2.869  0.00  0.00    +0.127 A 
ATOM     12  N   UNL     1      -0.082  -7.033  -3.390  0.00  0.00    -0.232 NA
ATOM     13  C   UNL     1       0.136  -5.794  -3.833  0.00  0.00    +0.081 A 
ATOM     14  C   UNL     1       1.427  -5.258  -3.735  0.00  0.00    +0.052 A 
ATOM     15  C   UNL     1       2.420  -6.042  -3.181  0.00  0.00    +0.047 A 
ATOM     16  N   UNL     1       2.124  -7.267  -2.768  0.00  0.00    -0.237 NA
BRANCH  13  17
ATOM     17  C   UNL     1      -0.963  -5.001  -4.416  0.00  0.00    +0.038 A 
ATOM     18  C   UNL     1      -2.295  -5.310  -4.512  0.00  0.00    +0.017 A 
ATOM     19  C   UNL     1      -3.143  -4.404  -5.104  0.00  0.00    +0.008 A 
ATOM     20  C   UNL     1      -2.638  -3.232  -5.574  0.00  0.00    +0.046 A 
ATOM     21  S   UNL     1      -0.905  -3.385  -5.174  0.00  0.00    -0.095 S 
ENDBRANCH  13  17
ENDBRANCH   1  15
BRANCH   7  22
ATOM     22  C   UNL     1       2.302  -4.035  -0.276  0.00  0.00    +0.089 C 
BRANCH  22  23
ATOM     23  N   UNL     1       2.263  -2.577  -0.134  0.00  0.00    -0.313 N 
ATOM     24  C   UNL     1       1.081  -1.929  -0.157  0.00  0.00    +0.244 C 
ATOM     25  O   UNL     1       0.043  -2.560  -0.204  0.00  0.00    -0.270 OA
ATOM     26  H   UNL     1       3.087  -2.078  -0.023  0.00  0.00    +0.149 HD
BRANCH  24  27
ATOM     27  C   UNL     1       1.048  -0.455  -0.126  0.00  0.00    +0.037 A 
ATOM     28  C   UNL     1      -0.177   0.218  -0.150  0.00  0.00    +0.015 A 
ATOM     29  C   UNL     1      -0.205   1.594  -0.120  0.00  0.00    +0.024 A 
ATOM     30  C   UNL     1       0.985   2.315  -0.067  0.00  0.00    +0.029 A 
ATOM     31  C   UNL     1       2.206   1.647  -0.043  0.00  0.00    +0.024 A 
ATOM     32  C   UNL     1       2.241   0.272  -0.072  0.00  0.00    +0.015 A 
BRANCH  30  33
ATOM     33  N   UNL     1       0.953   3.705  -0.037  0.00  0.00    -0.336 N 
ATOM     34  C   UNL     1      -0.321   4.412  -0.189  0.00  0.00    +0.129 C 
ATOM     35  C   UNL     1       2.194   4.462   0.147  0.00  0.00    +0.129 C 
ENDBRANCH  30  33
ENDBRANCH  24  27
ENDBRANCH  22  23
ENDBRANCH   7  22
TORSDOF 6
