REMARK  Name = ZINC09124251
REMARK  12 active torsions:
REMARK  status: ('A' for Active; 'I' for Inactive)
REMARK    1  A    between atoms: C_1  and  C_2
REMARK    2  A    between atoms: C_4  and  C_39
REMARK    3  A    between atoms: C_5  and  O_38
REMARK    4  A    between atoms: C_6  and  C_8
REMARK    5  A    between atoms: N_16  and  C_26
REMARK    6  A    between atoms: C_17  and  C_19
REMARK    7  A    between atoms: C_26  and  C_27
REMARK    8  A    between atoms: C_27  and  C_28
REMARK    9  A    between atoms: C_31  and  O_36
REMARK   10  A    between atoms: C_32  and  O_34
REMARK   11  A    between atoms: O_34  and  C_35
REMARK   12  A    between atoms: O_36  and  C_37
REMARK                            x       y       z     vdW  Elec       q    Type
REMARK                         _______ _______ _______ _____ _____    ______ ____
ROOT
ATOM      1  C   UNL     1      -0.215  -3.120   2.788  0.00  0.00    +0.102 A 
ATOM      2  C   UNL     1       0.026  -2.394   3.959  0.00  0.00    +0.035 A 
ATOM      3  C   UNL     1       0.079  -3.327   4.976  0.00  0.00    +0.126 A 
ATOM      4  N   UNL     1      -0.129  -4.542   4.388  0.00  0.00    -0.272 N 
ATOM      5  H   UNL     1      -0.147  -5.392   4.856  0.00  0.00    +0.189 HD
ATOM      6  N   UNL     1      -0.300  -4.393   3.123  0.00  0.00    -0.173 NA
ATOM      7  C   UNL     1       0.331  -2.626   6.240  0.00  0.00    +0.265 C 
ATOM      8  O   UNL     1       0.433  -3.165   7.325  0.00  0.00    -0.268 OA
ATOM      9  N   UNL     1       0.434  -1.301   6.028  0.00  0.00    -0.285 N 
ATOM     10  C   UNL     1       0.253  -1.049   4.593  0.00  0.00    +0.144 C 
ENDROOT
BRANCH   1  16
ATOM     11  C   UNL     1       1.411  -0.082  -0.825  0.00  0.00    +0.044 C 
ATOM     12  C   UNL     1       0.422  -1.101  -0.320  0.00  0.00    -0.049 A 
ATOM     13  C   UNL     1      -0.619  -1.514  -1.133  0.00  0.00    +0.010 A 
ATOM     14  C   UNL     1      -1.531  -2.448  -0.678  0.00  0.00    -0.008 A 
ATOM     15  C   UNL     1      -1.406  -2.976   0.597  0.00  0.00    +0.129 A 
ATOM     16  C   UNL     1      -0.356  -2.561   1.420  0.00  0.00    +0.044 A 
ATOM     17  C   UNL     1       0.561  -1.624   0.950  0.00  0.00    +0.017 A 
ATOM     18  C   UNL     1      -2.661  -2.892  -1.570  0.00  0.00    +0.047 C 
BRANCH  15  19
ATOM     19  O   UNL     1      -2.303  -3.893   1.045  0.00  0.00    -0.506 OA
ATOM     20  H   UNL     1      -2.056  -4.809   0.856  0.00  0.00    +0.292 HD
ENDBRANCH  15  19
ENDBRANCH   1  16
BRANCH  10  21
ATOM     21  C   UNL     1      -0.944  -0.162   4.369  0.00  0.00    +0.013 A 
ATOM     22  C   UNL     1      -0.881   0.865   3.446  0.00  0.00    +0.008 A 
ATOM     23  C   UNL     1      -1.979   1.679   3.240  0.00  0.00    +0.001 A 
ATOM     24  C   UNL     1      -3.142   1.467   3.957  0.00  0.00    +0.003 A 
ATOM     25  C   UNL     1      -3.208   0.441   4.880  0.00  0.00    +0.039 A 
ATOM     26  C   UNL     1      -2.110  -0.378   5.083  0.00  0.00    +0.129 A 
ATOM     27  F   UNL     1      -2.175  -1.385   5.982  0.00  0.00    -0.205 F 
ENDBRANCH  10  21
BRANCH   9  28
ATOM     28  C   UNL     1       0.684  -0.285   7.053  0.00  0.00    +0.114 C 
BRANCH  28  29
ATOM     29  C   UNL     1       2.192  -0.074   7.205  0.00  0.00    +0.054 C 
BRANCH  29  30
ATOM     30  C   UNL     1       2.450   0.971   8.260  0.00  0.00    -0.042 A 
ATOM     31  C   UNL     1       2.527   2.305   7.904  0.00  0.00    +0.007 A 
ATOM     32  C   UNL     1       2.763   3.267   8.868  0.00  0.00    +0.049 A 
ATOM     33  C   UNL     1       2.922   2.896  10.194  0.00  0.00    +0.161 A 
ATOM     34  C   UNL     1       2.844   1.554  10.551  0.00  0.00    +0.162 A 
ATOM     35  C   UNL     1       2.603   0.595   9.581  0.00  0.00    +0.053 A 
BRANCH  34  36
ATOM     36  O   UNL     1       3.000   1.185  11.851  0.00  0.00    -0.491 OA
ATOM     37  C   UNL     1       2.907  -0.211  12.145  0.00  0.00    +0.277 C 
ENDBRANCH  34  36
BRANCH  33  38
ATOM     38  O   UNL     1       3.155   3.842  11.143  0.00  0.00    -0.491 OA
ATOM     39  C   UNL     1       3.223   5.200  10.703  0.00  0.00    +0.277 C 
ENDBRANCH  33  38
ENDBRANCH  29  30
ENDBRANCH  28  29
ENDBRANCH   9  28
TORSDOF 8
