REMARK  Name = ZINC39674519
REMARK  8 active torsions:
REMARK  status: ('A' for Active; 'I' for Inactive)
REMARK    1  A    between atoms: C_1  and  C_2
REMARK    2  A    between atoms: C_4  and  C_9
REMARK    3  A    between atoms: C_5  and  C_8
REMARK    4  A    between atoms: C_9  and  C_11
REMARK    5  A    between atoms: C_9  and  N_12
REMARK    6  A    between atoms: C_13  and  C_15
REMARK    7  A    between atoms: C_26  and  C_28
REMARK    8  A    between atoms: C_31  and  C_33
REMARK                            x       y       z     vdW  Elec       q    Type
REMARK                         _______ _______ _______ _____ _____    ______ ____
ROOT
ATOM      1  C   UNL     1      -3.211  -0.727  -5.373  0.00  0.00    +0.100 C 
ATOM      2  C   UNL     1      -3.932  -2.024  -4.942  0.00  0.00    +0.121 C 
ATOM      3  N   UNL     1      -4.752  -2.405  -6.115  0.00  0.00    -0.294 N 
ATOM      4  C   UNL     1      -3.889  -2.103  -7.282  0.00  0.00    +0.115 C 
ATOM      5  C   UNL     1      -3.185  -0.783  -6.910  0.00  0.00    -0.004 C 
ATOM      6  C   UNL     1      -1.744  -0.794  -7.413  0.00  0.00    -0.010 C 
ATOM      7  C   UNL     1      -1.744  -0.790  -8.945  0.00  0.00    -0.082 C 
ATOM      8  N   UNL     1      -2.445   0.403  -9.434  0.00  0.00    +0.379 N 
ATOM      9  C   UNL     1      -3.854   0.359  -9.023  0.00  0.00    -0.082 C 
ATOM     10  C   UNL     1      -3.943   0.404  -7.495  0.00  0.00    -0.010 C 
ATOM     11  C   UNL     1      -6.001  -2.911  -6.121  0.00  0.00    +0.282 C 
ATOM     12  O   UNL     1      -6.546  -3.176  -7.177  0.00  0.00    -0.267 OA
ATOM     13  H   UNL     1      -2.010   1.228  -9.050  0.00  0.00    -0.086 HD
ATOM     14  H   UNL     1      -2.390   0.434 -10.441  0.00  0.00    -0.086 HD
ENDROOT
BRANCH  11  15
ATOM     15  C   UNL     1      -6.703  -3.143  -4.856  0.00  0.00    +0.190 A 
ATOM     16  C   UNL     1      -7.974  -3.658  -4.718  0.00  0.00    +0.055 A 
ATOM     17  C   UNL     1      -8.243  -3.708  -3.347  0.00  0.00    +0.050 A 
ATOM     18  C   UNL     1      -7.139  -3.227  -2.703  0.00  0.00    +0.136 A 
ATOM     19  O   UNL     1      -6.216  -2.895  -3.622  0.00  0.00    -0.450 OA
BRANCH  18  20
ATOM     20  C   UNL     1      -6.983  -3.097  -1.240  0.00  0.00    +0.017 A 
ATOM     21  C   UNL     1      -8.017  -3.489  -0.387  0.00  0.00    +0.011 A 
ATOM     22  C   UNL     1      -7.864  -3.366   0.978  0.00  0.00    +0.001 A 
ATOM     23  C   UNL     1      -6.690  -2.855   1.503  0.00  0.00    +0.000 A 
ATOM     24  C   UNL     1      -5.662  -2.464   0.663  0.00  0.00    +0.001 A 
ATOM     25  C   UNL     1      -5.799  -2.587  -0.704  0.00  0.00    +0.011 A 
ENDBRANCH  18  20
ENDBRANCH  11  15
BRANCH   1  27
ATOM     26  N   UNL     1      -1.214   0.480  -4.553  0.00  0.00    -0.309 N 
ATOM     27  C   UNL     1      -1.808  -0.699  -4.825  0.00  0.00    +0.219 C 
ATOM     28  O   UNL     1      -1.213  -1.737  -4.628  0.00  0.00    -0.275 OA
ATOM     29  H   UNL     1      -1.690   1.310  -4.710  0.00  0.00    +0.149 HD
BRANCH  26  30
ATOM     30  C   UNL     1       0.150   0.507  -4.020  0.00  0.00    +0.100 C 
ATOM     31  C   UNL     1       1.151   0.436  -5.175  0.00  0.00    +0.033 C 
BRANCH  30  34
ATOM     32  C   UNL     1       0.995   3.550  -4.913  0.00  0.00    +0.039 C 
ATOM     33  C   UNL     1       0.113   3.209  -3.711  0.00  0.00    +0.154 C 
ATOM     34  C   UNL     1       0.363   1.784  -3.249  0.00  0.00    -0.001 C 
ATOM     35  C   UNL     1       0.814   1.926  -2.000  0.00  0.00    +0.063 C 
ATOM     36  N   UNL     1       0.868   3.231  -1.655  0.00  0.00    -0.159 NA
ATOM     37  N   UNL     1       0.497   4.014  -2.538  0.00  0.00    -0.180 NA
ATOM     38  C   UNL     1       1.209   0.785  -1.099  0.00  0.00    +0.067 C 
ENDBRANCH  30  34
ENDBRANCH  26  30
ENDBRANCH   1  27
TORSDOF 5
