REMARK  Name = ZINC01993652
REMARK  9 active torsions:
REMARK  status: ('A' for Active; 'I' for Inactive)
REMARK    1  A    between atoms: C_1  and  C_2
REMARK    2  A    between atoms: C_4  and  C_36
REMARK    3  A    between atoms: C_6  and  O_8
REMARK    4  A    between atoms: O_8  and  C_9
REMARK    5  A    between atoms: C_15  and  O_24
REMARK    6  A    between atoms: C_19  and  C_20
REMARK    7  A    between atoms: O_24  and  C_25
REMARK    8  A    between atoms: C_25  and  C_26
REMARK    9  A    between atoms: N_28  and  C_29
REMARK                            x       y       z     vdW  Elec       q    Type
REMARK                         _______ _______ _______ _____ _____    ______ ____
ROOT
ATOM      1  C   UNL     1      -1.215  -4.884   0.060  0.00  0.00    +0.222 A 
ATOM      2  C   UNL     1       0.054  -4.238   0.046  0.00  0.00    +0.235 A 
ATOM      3  O   UNL     1       1.092  -4.878   0.038  0.00  0.00    -0.283 OA
ATOM      4  C   UNL     1       0.060  -2.765   0.043  0.00  0.00    +0.068 A 
ATOM      5  C   UNL     1       1.254  -2.043   0.029  0.00  0.00    +0.019 A 
ATOM      6  C   UNL     1       1.220  -0.678   0.021  0.00  0.00    +0.046 A 
ATOM      7  C   UNL     1       0.001  -0.003   0.036  0.00  0.00    +0.125 A 
ATOM      8  C   UNL     1      -1.193  -0.705   0.049  0.00  0.00    +0.092 A 
ATOM      9  C   UNL     1      -1.175  -2.093   0.052  0.00  0.00    +0.143 A 
ATOM     10  O   UNL     1      -2.322  -2.801   0.065  0.00  0.00    -0.447 OA
ATOM     11  C   UNL     1      -2.339  -4.141   0.069  0.00  0.00    +0.254 A 
ENDROOT
BRANCH  11  12
ATOM     12  C   UNL     1      -3.671  -4.846   0.083  0.00  0.00    +0.454 C 
ATOM     13  F   UNL     1      -4.071  -5.061   1.406  0.00  0.00    -0.163 F 
ATOM     14  F   UNL     1      -4.624  -4.056  -0.570  0.00  0.00    -0.163 F 
ATOM     15  F   UNL     1      -3.555  -6.075  -0.575  0.00  0.00    -0.163 F 
ENDBRANCH  11  12
BRANCH   1  16
ATOM     16  O   UNL     1      -1.292  -6.243   0.065  0.00  0.00    -0.448 OA
BRANCH  16  22
ATOM     17  C   UNL     1      -1.232  -5.988   4.938  0.00  0.00    +0.044 C 
ATOM     18  C   UNL     1      -1.290  -6.787   3.662  0.00  0.00    -0.047 A 
ATOM     19  C   UNL     1      -1.368  -8.166   3.713  0.00  0.00    +0.007 A 
ATOM     20  C   UNL     1      -1.421  -8.902   2.544  0.00  0.00    -0.047 A 
ATOM     21  C   UNL     1      -1.396  -8.261   1.321  0.00  0.00    +0.049 A 
ATOM     22  C   UNL     1      -1.317  -6.876   1.266  0.00  0.00    +0.129 A 
ATOM     23  C   UNL     1      -1.259  -6.140   2.441  0.00  0.00    +0.049 A 
ATOM     24  C   UNL     1      -1.506 -10.406   2.604  0.00  0.00    +0.044 C 
ENDBRANCH  16  22
ENDBRANCH   1  16
BRANCH   7  25
ATOM     25  O   UNL     1      -0.017   1.354   0.033  0.00  0.00    -0.483 OA
BRANCH  25  26
ATOM     26  C   UNL     1       1.247   2.020   0.019  0.00  0.00    +0.324 C 
BRANCH  26  27
ATOM     27  C   UNL     1       1.030   3.511   0.018  0.00  0.00    +0.255 C 
ATOM     28  O   UNL     1      -0.097   3.960   0.027  0.00  0.00    -0.272 OA
ATOM     29  N   UNL     1       2.088   4.346   0.005  0.00  0.00    -0.281 N 
ATOM     30  H   UNL     1       2.988   3.989   0.064  0.00  0.00    +0.155 HD
BRANCH  29  31
ATOM     31  C   UNL     1       1.887   5.728  -0.091  0.00  0.00    +0.052 A 
ATOM     32  C   UNL     1       0.784   6.315   0.514  0.00  0.00    +0.025 A 
ATOM     33  C   UNL     1       0.592   7.680   0.422  0.00  0.00    +0.002 A 
ATOM     34  C   UNL     1       1.491   8.460  -0.281  0.00  0.00    +0.002 A 
ATOM     35  C   UNL     1       2.588   7.879  -0.890  0.00  0.00    +0.022 A 
ATOM     36  C   UNL     1       2.789   6.515  -0.797  0.00  0.00    +0.062 A 
ATOM     37 CL   UNL     1       4.167   5.785  -1.562  0.00  0.00    -0.082 Cl
ENDBRANCH  29  31
ENDBRANCH  26  27
ENDBRANCH  25  26
ENDBRANCH   7  25
TORSDOF 7
