REMARK  Name = ZINC57530925
REMARK  10 active torsions:
REMARK  status: ('A' for Active; 'I' for Inactive)
REMARK    1  A    between atoms: C_1  and  C_2
REMARK    2  A    between atoms: C_4  and  C_40
REMARK    3  A    between atoms: C_7  and  C_14
REMARK    4  A    between atoms: C_14  and  C_16
REMARK    5  A    between atoms: C_14  and  N_26
REMARK    6  A    between atoms: N_20  and  C_21
REMARK    7  A    between atoms: N_26  and  C_27
REMARK    8  A    between atoms: N_26  and  C_34
REMARK    9  A    between atoms: C_27  and  C_28
REMARK   10  A    between atoms: C_34  and  C_35
REMARK                            x       y       z     vdW  Elec       q    Type
REMARK                         _______ _______ _______ _____ _____    ______ ____
ROOT
ATOM      1  C   UNL     1      -0.412  -6.806   0.631  0.00  0.00    +0.163 C 
ENDROOT
BRANCH   1   8
ATOM      2  C   UNL     1       0.934   0.805  -1.336  0.00  0.00    +0.044 C 
ATOM      3  C   UNL     1       0.909  -0.644  -0.924  0.00  0.00    -0.048 A 
ATOM      4  C   UNL     1       2.091  -1.274  -0.557  0.00  0.00    +0.007 A 
ATOM      5  C   UNL     1       2.091  -2.587  -0.181  0.00  0.00    -0.041 A 
ATOM      6  C   UNL     1       0.890  -3.304  -0.166  0.00  0.00    +0.002 A 
ATOM      7  C   UNL     1       0.853  -4.713   0.232  0.00  0.00    +0.021 A 
ATOM      8  C   UNL     1      -0.340  -5.356   0.227  0.00  0.00    +0.042 A 
ATOM      9  C   UNL     1      -1.515  -4.673  -0.155  0.00  0.00    +0.254 A 
ATOM     10  O   UNL     1      -2.577  -5.271  -0.151  0.00  0.00    -0.268 OA
ATOM     11  N   UNL     1      -1.491  -3.380  -0.522  0.00  0.00    -0.322 N 
ATOM     12  H   UNL     1      -2.317  -2.941  -0.778  0.00  0.00    +0.169 HD
ATOM     13  C   UNL     1      -0.310  -2.669  -0.538  0.00  0.00    +0.050 A 
ATOM     14  C   UNL     1      -0.286  -1.329  -0.912  0.00  0.00    +0.029 A 
ATOM     15  C   UNL     1       3.379  -3.261   0.216  0.00  0.00    +0.044 C 
ENDBRANCH   1   8
BRANCH   1  16
ATOM     16  C   UNL     1       0.978  -7.324   0.898  0.00  0.00    +0.173 A 
ATOM     17  N   UNL     1       1.695  -7.121   1.976  0.00  0.00    -0.111 NA
ATOM     18  N   UNL     1       2.823  -7.725   1.823  0.00  0.00    -0.023 NA
ATOM     19  N   UNL     1       2.843  -8.308   0.676  0.00  0.00    -0.044 NA
ATOM     20  N   UNL     1       1.722  -8.089   0.077  0.00  0.00    -0.224 N 
BRANCH  20  21
ATOM     21  C   UNL     1       1.332  -8.577  -1.248  0.00  0.00    +0.111 C 
ATOM     22  C   UNL     1       1.415 -10.117  -1.289  0.00  0.00    +0.027 C 
ATOM     23  C   UNL     1       1.935 -10.432  -2.713  0.00  0.00    +0.002 C 
ATOM     24  C   UNL     1       2.960  -9.297  -2.962  0.00  0.00    +0.002 C 
ATOM     25  C   UNL     1       2.314  -8.056  -2.312  0.00  0.00    +0.027 C 
ENDBRANCH  20  21
ENDBRANCH   1  16
BRANCH   1  26
ATOM     26  N   UNL     1      -1.225  -6.936   1.848  0.00  0.00    -0.277 NA
BRANCH  26  27
ATOM     27  C   UNL     1      -1.312  -8.338   2.276  0.00  0.00    +0.122 C 
BRANCH  27  28
ATOM     28  C   UNL     1      -2.446  -8.495   3.256  0.00  0.00    -0.015 A 
ATOM     29  C   UNL     1      -2.205  -8.459   4.621  0.00  0.00    +0.008 A 
ATOM     30  C   UNL     1      -3.280  -8.608   5.484  0.00  0.00    +0.020 A 
ATOM     31  C   UNL     1      -4.546  -8.786   4.960  0.00  0.00    +0.111 A 
ATOM     32  N   UNL     1      -4.738  -8.816   3.656  0.00  0.00    -0.263 NA
ATOM     33  C   UNL     1      -3.740  -8.672   2.805  0.00  0.00    +0.115 A 
ENDBRANCH  27  28
ENDBRANCH  26  27
BRANCH  26  34
ATOM     34  C   UNL     1      -0.697  -6.088   2.926  0.00  0.00    +0.160 C 
BRANCH  34  35
ATOM     35  C   UNL     1      -1.288  -4.707   2.813  0.00  0.00    +0.119 A 
ATOM     36  C   UNL     1      -2.482  -4.319   3.296  0.00  0.00    +0.046 A 
ATOM     37  C   UNL     1      -2.634  -2.953   2.967  0.00  0.00    +0.041 A 
ATOM     38  C   UNL     1      -1.523  -2.586   2.303  0.00  0.00    +0.195 A 
ATOM     39  O   UNL     1      -0.709  -3.651   2.217  0.00  0.00    -0.467 OA
ENDBRANCH  34  35
ENDBRANCH  26  34
ENDBRANCH   1  26
TORSDOF 8
