REMARK  Name = ZINC33225988
REMARK  4 active torsions:
REMARK  status: ('A' for Active; 'I' for Inactive)
REMARK    1  A    between atoms: C_4  and  O_23
REMARK    2  A    between atoms: C_5  and  C_7
REMARK    3  A    between atoms: N_9  and  N_10
REMARK    4  A    between atoms: C_11  and  C_13
REMARK                            x       y       z     vdW  Elec       q    Type
REMARK                         _______ _______ _______ _____ _____    ______ ____
ROOT
ATOM      1  N   UNL     1       0.121  -4.255  -0.022  0.00  0.00    -0.228 N 
ATOM      2  C   UNL     1      -1.033  -4.951  -0.015  0.00  0.00    +0.295 C 
ATOM      3  O   UNL     1      -2.098  -4.362  -0.001  0.00  0.00    -0.265 OA
ATOM      4  H   UNL     1       0.970  -4.725  -0.034  0.00  0.00    +0.173 HD
ENDROOT
BRANCH   2   5
ATOM      5  C   UNL     1      -1.006  -6.420  -0.024  0.00  0.00    +0.192 A 
ATOM      6  C   UNL     1      -2.102  -7.222  -0.022  0.00  0.00    +0.063 A 
ATOM      7  C   UNL     1      -1.599  -8.595  -0.033  0.00  0.00    +0.022 A 
ATOM      8  C   UNL     1      -2.205  -9.854  -0.037  0.00  0.00    +0.012 A 
ATOM      9  C   UNL     1      -1.430 -10.979  -0.048  0.00  0.00    +0.002 A 
ATOM     10  C   UNL     1      -0.045 -10.880  -0.054  0.00  0.00    +0.019 A 
ATOM     11  C   UNL     1       0.572  -9.647  -0.050  0.00  0.00    +0.061 A 
ATOM     12  C   UNL     1      -0.196  -8.488  -0.040  0.00  0.00    +0.150 A 
ATOM     13  O   UNL     1       0.112  -7.176  -0.040  0.00  0.00    -0.449 OA
ATOM     14 BR   UNL     1       2.460  -9.533  -0.059  0.00  0.00    -0.046 Br
ENDBRANCH   2   5
BRANCH   1  17
ATOM     15  C   UNL     1       1.250  -2.159  -0.022  0.00  0.00    +0.264 C 
ATOM     16  O   UNL     1       2.314  -2.748  -0.036  0.00  0.00    -0.269 OA
ATOM     17  N   UNL     1       0.095  -2.855  -0.014  0.00  0.00    -0.230 N 
ATOM     18  H   UNL     1      -0.754  -2.385  -0.003  0.00  0.00    +0.173 HD
BRANCH  15  23
ATOM     19  C   UNL     1      -0.017   1.374   0.010  0.00  0.00    +0.001 A 
ATOM     20  C   UNL     1       1.170   2.089   0.002  0.00  0.00    +0.004 A 
ATOM     21  C   UNL     1       2.383   1.429  -0.013  0.00  0.00    +0.046 A 
ATOM     22  C   UNL     1       2.420   0.043  -0.021  0.00  0.00    +0.129 A 
ATOM     23  C   UNL     1       1.222  -0.684  -0.013  0.00  0.00    +0.079 A 
ATOM     24  C   UNL     1       0.002  -0.004   0.002  0.00  0.00    +0.017 A 
BRANCH  22  25
ATOM     25  O   UNL     1       3.611  -0.606  -0.037  0.00  0.00    -0.506 OA
ATOM     26  H   UNL     1       3.966  -0.799   0.842  0.00  0.00    +0.292 HD
ENDBRANCH  22  25
ENDBRANCH  15  23
ENDBRANCH   1  17
TORSDOF 4
