REMARK  Name = ZINC64817340
REMARK  9 active torsions:
REMARK  status: ('A' for Active; 'I' for Inactive)
REMARK    1  A    between atoms: C_1  and  C_2
REMARK    2  A    between atoms: C_2  and  N_3
REMARK    3  A    between atoms: C_6  and  C_8
REMARK    4  A    between atoms: C_10  and  S_24
REMARK    5  A    between atoms: N_11  and  C_14
REMARK    6  A    between atoms: C_14  and  C_15
REMARK    7  A    between atoms: S_24  and  C_25
REMARK    8  A    between atoms: C_25  and  C_26
REMARK    9  A    between atoms: N_28  and  C_29
REMARK                            x       y       z     vdW  Elec       q    Type
REMARK                         _______ _______ _______ _____ _____    ______ ____
ROOT
ATOM      1  N   UNL     1       0.695  -0.440  -1.214  0.00  0.00    -0.257 N 
ATOM      2  C   UNL     1       0.107  -0.714  -2.421  0.00  0.00    +0.152 A 
ATOM      3  C   UNL     1       1.126  -1.138  -3.283  0.00  0.00    +0.119 A 
ATOM      4  C   UNL     1       2.327  -1.105  -2.548  0.00  0.00    +0.086 A 
ATOM      5  N   UNL     1       2.068  -0.689  -1.338  0.00  0.00    -0.174 NA
ATOM      6  C   UNL     1       3.688  -1.481  -3.074  0.00  0.00    +0.070 C 
ATOM      7  N   UNL     1       0.818  -1.476  -4.558  0.00  0.00    -0.220 NA
ATOM      8  C   UNL     1      -0.417  -1.412  -4.994  0.00  0.00    +0.173 A 
ATOM      9  N   UNL     1      -1.446  -1.005  -4.193  0.00  0.00    -0.282 N 
ATOM     10  C   UNL     1      -1.216  -0.652  -2.909  0.00  0.00    +0.281 A 
ATOM     11  O   UNL     1      -2.130  -0.288  -2.189  0.00  0.00    -0.265 OA
ENDROOT
BRANCH   1  13
ATOM     12  C   UNL     1      -0.019   1.565  -0.009  0.00  0.00    +0.029 C 
ATOM     13  C   UNL     1       0.010   0.036  -0.010  0.00  0.00    +0.141 C 
ENDBRANCH   1  13
BRANCH   9  14
ATOM     14  C   UNL     1      -2.808  -0.951  -4.729  0.00  0.00    +0.162 C 
BRANCH  14  15
ATOM     15  C   UNL     1      -3.489  -2.277  -4.505  0.00  0.00    -0.024 A 
ATOM     16  C   UNL     1      -3.394  -3.272  -5.461  0.00  0.00    +0.009 A 
ATOM     17  C   UNL     1      -4.017  -4.489  -5.259  0.00  0.00    +0.050 A 
ATOM     18  C   UNL     1      -4.739  -4.715  -4.099  0.00  0.00    +0.166 A 
ATOM     19  C   UNL     1      -4.835  -3.713  -3.136  0.00  0.00    +0.167 A 
ATOM     20  C   UNL     1      -4.203  -2.497  -3.342  0.00  0.00    +0.055 A 
ATOM     21  O   UNL     1      -5.591  -4.176  -2.099  0.00  0.00    -0.453 OA
ATOM     22  C   UNL     1      -6.295  -5.321  -2.616  0.00  0.00    +0.466 C 
ATOM     23  O   UNL     1      -5.434  -5.806  -3.664  0.00  0.00    -0.453 OA
ENDBRANCH  14  15
ENDBRANCH   9  14
BRANCH   8  24
ATOM     24  S   UNL     1      -0.760  -1.864  -6.662  0.00  0.00    -0.078 S 
BRANCH  24  25
ATOM     25  C   UNL     1       0.861  -2.326  -7.333  0.00  0.00    +0.173 C 
BRANCH  25  26
ATOM     26  C   UNL     1       0.708  -2.739  -8.774  0.00  0.00    +0.227 C 
ATOM     27  O   UNL     1      -0.386  -2.724  -9.297  0.00  0.00    -0.275 OA
ATOM     28  N   UNL     1       1.788  -3.126  -9.483  0.00  0.00    -0.285 N 
ATOM     29  H   UNL     1       2.672  -3.074  -9.086  0.00  0.00    +0.155 HD
BRANCH  28  30
ATOM     30  C   UNL     1       1.634  -3.601 -10.790  0.00  0.00    +0.034 A 
ATOM     31  C   UNL     1       2.455  -4.617 -11.262  0.00  0.00    +0.026 A 
ATOM     32  C   UNL     1       2.301  -5.085 -12.552  0.00  0.00    +0.040 A 
ATOM     33  C   UNL     1       1.330  -4.542 -13.376  0.00  0.00    +0.124 A 
ATOM     34  C   UNL     1       0.510  -3.529 -12.908  0.00  0.00    +0.040 A 
ATOM     35  C   UNL     1       0.656  -3.062 -11.616  0.00  0.00    +0.026 A 
ATOM     36  F   UNL     1       1.182  -5.000 -14.638  0.00  0.00    -0.205 F 
ENDBRANCH  28  30
ENDBRANCH  25  26
ENDBRANCH  24  25
ENDBRANCH   8  24
TORSDOF 7
