REMARK  Name = ZINC13073712
REMARK  12 active torsions:
REMARK  status: ('A' for Active; 'I' for Inactive)
REMARK    1  A    between atoms: C_1  and  C_2
REMARK    2  A    between atoms: C_2  and  O_3
REMARK    3  A    between atoms: O_3  and  C_4
REMARK    4  A    between atoms: C_7  and  C_12
REMARK    5  A    between atoms: C_9  and  O_10
REMARK    6  A    between atoms: O_10  and  C_11
REMARK    7  A    between atoms: C_12  and  N_61
REMARK    8  A    between atoms: C_13  and  N_61
REMARK    9  A    between atoms: C_14  and  N_15
REMARK   10  A    between atoms: C_14  and  N_61
REMARK   11  A    between atoms: N_18  and  C_28
REMARK   12  A    between atoms: C_19  and  C_21
REMARK                            x       y       z     vdW  Elec       q    Type
REMARK                         _______ _______ _______ _____ _____    ______ ____
ROOT
ATOM      1  N   UNL     1      -0.306  -6.546   2.832  0.00  0.00    -0.257 N 
ATOM      2  C   UNL     1       0.628  -6.926   3.728  0.00  0.00    +0.181 A 
ATOM      3  S   UNL     1       2.325  -6.835   3.520  0.00  0.00    -0.011 S 
ATOM      4  N   UNL     1      -0.016  -7.387   4.819  0.00  0.00    -0.271 N 
ATOM      5  C   UNL     1      -1.377  -7.299   4.588  0.00  0.00    +0.167 A 
ATOM      6  N   UNL     1      -1.563  -6.796   3.399  0.00  0.00    -0.152 NA
ENDROOT
BRANCH   5   7
ATOM      7  C   UNL     1      -2.442  -7.707   5.530  0.00  0.00    +0.020 A 
ATOM      8  C   UNL     1      -2.149  -8.572   6.585  0.00  0.00    +0.013 A 
ATOM      9  C   UNL     1      -3.145  -8.945   7.463  0.00  0.00    +0.021 A 
ATOM     10  C   UNL     1      -4.436  -8.472   7.293  0.00  0.00    +0.041 A 
ATOM     11  C   UNL     1      -4.733  -7.618   6.245  0.00  0.00    +0.021 A 
ATOM     12  C   UNL     1      -3.744  -7.234   5.363  0.00  0.00    +0.013 A 
ATOM     13 CL   UNL     1      -5.685  -8.952   8.399  0.00  0.00    -0.084 Cl
ENDBRANCH   5   7
BRANCH   4  14
ATOM     14  C   UNL     1       0.588  -7.876   5.984  0.00  0.00    +0.050 A 
ATOM     15  C   UNL     1       0.486  -7.166   7.172  0.00  0.00    +0.026 A 
ATOM     16  C   UNL     1       1.079  -7.654   8.320  0.00  0.00    +0.002 A 
ATOM     17  C   UNL     1       1.784  -8.843   8.284  0.00  0.00    +0.000 A 
ATOM     18  C   UNL     1       1.892  -9.551   7.101  0.00  0.00    +0.002 A 
ATOM     19  C   UNL     1       1.296  -9.071   5.951  0.00  0.00    +0.026 A 
ENDBRANCH   4  14
BRANCH   1  20
ATOM     20  C   UNL     1      -0.052  -5.981   1.504  0.00  0.00    +0.072 C 
BRANCH  20  22
ATOM     21  C   UNL     1       1.193  -4.101   2.388  0.00  0.00    -0.093 C 
ATOM     22  N   UNL     1       0.000  -4.508   1.615  0.00  0.00    +0.394 N 
ATOM     23  H   UNL     1      -0.841  -4.180   2.104  0.00  0.00    -0.079 HD
BRANCH  22  24
ATOM     24  C   UNL     1       0.040  -3.901   0.268  0.00  0.00    -0.041 C 
BRANCH  24  28
ATOM     25  C   UNL     1      -0.435   0.332   0.647  0.00  0.00    +0.162 A 
ATOM     26  C   UNL     1       0.831  -0.230   0.659  0.00  0.00    +0.049 A 
ATOM     27  C   UNL     1       0.982  -1.598   0.537  0.00  0.00    +0.005 A 
ATOM     28  C   UNL     1      -0.130  -2.409   0.402  0.00  0.00    -0.060 A 
ATOM     29  C   UNL     1      -1.396  -1.855   0.389  0.00  0.00    +0.051 A 
ATOM     30  C   UNL     1      -1.554  -0.485   0.517  0.00  0.00    +0.162 A 
BRANCH  30  31
ATOM     31  O   UNL     1      -2.800   0.062   0.510  0.00  0.00    -0.491 OA
ATOM     32  C   UNL     1      -3.902  -0.838   0.373  0.00  0.00    +0.277 C 
ENDBRANCH  30  31
BRANCH  25  33
ATOM     33  O   UNL     1      -0.585   1.679   0.767  0.00  0.00    -0.489 OA
BRANCH  33  35
ATOM     34  C   UNL     1       0.242   3.935   1.025  0.00  0.00    +0.048 C 
ATOM     35  C   UNL     1       0.608   2.454   0.903  0.00  0.00    +0.226 C 
ENDBRANCH  33  35
ENDBRANCH  25  33
ENDBRANCH  24  28
ENDBRANCH  22  24
ENDBRANCH  20  22
ENDBRANCH   1  20
TORSDOF 9
