REMARK  Name = ZINC12157985
REMARK  12 active torsions:
REMARK  status: ('A' for Active; 'I' for Inactive)
REMARK    1  A    between atoms: C_1  and  C_2
REMARK    2  A    between atoms: C_2  and  C_3
REMARK    3  A    between atoms: C_2  and  C_4
REMARK    4  A    between atoms: C_4  and  C_5
REMARK    5  A    between atoms: C_5  and  C_6
REMARK    6  A    between atoms: C_6  and  C_17
REMARK    7  A    between atoms: N_9  and  C_13
REMARK    8  A    between atoms: C_13  and  C_14
REMARK    9  A    between atoms: C_14  and  N_72
REMARK   10  A    between atoms: C_15  and  N_72
REMARK   11  A    between atoms: C_16  and  N_72
REMARK   12  A    between atoms: C_23  and  C_25
REMARK                            x       y       z     vdW  Elec       q    Type
REMARK                         _______ _______ _______ _____ _____    ______ ____
ROOT
ATOM      1  C   UNL     1      -1.366   2.788   3.019  0.00  0.00    +0.115 C 
ATOM      2  C   UNL     1      -0.418   2.719   1.838  0.00  0.00    +0.247 C 
ATOM      3  O   UNL     1       0.418   3.538   1.521  0.00  0.00    -0.273 OA
ATOM      4  N   UNL     1      -0.698   1.558   1.213  0.00  0.00    -0.226 N 
ATOM      5  C   UNL     1      -1.677   0.888   1.833  0.00  0.00    +0.309 C 
ATOM      6  O   UNL     1      -2.101  -0.188   1.459  0.00  0.00    -0.252 OA
ATOM      7  N   UNL     1      -2.138   1.538   2.917  0.00  0.00    -0.285 N 
ATOM      8  H   UNL     1      -2.841   1.241   3.515  0.00  0.00    +0.151 HD
ENDROOT
BRANCH   1   9
ATOM      9  C   UNL     1      -0.584   2.833   4.334  0.00  0.00    +0.024 C 
ATOM     10  C   UNL     1       0.121   4.185   4.462  0.00  0.00    +0.025 C 
ATOM     11  C   UNL     1       0.874   4.239   5.795  0.00  0.00    +0.108 C 
ATOM     12  N   UNL     1       1.772   3.079   5.878  0.00  0.00    -0.301 N 
ATOM     13  C   UNL     1       1.212   1.736   5.678  0.00  0.00    +0.108 C 
ATOM     14  C   UNL     1       0.456   1.710   4.347  0.00  0.00    +0.025 C 
ATOM     15  C   UNL     1       3.086   3.245   6.132  0.00  0.00    +0.219 C 
ATOM     16  O   UNL     1       3.817   2.280   6.197  0.00  0.00    -0.275 OA
BRANCH  15  17
ATOM     17  C   UNL     1       3.645   4.630   6.334  0.00  0.00    +0.083 C 
ATOM     18  C   UNL     1       3.543   5.454   5.028  0.00  0.00    +0.021 C 
ATOM     19  C   UNL     1       5.032   5.756   4.664  0.00  0.00    +0.013 C 
ATOM     20  C   UNL     1       5.616   5.997   6.126  0.00  0.00    +0.016 C 
ATOM     21  C   UNL     1       5.181   4.566   6.612  0.00  0.00    +0.024 C 
ATOM     22  C   UNL     1       5.731   3.700   5.473  0.00  0.00    -0.027 C 
ATOM     23  C   UNL     1       5.645   4.386   4.350  0.00  0.00    -0.027 C 
ENDBRANCH  15  17
ENDBRANCH   1   9
BRANCH   1  24
ATOM     24  C   UNL     1      -2.290   4.002   2.902  0.00  0.00    +0.036 C 
BRANCH  24  25
ATOM     25  C   UNL     1      -3.110   3.897   1.615  0.00  0.00    +0.005 C 
BRANCH  25  27
ATOM     26  C   UNL     1      -3.192   6.379   1.340  0.00  0.00    +0.007 C 
ATOM     27  C   UNL     1      -4.034   5.111   1.499  0.00  0.00    -0.017 C 
ATOM     28  C   UNL     1      -4.942   4.946   0.279  0.00  0.00    +0.007 C 
ENDBRANCH  25  27
ENDBRANCH  24  25
ENDBRANCH   1  24
BRANCH   4  29
ATOM     29  C   UNL     1      -0.013   1.086   0.008  0.00  0.00    +0.099 C 
BRANCH  29  30
ATOM     30  C   UNL     1      -0.753   1.593  -1.232  0.00  0.00    -0.060 C 
BRANCH  30  33
ATOM     31  C   UNL     1      -0.150  -0.343  -2.555  0.00  0.00    -0.097 C 
ATOM     32  C   UNL     1      -0.600   1.774  -3.641  0.00  0.00    -0.097 C 
ATOM     33  N   UNL     1      -0.037   1.126  -2.438  0.00  0.00    +0.377 N 
ATOM     34  H   UNL     1       0.955   1.379  -2.356  0.00  0.00    -0.083 HD
ENDBRANCH  30  33
ENDBRANCH  29  30
ENDBRANCH   4  29
TORSDOF 8
