REMARK  Name = ZINC43526704
REMARK  14 active torsions:
REMARK  status: ('A' for Active; 'I' for Inactive)
REMARK    1  A    between atoms: C_1  and  N_2
REMARK    2  A    between atoms: C_3  and  C_17
REMARK    3  A    between atoms: C_5  and  C_7
REMARK    4  A    between atoms: C_10  and  O_15
REMARK    5  A    between atoms: C_11  and  O_13
REMARK    6  A    between atoms: O_13  and  C_14
REMARK    7  A    between atoms: O_15  and  C_16
REMARK    8  A    between atoms: C_26  and  C_28
REMARK    9  A    between atoms: C_28  and  N_29
REMARK   10  A    between atoms: N_29  and  C_30
REMARK   11  A    between atoms: C_30  and  C_31
REMARK   12  A    between atoms: C_34  and  N_37
REMARK   13  A    between atoms: N_37  and  C_38
REMARK   14  A    between atoms: N_37  and  C_39
REMARK                            x       y       z     vdW  Elec       q    Type
REMARK                         _______ _______ _______ _____ _____    ______ ____
ROOT
ATOM      1  C   UNL     1      -0.006  -0.315  -2.526  0.00  0.00    +0.055 C 
ATOM      2  C   UNL     1       1.433  -0.140  -3.022  0.00  0.00    +0.094 C 
ATOM      3  N   UNL     1       1.662  -1.023  -4.173  0.00  0.00    -0.301 NA
ATOM      4  C   UNL     1       1.504  -2.434  -3.796  0.00  0.00    +0.085 C 
ATOM      5  C   UNL     1       0.069  -2.675  -3.321  0.00  0.00    +0.019 C 
ATOM      6  C   UNL     1      -0.712  -1.354  -3.406  0.00  0.00    +0.002 C 
ATOM      7  C   UNL     1      -0.686  -0.863  -4.859  0.00  0.00    +0.021 C 
ATOM      8  C   UNL     1       0.774  -0.674  -5.291  0.00  0.00    +0.040 C 
ENDROOT
BRANCH   1  11
ATOM      9  C   UNL     1      -2.056   0.406  -0.321  0.00  0.00    +0.172 C 
ATOM     10  N   UNL     1      -0.894  -0.468  -0.144  0.00  0.00    -0.270 N 
ATOM     11  C   UNL     1       0.008  -0.790  -1.096  0.00  0.00    +0.044 A 
ATOM     12  C   UNL     1       0.924  -1.614  -0.541  0.00  0.00    +0.053 A 
ATOM     13  C   UNL     1       0.570  -1.806   0.809  0.00  0.00    +0.093 A 
ATOM     14  N   UNL     1      -0.521  -1.109   1.045  0.00  0.00    -0.171 NA
BRANCH  13  15
ATOM     15  C   UNL     1       1.302  -2.641   1.793  0.00  0.00    +0.006 A 
ATOM     16  C   UNL     1       2.457  -3.320   1.410  0.00  0.00    +0.014 A 
ATOM     17  C   UNL     1       3.138  -4.097   2.325  0.00  0.00    +0.050 A 
ATOM     18  C   UNL     1       2.675  -4.204   3.628  0.00  0.00    +0.162 A 
ATOM     19  C   UNL     1       1.521  -3.527   4.016  0.00  0.00    +0.162 A 
ATOM     20  C   UNL     1       0.839  -2.743   3.103  0.00  0.00    +0.059 A 
BRANCH  19  21
ATOM     21  O   UNL     1       1.068  -3.634   5.294  0.00  0.00    -0.491 OA
ATOM     22  C   UNL     1      -0.121  -2.912   5.623  0.00  0.00    +0.277 C 
ENDBRANCH  19  21
BRANCH  18  23
ATOM     23  O   UNL     1       3.348  -4.970   4.527  0.00  0.00    -0.491 OA
ATOM     24  C   UNL     1       4.523  -5.637   4.060  0.00  0.00    +0.277 C 
ENDBRANCH  18  23
ENDBRANCH  13  15
ENDBRANCH   1  11
BRANCH   8  25
ATOM     25  C   UNL     1       1.075  -1.583  -6.485  0.00  0.00    -0.063 C 
BRANCH  25  26
ATOM     26  N   UNL     1       2.502  -1.492  -6.821  0.00  0.00    +0.383 N 
ATOM     27  H   UNL     1       2.732  -0.538  -7.057  0.00  0.00    -0.085 HD
ATOM     28  H   UNL     1       3.054  -1.784  -6.028  0.00  0.00    -0.085 HD
BRANCH  26  29
ATOM     29  C   UNL     1       2.792  -2.363  -7.967  0.00  0.00    -0.047 C 
BRANCH  29  30
ATOM     30  C   UNL     1       4.256  -2.270  -8.312  0.00  0.00    -0.064 A 
ATOM     31  C   UNL     1       4.693  -1.317  -9.214  0.00  0.00    +0.003 A 
ATOM     32  C   UNL     1       6.034  -1.229  -9.533  0.00  0.00    +0.023 A 
ATOM     33  C   UNL     1       6.944  -2.099  -8.945  0.00  0.00    +0.029 A 
ATOM     34  C   UNL     1       6.502  -3.055  -8.040  0.00  0.00    +0.023 A 
ATOM     35  C   UNL     1       5.160  -3.134  -7.722  0.00  0.00    +0.003 A 
BRANCH  33  36
ATOM     36  N   UNL     1       8.301  -2.013  -9.265  0.00  0.00    -0.336 N 
ATOM     37  C   UNL     1       8.766  -1.004 -10.221  0.00  0.00    +0.129 C 
ATOM     38  C   UNL     1       9.260  -2.931  -8.645  0.00  0.00    +0.129 C 
ENDBRANCH  33  36
ENDBRANCH  29  30
ENDBRANCH  26  29
ENDBRANCH  25  26
ENDBRANCH   8  25
TORSDOF 9
