REMARK  Name = ZINC36812408
REMARK  15 active torsions:
REMARK  status: ('A' for Active; 'I' for Inactive)
REMARK    1  A    between atoms: C_1  and  C_2
REMARK    2  A    between atoms: C_4  and  C_14
REMARK    3  A    between atoms: C_5  and  C_13
REMARK    4  A    between atoms: N_6  and  C_7
REMARK    5  A    between atoms: C_7  and  C_9
REMARK    6  A    between atoms: C_7  and  C_10
REMARK    7  A    between atoms: C_10  and  O_11
REMARK    8  A    between atoms: O_11  and  C_12
REMARK    9  A    between atoms: C_14  and  C_16
REMARK   10  A    between atoms: C_16  and  S_17
REMARK   11  A    between atoms: S_17  and  C_18
REMARK   12  A    between atoms: C_21  and  C_30
REMARK   13  A    between atoms: N_22  and  C_23
REMARK   14  A    between atoms: C_23  and  C_24
REMARK   15  A    between atoms: C_30  and  N_31
REMARK                            x       y       z     vdW  Elec       q    Type
REMARK                         _______ _______ _______ _____ _____    ______ ____
ROOT
ATOM      1  C   UNL     1      -0.440  -5.335  -4.580  0.00  0.00    +0.192 A 
ATOM      2  N   UNL     1      -1.095  -4.374  -5.189  0.00  0.00    -0.123 NA
ATOM      3  N   UNL     1      -1.431  -4.754  -6.370  0.00  0.00    -0.135 NA
ATOM      4  C   UNL     1      -1.014  -5.969  -6.584  0.00  0.00    +0.118 A 
ATOM      5  N   UNL     1      -0.362  -6.381  -5.454  0.00  0.00    -0.303 N 
ENDROOT
BRANCH   1   6
ATOM      6  S   UNL     1       0.221  -5.282  -2.948  0.00  0.00    -0.078 S 
BRANCH   6   7
ATOM      7  C   UNL     1      -0.227  -3.630  -2.346  0.00  0.00    +0.157 C 
BRANCH   7   8
ATOM      8  C   UNL     1       0.286  -3.451  -0.941  0.00  0.00    +0.175 C 
ATOM      9  O   UNL     1       0.894  -4.350  -0.398  0.00  0.00    -0.291 OA
BRANCH   8  13
ATOM     10  C   UNL     1      -1.242   1.276   0.192  0.00  0.00    +0.063 C 
ATOM     11  C   UNL     1      -0.633  -0.101   0.254  0.00  0.00    +0.017 A 
ATOM     12  C   UNL     1      -0.662  -1.011  -0.734  0.00  0.00    +0.034 A 
ATOM     13  C   UNL     1       0.050  -2.192  -0.230  0.00  0.00    +0.039 A 
ATOM     14  C   UNL     1       0.452  -1.872   1.053  0.00  0.00    +0.027 A 
ATOM     15  N   UNL     1       0.040  -0.621   1.322  0.00  0.00    -0.343 N 
ATOM     16  C   UNL     1       1.224  -2.769   1.988  0.00  0.00    +0.064 C 
BRANCH  15  17
ATOM     17  C   UNL     1       0.277   0.085   2.584  0.00  0.00    +0.110 C 
ATOM     18  C   UNL     1       1.768   0.034   2.924  0.00  0.00    +0.033 C 
BRANCH  17  19
ATOM     19  C   UNL     1      -0.523  -0.586   3.701  0.00  0.00    +0.184 C 
BRANCH  19  20
ATOM     20  O   UNL     1      -0.405   0.182   4.900  0.00  0.00    -0.381 OA
ATOM     21  C   UNL     1      -1.119  -0.361   6.012  0.00  0.00    +0.194 C 
ENDBRANCH  19  20
ENDBRANCH  17  19
ENDBRANCH  15  17
ENDBRANCH   8  13
ENDBRANCH   7   8
ENDBRANCH   6   7
ENDBRANCH   1   6
BRANCH   5  22
ATOM     22  C   UNL     1       0.282  -7.677  -5.227  0.00  0.00    +0.160 C 
BRANCH  22  23
ATOM     23  C   UNL     1      -0.718  -8.639  -4.638  0.00  0.00    -0.028 A 
ATOM     24  C   UNL     1      -0.868  -8.727  -3.267  0.00  0.00    +0.005 A 
ATOM     25  C   UNL     1      -1.785  -9.610  -2.727  0.00  0.00    +0.000 A 
ATOM     26  C   UNL     1      -2.553 -10.403  -3.559  0.00  0.00    +0.000 A 
ATOM     27  C   UNL     1      -2.404 -10.314  -4.931  0.00  0.00    +0.000 A 
ATOM     28  C   UNL     1      -1.490  -9.429  -5.470  0.00  0.00    +0.005 A 
ENDBRANCH  22  23
ENDBRANCH   5  22
BRANCH   4  29
ATOM     29  C   UNL     1      -1.207  -6.771  -7.845  0.00  0.00    -0.001 C 
BRANCH  29  30
ATOM     30  N   UNL     1      -0.077  -6.535  -8.754  0.00  0.00    +0.384 N 
ATOM     31  C   UNL     1      -0.075  -5.128  -9.174  0.00  0.00    -0.078 C 
ATOM     32  C   UNL     1       1.146  -4.857 -10.056  0.00  0.00    -0.019 C 
ATOM     33  C   UNL     1       1.087  -5.761 -11.291  0.00  0.00    -0.004 C 
ATOM     34  C   UNL     1       1.010  -7.222 -10.839  0.00  0.00    -0.019 C 
ATOM     35  C   UNL     1      -0.206  -7.405  -9.928  0.00  0.00    -0.078 C 
ATOM     36  H   UNL     1       0.786  -6.742  -8.275  0.00  0.00    -0.081 HD
ENDBRANCH  29  30
ENDBRANCH   4  29
TORSDOF 11
