REMARK  Name = ZINC08846651
REMARK  5 active torsions:
REMARK  status: ('A' for Active; 'I' for Inactive)
REMARK    1  A    between atoms: C_4  and  C_7
REMARK    2  A    between atoms: C_7  and  C_32
REMARK    3  A    between atoms: C_15  and  C_18
REMARK    4  A    between atoms: N_22  and  C_23
REMARK    5  A    between atoms: C_26  and  N_29
REMARK                            x       y       z     vdW  Elec       q    Type
REMARK                         _______ _______ _______ _____ _____    ______ ____
ROOT
ATOM      1  C   UNL     1       2.450   3.956   0.012  0.00  0.00    +0.149 C 
ATOM      2  C   UNL     1       1.145   3.205   0.051  0.00  0.00    +0.014 A 
ATOM      3  C   UNL     1      -0.048   3.902   0.098  0.00  0.00    +0.009 A 
ATOM      4  C   UNL     1      -1.249   3.219   0.140  0.00  0.00    +0.000 A 
ATOM      5  C   UNL     1      -1.264   1.836   0.132  0.00  0.00    +0.002 A 
ATOM      6  C   UNL     1      -0.076   1.132   0.090  0.00  0.00    +0.023 A 
ATOM      7  C   UNL     1       1.130   1.817   0.045  0.00  0.00    +0.036 A 
ATOM      8  N   UNL     1       2.339   1.112  -0.010  0.00  0.00    -0.314 N 
ATOM      9  C   UNL     1       3.583   1.857   0.238  0.00  0.00    +0.254 C 
ATOM     10  O   UNL     1       3.495   3.105  -0.461  0.00  0.00    -0.333 OA
ATOM     11  H   UNL     1       2.355   0.162  -0.206  0.00  0.00    +0.149 HD
ENDROOT
BRANCH   1  15
ATOM     12  C   UNL     1       2.073   7.318  -2.596  0.00  0.00    +0.000 A 
ATOM     13  C   UNL     1       1.635   7.406  -1.288  0.00  0.00    +0.000 A 
ATOM     14  C   UNL     1       1.757   6.318  -0.444  0.00  0.00    +0.007 A 
ATOM     15  C   UNL     1       2.317   5.142  -0.908  0.00  0.00    -0.007 A 
ATOM     16  C   UNL     1       2.760   5.056  -2.215  0.00  0.00    +0.007 A 
ATOM     17  C   UNL     1       2.633   6.142  -3.061  0.00  0.00    +0.000 A 
ENDBRANCH   1  15
BRANCH   1  18
ATOM     18  C   UNL     1       2.789   4.440   1.399  0.00  0.00    -0.007 A 
ATOM     19  C   UNL     1       1.778   4.746   2.291  0.00  0.00    +0.007 A 
ATOM     20  C   UNL     1       2.090   5.184   3.564  0.00  0.00    +0.000 A 
ATOM     21  C   UNL     1       3.412   5.328   3.942  0.00  0.00    +0.000 A 
ATOM     22  C   UNL     1       4.422   5.028   3.048  0.00  0.00    +0.000 A 
ATOM     23  C   UNL     1       4.111   4.584   1.777  0.00  0.00    +0.007 A 
ENDBRANCH   1  18
BRANCH   9  24
ATOM     24  C   UNL     1       4.761   1.068  -0.273  0.00  0.00    +0.071 A 
ATOM     25  C   UNL     1       5.901   1.585  -0.775  0.00  0.00    +0.027 A 
ATOM     26  C   UNL     1       6.734   0.505  -1.131  0.00  0.00    +0.020 A 
ATOM     27  C   UNL     1       6.069  -0.632  -0.840  0.00  0.00    +0.092 A 
ATOM     28  N   UNL     1       4.856  -0.293  -0.312  0.00  0.00    -0.316 N 
BRANCH  28  29
ATOM     29  C   UNL     1       3.872  -1.195   0.117  0.00  0.00    +0.047 A 
ATOM     30  C   UNL     1       3.299  -1.052   1.374  0.00  0.00    +0.028 A 
ATOM     31  C   UNL     1       2.326  -1.938   1.793  0.00  0.00    +0.035 A 
ATOM     32  C   UNL     1       1.929  -2.973   0.966  0.00  0.00    +0.126 A 
ATOM     33  C   UNL     1       2.501  -3.120  -0.285  0.00  0.00    +0.035 A 
ATOM     34  C   UNL     1       3.471  -2.234  -0.711  0.00  0.00    +0.028 A 
BRANCH  32  35
ATOM     35  N   UNL     1       0.890  -3.924   1.419  0.00  0.00    +0.056 N 
ATOM     36  O   UNL     1       0.539  -4.836   0.692  0.00  0.00    -0.126 OA
ATOM     37  O   UNL     1       0.385  -3.795   2.520  0.00  0.00    -0.126 OA
ENDBRANCH  32  35
ENDBRANCH  28  29
ENDBRANCH   9  24
TORSDOF 5
