REMARK  Name = ZINC52095117
REMARK  3 active torsions:
REMARK  status: ('A' for Active; 'I' for Inactive)
REMARK    1  A    between atoms: C_2  and  C_14
REMARK    2  A    between atoms: C_14  and  C_16
REMARK    3  A    between atoms: C_16  and  C_17
REMARK                            x       y       z     vdW  Elec       q    Type
REMARK                         _______ _______ _______ _____ _____    ______ ____
ROOT
ATOM      1  C   UNL     1      -0.009   1.383  -0.138  0.00  0.00    +0.034 A 
ATOM      2  C   UNL     1       1.172   2.086   0.002  0.00  0.00    -0.008 A 
ATOM      3  C   UNL     1       2.374   1.412   0.135  0.00  0.00    +0.025 A 
ATOM      4  C   UNL     1       2.402   0.030   0.129  0.00  0.00    +0.043 A 
ATOM      5  C   UNL     1       1.222  -0.683  -0.012  0.00  0.00    +0.068 A 
ATOM      6  C   UNL     1       0.010  -0.003  -0.146  0.00  0.00    +0.067 A 
ATOM      7  N   UNL     1      -0.984  -0.972  -0.267  0.00  0.00    -0.306 N 
ATOM      8  H   UNL     1      -1.933  -0.802  -0.375  0.00  0.00    +0.170 HD
ATOM      9  C   UNL     1      -0.403  -2.185  -0.209  0.00  0.00    +0.325 A 
ATOM     10  O   UNL     1      -0.991  -3.248  -0.283  0.00  0.00    -0.247 OA
ATOM     11  N   UNL     1       0.927  -2.044  -0.055  0.00  0.00    -0.306 N 
ATOM     12  H   UNL     1       1.571  -2.767   0.013  0.00  0.00    +0.170 HD
ATOM     13 BR   UNL     1       3.984   2.386   0.326  0.00  0.00    -0.050 Br
ENDROOT
BRANCH   2  14
ATOM     14  C   UNL     1       1.151   3.593   0.010  0.00  0.00    +0.190 C 
ATOM     15 CL   UNL     1      -0.449   4.169   0.609  0.00  0.00    -0.110 Cl
BRANCH  14  16
ATOM     16  C   UNL     1       1.382   4.113  -1.410  0.00  0.00    +0.361 C 
ATOM     17  F   UNL     1       2.623   3.666  -1.875  0.00  0.00    -0.194 F 
ATOM     18  F   UNL     1       0.370   3.638  -2.251  0.00  0.00    -0.194 F 
BRANCH  16  19
ATOM     19  C   UNL     1       1.361   5.643  -1.402  0.00  0.00    +0.456 C 
ATOM     20  F   UNL     1       2.373   6.119  -0.562  0.00  0.00    -0.165 F 
ATOM     21  F   UNL     1       1.571   6.119  -2.701  0.00  0.00    -0.165 F 
ATOM     22  F   UNL     1       0.119   6.090  -0.937  0.00  0.00    -0.165 F 
ENDBRANCH  16  19
ENDBRANCH  14  16
ENDBRANCH   2  14
TORSDOF 3
