REMARK  Name = ZINC20920962
REMARK  8 active torsions:
REMARK  status: ('A' for Active; 'I' for Inactive)
REMARK    1  A    between atoms: C_1  and  C_2
REMARK    2  A    between atoms: C_2  and  C_3
REMARK    3  A    between atoms: C_8  and  N_9
REMARK    4  A    between atoms: C_10  and  C_12
REMARK    5  A    between atoms: C_12  and  N_13
REMARK    6  A    between atoms: C_21  and  C_23
REMARK    7  A    between atoms: C_28  and  O_29
REMARK    8  A    between atoms: O_29  and  C_30
REMARK                            x       y       z     vdW  Elec       q    Type
REMARK                         _______ _______ _______ _____ _____    ______ ____
ROOT
ATOM      1  N   UNL     1      -1.377   5.702  -4.401  0.00  0.00    +0.393 N 
ATOM      2  C   UNL     1      -2.071   4.410  -4.495  0.00  0.00    -0.072 C 
ATOM      3  C   UNL     1      -1.351   3.359  -3.646  0.00  0.00    +0.018 C 
ATOM      4  C   UNL     1      -1.175   3.925  -2.238  0.00  0.00    -0.037 A 
ATOM      5  C   UNL     1      -0.894   3.121  -1.121  0.00  0.00    -0.034 A 
ATOM      6  C   UNL     1      -0.764   3.742   0.081  0.00  0.00    -0.007 A 
ATOM      7  S   UNL     1      -1.023   5.456  -0.297  0.00  0.00    -0.099 S 
ATOM      8  C   UNL     1      -1.293   5.265  -2.038  0.00  0.00    -0.016 A 
ATOM      9  C   UNL     1      -1.582   6.306  -3.069  0.00  0.00    +0.005 C 
ATOM     10  C   UNL     1      -0.473   3.115   1.406  0.00  0.00    +0.043 C 
ATOM     11  C   UNL     1      -0.700   1.601   1.282  0.00  0.00    +0.005 C 
ATOM     12  C   UNL     1       0.002   1.102   0.016  0.00  0.00    +0.005 C 
ATOM     13  C   UNL     1      -0.737   1.606  -1.224  0.00  0.00    +0.036 C 
ATOM     14  H   UNL     1      -0.301   5.522  -4.539  0.00  0.00    -0.080 HD
ENDROOT
BRANCH   9  15
ATOM     15  C   UNL     1      -0.645   7.473  -2.890  0.00  0.00    -0.014 A 
ATOM     16  C   UNL     1       0.468   7.596  -3.699  0.00  0.00    +0.006 A 
ATOM     17  C   UNL     1       1.328   8.667  -3.535  0.00  0.00    +0.000 A 
ATOM     18  C   UNL     1       1.075   9.617  -2.563  0.00  0.00    +0.004 A 
ATOM     19  C   UNL     1      -0.037   9.498  -1.752  0.00  0.00    +0.046 A 
ATOM     20  C   UNL     1      -0.903   8.427  -1.917  0.00  0.00    +0.122 A 
BRANCH  20  21
ATOM     21  O   UNL     1      -2.001   8.311  -1.124  0.00  0.00    -0.495 OA
ATOM     22  C   UNL     1      -2.203   9.331  -0.144  0.00  0.00    +0.277 C 
ENDBRANCH  20  21
ENDBRANCH   9  15
BRANCH   1  23
ATOM     23  C   UNL     1      -1.816   6.615  -5.465  0.00  0.00    +0.020 C 
BRANCH  23  25
ATOM     24  N   UNL     1      -1.665   6.754  -7.930  0.00  0.00    -0.287 N 
ATOM     25  C   UNL     1      -1.372   6.078  -6.801  0.00  0.00    +0.201 C 
ATOM     26  O   UNL     1      -0.751   5.038  -6.861  0.00  0.00    -0.278 OA
ATOM     27  H   UNL     1      -2.305   7.648  -7.886  0.00  0.00    +0.155 HD
BRANCH  24  33
ATOM     28  C   UNL     1      -1.810   6.646 -10.338  0.00  0.00    -0.026 A 
ATOM     29  C   UNL     1      -1.304   6.215 -11.549  0.00  0.00    +0.005 A 
ATOM     30  C   UNL     1      -0.147   5.459 -11.587  0.00  0.00    +0.000 A 
ATOM     31  C   UNL     1       0.508   5.133 -10.414  0.00  0.00    +0.002 A 
ATOM     32  C   UNL     1       0.010   5.564  -9.200  0.00  0.00    +0.023 A 
ATOM     33  C   UNL     1      -1.155   6.319  -9.158  0.00  0.00    +0.036 A 
BRANCH  28  35
ATOM     34  C   UNL     1      -2.708   8.956 -10.261  0.00  0.00    +0.009 C 
ATOM     35  C   UNL     1      -3.071   7.470 -10.298  0.00  0.00    +0.033 C 
ENDBRANCH  28  35
ENDBRANCH  24  33
ENDBRANCH  23  25
ENDBRANCH   1  23
TORSDOF 6
