REMARK  Name = ZINC03387222
REMARK  9 active torsions:
REMARK  status: ('A' for Active; 'I' for Inactive)
REMARK    1  A    between atoms: C_1  and  C_2
REMARK    2  A    between atoms: C_2  and  C_4
REMARK    3  A    between atoms: C_2  and  O_16
REMARK    4  A    between atoms: N_6  and  C_7
REMARK    5  A    between atoms: O_16  and  C_17
REMARK    6  A    between atoms: C_17  and  C_19
REMARK    7  A    between atoms: C_22  and  C_25
REMARK    8  A    between atoms: C_25  and  C_26
REMARK    9  A    between atoms: C_25  and  C_27
REMARK                            x       y       z     vdW  Elec       q    Type
REMARK                         _______ _______ _______ _____ _____    ______ ____
ROOT
ATOM      1  C   UNL     1      -0.033   1.520   0.013  0.00  0.00    +0.062 C 
ATOM      2  C   UNL     1      -0.002  -0.010   0.002  0.00  0.00    +0.259 C 
ENDROOT
BRANCH   2   3
ATOM      3  C   UNL     1       0.708  -0.488  -1.238  0.00  0.00    +0.258 C 
ATOM      4  O   UNL     1       1.758  -1.088  -1.142  0.00  0.00    -0.271 OA
ATOM      5  N   UNL     1       0.176  -0.250  -2.453  0.00  0.00    -0.282 N 
ATOM      6  H   UNL     1      -0.695   0.170  -2.527  0.00  0.00    +0.155 HD
BRANCH   5   7
ATOM      7  C   UNL     1       0.882  -0.609  -3.609  0.00  0.00    +0.037 A 
ATOM      8  C   UNL     1       0.802   0.185  -4.745  0.00  0.00    +0.027 A 
ATOM      9  C   UNL     1       1.498  -0.167  -5.886  0.00  0.00    +0.051 A 
ATOM     10  C   UNL     1       2.276  -1.313  -5.900  0.00  0.00    +0.166 A 
ATOM     11  C   UNL     1       2.358  -2.111  -4.761  0.00  0.00    +0.168 A 
ATOM     12  C   UNL     1       1.665  -1.754  -3.617  0.00  0.00    +0.072 A 
ATOM     13  O   UNL     1       3.178  -3.169  -5.029  0.00  0.00    -0.453 OA
ATOM     14  C   UNL     1       3.271  -3.231  -6.464  0.00  0.00    +0.466 C 
ATOM     15  O   UNL     1       3.046  -1.871  -6.880  0.00  0.00    -0.453 OA
ENDBRANCH   5   7
ENDBRANCH   2   3
BRANCH   2  16
ATOM     16  O   UNL     1       0.692  -0.480   1.160  0.00  0.00    -0.449 OA
BRANCH  16  17
ATOM     17  C   UNL     1      -0.045  -0.707   2.264  0.00  0.00    +0.340 C 
ATOM     18  O   UNL     1      -1.244  -0.511   2.245  0.00  0.00    -0.245 OA
BRANCH  17  19
ATOM     19  C   UNL     1       0.605  -1.195   3.498  0.00  0.00    +0.059 A 
ATOM     20  C   UNL     1       1.983  -1.415   3.525  0.00  0.00    +0.015 A 
ATOM     21  C   UNL     1       2.583  -1.871   4.681  0.00  0.00    +0.005 A 
ATOM     22  C   UNL     1       1.822  -2.108   5.812  0.00  0.00    -0.045 A 
ATOM     23  C   UNL     1       0.456  -1.892   5.792  0.00  0.00    +0.005 A 
ATOM     24  C   UNL     1      -0.156  -1.431   4.645  0.00  0.00    +0.015 A 
BRANCH  22  25
ATOM     25  C   UNL     1       2.485  -2.606   7.071  0.00  0.00    +0.013 C 
ATOM     26  C   UNL     1       2.252  -1.601   8.201  0.00  0.00    +0.012 C 
ATOM     27  C   UNL     1       1.888  -3.959   7.460  0.00  0.00    +0.012 C 
ENDBRANCH  22  25
ENDBRANCH  17  19
ENDBRANCH  16  17
ENDBRANCH   2  16
TORSDOF 6
