REMARK  Name = ZINC12549983
REMARK  8 active torsions:
REMARK  status: ('A' for Active; 'I' for Inactive)
REMARK    1  A    between atoms: C_1  and  C_2
REMARK    2  A    between atoms: C_2  and  C_3
REMARK    3  A    between atoms: C_3  and  C_4
REMARK    4  A    between atoms: C_4  and  C_23
REMARK    5  A    between atoms: N_7  and  C_11
REMARK    6  A    between atoms: C_11  and  C_12
REMARK    7  A    between atoms: N_14  and  C_15
REMARK    8  A    between atoms: C_20  and  C_21
REMARK                            x       y       z     vdW  Elec       q    Type
REMARK                         _______ _______ _______ _____ _____    ______ ____
ROOT
ATOM      1  C   UNL     1      -0.004   0.004  -0.014  0.00  0.00    +0.138 C 
ATOM      2  C   UNL     1       0.719  -0.509  -1.243  0.00  0.00    +0.251 C 
ATOM      3  O   UNL     1       0.414  -0.326  -2.402  0.00  0.00    -0.272 OA
ATOM      4  N   UNL     1       1.771  -1.213  -0.779  0.00  0.00    -0.215 N 
ATOM      5  C   UNL     1       1.812  -1.215   0.558  0.00  0.00    +0.310 C 
ATOM      6  O   UNL     1       2.669  -1.782   1.207  0.00  0.00    -0.252 OA
ATOM      7  N   UNL     1       0.799  -0.518   1.105  0.00  0.00    -0.281 N 
ATOM      8  H   UNL     1       0.631  -0.385   2.051  0.00  0.00    +0.152 HD
ENDROOT
BRANCH   1   9
ATOM      9  C   UNL     1      -1.409  -0.537   0.040  0.00  0.00    -0.015 A 
ATOM     10  C   UNL     1      -2.452   0.190  -0.503  0.00  0.00    +0.006 A 
ATOM     11  C   UNL     1      -3.740  -0.310  -0.458  0.00  0.00    +0.000 A 
ATOM     12  C   UNL     1      -3.987  -1.532   0.140  0.00  0.00    +0.000 A 
ATOM     13  C   UNL     1      -2.945  -2.256   0.687  0.00  0.00    +0.000 A 
ATOM     14  C   UNL     1      -1.656  -1.759   0.637  0.00  0.00    +0.006 A 
ENDBRANCH   1   9
BRANCH   1  15
ATOM     15  C   UNL     1      -0.018   1.534   0.002  0.00  0.00    +0.040 C 
BRANCH  15  17
ATOM     16  C   UNL     1       1.406   3.587   0.017  0.00  0.00    +0.004 C 
ATOM     17  C   UNL     1       1.420   2.058   0.001  0.00  0.00    -0.000 C 
ENDBRANCH  15  17
ENDBRANCH   1  15
BRANCH   4  18
ATOM     18  C   UNL     1       2.748  -1.891  -1.633  0.00  0.00    +0.214 C 
BRANCH  18  19
ATOM     19  C   UNL     1       3.880  -0.948  -1.949  0.00  0.00    +0.235 C 
ATOM     20  O   UNL     1       3.871   0.181  -1.503  0.00  0.00    -0.274 OA
ATOM     21  N   UNL     1       4.903  -1.357  -2.725  0.00  0.00    -0.284 N 
ATOM     22  H   UNL     1       4.951  -2.281  -3.016  0.00  0.00    +0.155 HD
BRANCH  21  23
ATOM     23  C   UNL     1       5.894  -0.449  -3.114  0.00  0.00    +0.036 A 
ATOM     24  C   UNL     1       5.611   0.910  -3.167  0.00  0.00    +0.024 A 
ATOM     25  C   UNL     1       6.592   1.804  -3.546  0.00  0.00    +0.017 A 
ATOM     26  C   UNL     1       7.854   1.347  -3.881  0.00  0.00    +0.018 A 
ATOM     27  C   UNL     1       8.138  -0.006  -3.833  0.00  0.00    +0.020 A 
ATOM     28  C   UNL     1       7.162  -0.904  -3.450  0.00  0.00    -0.028 A 
ATOM     29  C   UNL     1       7.472  -2.378  -3.398  0.00  0.00    +0.046 C 
ATOM     30 BR   UNL     1       9.194   2.575  -4.407  0.00  0.00    -0.050 Br
ENDBRANCH  21  23
ENDBRANCH  18  19
ENDBRANCH   4  18
TORSDOF 6
