REMARK  Name = ZINC64716235
REMARK  8 active torsions:
REMARK  status: ('A' for Active; 'I' for Inactive)
REMARK    1  A    between atoms: C_1  and  O_2
REMARK    2  A    between atoms: O_2  and  C_3
REMARK    3  A    between atoms: C_6  and  C_9
REMARK    4  A    between atoms: C_9  and  C_11
REMARK    5  A    between atoms: C_9  and  C_29
REMARK    6  A    between atoms: C_11  and  N_12
REMARK    7  A    between atoms: C_13  and  C_15
REMARK    8  A    between atoms: C_15  and  N_16
REMARK                            x       y       z     vdW  Elec       q    Type
REMARK                         _______ _______ _______ _____ _____    ______ ____
ROOT
ATOM      1  C   UNL     1       3.743  -3.400   3.781  0.00  0.00    +0.116 C 
ENDROOT
BRANCH   1   2
ATOM      2  N   UNL     1       4.489  -3.967   4.907  0.00  0.00    -0.313 N 
ATOM      3  C   UNL     1       5.557  -4.756   4.680  0.00  0.00    +0.231 C 
ATOM      4  O   UNL     1       5.902  -4.997   3.542  0.00  0.00    -0.274 OA
ATOM      5  H   UNL     1       4.213  -3.774   5.817  0.00  0.00    +0.149 HD
BRANCH   3   6
ATOM      6  C   UNL     1       6.324  -5.339   5.839  0.00  0.00    +0.213 C 
BRANCH   6   7
ATOM      7  N   UNL     1       7.431  -6.153   5.332  0.00  0.00    -0.215 N 
ATOM      8  C   UNL     1       7.338  -7.467   5.054  0.00  0.00    +0.247 C 
ATOM      9  O   UNL     1       6.359  -8.172   5.174  0.00  0.00    -0.273 OA
ATOM     10  C   UNL     1       8.713  -7.885   4.558  0.00  0.00    +0.113 C 
ATOM     11  C   UNL     1       8.579  -8.276   3.069  0.00  0.00    +0.035 C 
ATOM     12  C   UNL     1       9.921  -8.130   2.406  0.00  0.00    +0.003 C 
ATOM     13  C   UNL     1      10.719  -9.448   2.384  0.00  0.00    +0.000 C 
ATOM     14  C   UNL     1      10.624 -10.227   3.709  0.00  0.00    +0.000 C 
ATOM     15  C   UNL     1      10.721  -9.324   4.910  0.00  0.00    +0.003 C 
ATOM     16  C   UNL     1       9.294  -8.955   5.358  0.00  0.00    +0.035 C 
ATOM     17  N   UNL     1       9.492  -6.632   4.628  0.00  0.00    -0.285 N 
ATOM     18  C   UNL     1       8.658  -5.681   5.082  0.00  0.00    +0.310 C 
ATOM     19  O   UNL     1       8.983  -4.522   5.252  0.00  0.00    -0.252 OA
ATOM     20  H   UNL     1      10.425  -6.517   4.389  0.00  0.00    +0.151 HD
ENDBRANCH   6   7
ENDBRANCH   3   6
ENDBRANCH   1   2
BRANCH   1  21
ATOM     21  C   UNL     1       2.587  -2.550   4.310  0.00  0.00    +0.064 C 
BRANCH  21  22
ATOM     22  C   UNL     1       1.604  -3.434   5.035  0.00  0.00    -0.033 C 
ATOM     23  C   UNL     1       1.228  -3.340   6.330  0.00  0.00    -0.000 A 
ATOM     24  C   UNL     1       1.607  -2.424   7.412  0.00  0.00    +0.010 A 
ATOM     25  C   UNL     1       1.048  -2.583   8.633  0.00  0.00    +0.001 A 
ATOM     26  C   UNL     1       0.119  -3.600   8.891  0.00  0.00    +0.002 A 
ATOM     27  C   UNL     1      -0.279  -4.481   7.949  0.00  0.00    +0.026 A 
ATOM     28  C   UNL     1       0.244  -4.405   6.628  0.00  0.00    +0.043 A 
ATOM     29  N   UNL     1       0.020  -5.129   5.558  0.00  0.00    -0.380 N 
ATOM     30  C   UNL     1       0.834  -4.601   4.458  0.00  0.00    +0.145 C 
ATOM     31  H   UNL     1      -0.585  -5.885   5.503  0.00  0.00    +0.160 HD
ENDBRANCH  21  22
BRANCH  21  35
ATOM     32  C   UNL     1       0.626  -0.618   1.042  0.00  0.00    +0.120 A 
ATOM     33  C   UNL     1       1.202   0.138   2.051  0.00  0.00    +0.046 A 
ATOM     34  C   UNL     1       1.835  -0.488   3.107  0.00  0.00    +0.008 A 
ATOM     35  C   UNL     1       1.895  -1.869   3.158  0.00  0.00    -0.038 A 
ATOM     36  C   UNL     1       1.322  -2.625   2.152  0.00  0.00    +0.008 A 
ATOM     37  C   UNL     1       0.682  -2.003   1.098  0.00  0.00    +0.046 A 
BRANCH  32  39
ATOM     38  C   UNL     1      -0.017   1.425   0.010  0.00  0.00    +0.277 C 
ATOM     39  O   UNL     1       0.002  -0.004   0.002  0.00  0.00    -0.495 OA
ENDBRANCH  32  39
ENDBRANCH  21  35
ENDBRANCH   1  21
TORSDOF 7
