REMARK  Name = ZINC59292944
REMARK  8 active torsions:
REMARK  status: ('A' for Active; 'I' for Inactive)
REMARK    1  A    between atoms: C_1  and  C_2
REMARK    2  A    between atoms: C_2  and  C_3
REMARK    3  A    between atoms: C_3  and  C_4
REMARK    4  A    between atoms: C_4  and  O_5
REMARK    5  A    between atoms: O_5  and  C_6
REMARK    6  A    between atoms: C_6  and  C_8
REMARK    7  A    between atoms: C_9  and  N_30
REMARK    8  A    between atoms: C_13  and  C_29
REMARK                            x       y       z     vdW  Elec       q    Type
REMARK                         _______ _______ _______ _____ _____    ______ ____
ROOT
ATOM      1  C   UNL     1       2.162  -4.346  -3.732  0.00  0.00    +0.117 C 
ATOM      2  C   UNL     1       2.343  -5.688  -3.839  0.00  0.00    +0.196 C 
ATOM      3  O   UNL     1       2.951  -6.239  -4.903  0.00  0.00    -0.441 OA
ATOM      4  C   UNL     1       3.075  -5.540  -6.050  0.00  0.00    +0.145 A 
ATOM      5  C   UNL     1       3.351  -6.207  -7.265  0.00  0.00    +0.088 A 
ATOM      6  C   UNL     1       3.477  -5.494  -8.400  0.00  0.00    +0.110 A 
ATOM      7  O   UNL     1       3.350  -4.162  -8.416  0.00  0.00    -0.427 OA
ATOM      8  C   UNL     1       3.079  -3.490  -7.287  0.00  0.00    +0.345 A 
ATOM      9  O   UNL     1       2.955  -2.277  -7.321  0.00  0.00    -0.245 OA
ATOM     10  C   UNL     1       2.936  -4.168  -6.070  0.00  0.00    +0.103 A 
ATOM     11  C   UNL     1       2.631  -3.413  -4.811  0.00  0.00    +0.145 C 
ATOM     12  C   UNL     1       3.825  -2.630  -4.361  0.00  0.00    -0.001 A 
ATOM     13  C   UNL     1       5.087  -3.031  -3.978  0.00  0.00    +0.022 A 
ATOM     14  C   UNL     1       5.982  -2.031  -3.610  0.00  0.00    +0.018 A 
ATOM     15  C   UNL     1       5.619  -0.699  -3.629  0.00  0.00    +0.017 A 
ATOM     16  C   UNL     1       4.352  -0.289  -4.013  0.00  0.00    +0.025 A 
ATOM     17  C   UNL     1       3.445  -1.283  -4.384  0.00  0.00    +0.038 A 
ATOM     18  N   UNL     1       2.132  -1.162  -4.805  0.00  0.00    -0.284 N 
ATOM     19  C   UNL     1       1.575  -2.360  -5.078  0.00  0.00    +0.237 C 
ATOM     20  O   UNL     1       0.443  -2.557  -5.465  0.00  0.00    -0.274 OA
ATOM     21 BR   UNL     1       7.732  -2.506  -3.073  0.00  0.00    -0.050 Br
ATOM     22  C   UNL     1       3.771  -6.216  -9.689  0.00  0.00    +0.086 C 
ATOM     23  H   UNL     1       1.667  -0.315  -4.894  0.00  0.00    +0.155 HD
ENDROOT
BRANCH   2  24
ATOM     24  N   UNL     1       1.894  -6.502  -2.835  0.00  0.00    -0.329 N 
ATOM     25  H   UNL     1       1.387  -6.128  -2.097  0.00  0.00    +0.145 HD
ATOM     26  H   UNL     1       2.083  -7.453  -2.860  0.00  0.00    +0.145 HD
ENDBRANCH   2  24
BRANCH   1  27
ATOM     27  C   UNL     1       1.522  -3.824  -2.598  0.00  0.00    +0.342 C 
ATOM     28  O   UNL     1       2.180  -3.326  -1.702  0.00  0.00    -0.245 OA
BRANCH  27  29
ATOM     29  O   UNL     1       0.175  -3.874  -2.499  0.00  0.00    -0.461 OA
BRANCH  29  30
ATOM     30  C   UNL     1      -0.409  -3.324  -1.317  0.00  0.00    +0.232 C 
BRANCH  30  31
ATOM     31  C   UNL     1      -1.931  -3.471  -1.386  0.00  0.00    +0.041 C 
BRANCH  31  33
ATOM     32  C   UNL     1      -4.079  -3.028  -0.188  0.00  0.00    +0.004 C 
ATOM     33  C   UNL     1      -2.557  -2.882  -0.120  0.00  0.00    -0.000 C 
ENDBRANCH  31  33
ENDBRANCH  30  31
ENDBRANCH  29  30
ENDBRANCH  27  29
ENDBRANCH   1  27
TORSDOF 6
