REMARK  Name = ZINC03197658
REMARK  8 active torsions:
REMARK  status: ('A' for Active; 'I' for Inactive)
REMARK    1  A    between atoms: C_1  and  C_2
REMARK    2  A    between atoms: C_2  and  N_3
REMARK    3  A    between atoms: N_3  and  C_4
REMARK    4  A    between atoms: N_3  and  C_6
REMARK    5  A    between atoms: C_4  and  C_5
REMARK    6  A    between atoms: N_15  and  C_24
REMARK    7  A    between atoms: P_16  and  C_18
REMARK    8  A    between atoms: C_21  and  C_23
REMARK                            x       y       z     vdW  Elec       q    Type
REMARK                         _______ _______ _______ _____ _____    ______ ____
ROOT
ATOM      1  C   UNL     1       0.948  -1.888   1.009  0.00  0.00    +0.017 A 
ATOM      2  C   UNL     1      -0.126  -2.728   0.778  0.00  0.00    +0.022 A 
ATOM      3  C   UNL     1       0.088  -4.086   0.599  0.00  0.00    +0.016 A 
ATOM      4  C   UNL     1       1.367  -4.583   0.656  0.00  0.00    +0.049 A 
ATOM      5  C   UNL     1       2.455  -3.750   0.894  0.00  0.00    +0.145 A 
ATOM      6  C   UNL     1       2.233  -2.389   1.061  0.00  0.00    +0.068 A 
ATOM      7  O   UNL     1       3.703  -4.256   0.967  0.00  0.00    -0.410 OA
ATOM      8  C   UNL     1       4.106  -5.416   0.470  0.00  0.00    +0.417 C 
ATOM      9  O   UNL     1       5.293  -5.526   0.237  0.00  0.00    -0.225 OA
ATOM     10  N   UNL     1       3.337  -6.484   0.198  0.00  0.00    -0.200 N 
ATOM     11  P   UNL     1       1.707  -6.355   0.420  0.00  0.00    +0.115 P 
ATOM     12  S   UNL     1       0.804  -6.986  -1.084  0.00  0.00    -0.033 S 
ENDROOT
BRANCH  10  13
ATOM     13  C   UNL     1       3.906  -7.677  -0.262  0.00  0.00    +0.044 A 
ATOM     14  C   UNL     1       4.096  -7.878  -1.623  0.00  0.00    +0.025 A 
ATOM     15  C   UNL     1       4.658  -9.056  -2.074  0.00  0.00    +0.022 A 
ATOM     16  C   UNL     1       5.031 -10.036  -1.171  0.00  0.00    +0.041 A 
ATOM     17  C   UNL     1       4.843  -9.839   0.186  0.00  0.00    +0.022 A 
ATOM     18  C   UNL     1       4.287  -8.660   0.642  0.00  0.00    +0.025 A 
ATOM     19 CL   UNL     1       5.737 -11.517  -1.741  0.00  0.00    -0.084 Cl
ENDBRANCH  10  13
BRANCH  11  20
ATOM     20  C   UNL     1       1.201  -7.289   1.891  0.00  0.00    +0.155 A 
ATOM     21  C   UNL     1       1.047  -8.623   1.960  0.00  0.00    +0.052 A 
ATOM     22  C   UNL     1       0.647  -8.920   3.284  0.00  0.00    +0.045 A 
ATOM     23  C   UNL     1       0.581  -7.750   3.943  0.00  0.00    +0.103 A 
ATOM     24  O   UNL     1       0.923  -6.766   3.096  0.00  0.00    -0.458 OA
ATOM     25  C   UNL     1       0.194  -7.573   5.389  0.00  0.00    +0.086 C 
ENDBRANCH  11  20
BRANCH   1  26
ATOM     26  N   UNL     1       0.730  -0.518   1.185  0.00  0.00    -0.394 NA
ATOM     27  H   UNL     1       1.613  -0.054   1.338  0.00  0.00    +0.126 HD
BRANCH  26  29
ATOM     28  C   UNL     1       1.055  -0.054  -1.198  0.00  0.00    +0.022 C 
ATOM     29  C   UNL     1       0.088   0.034  -0.015  0.00  0.00    +0.081 C 
ENDBRANCH  26  29
BRANCH  26  30
ATOM     30  C   UNL     1      -0.142  -0.307   2.348  0.00  0.00    +0.081 C 
ATOM     31  C   UNL     1       0.580  -0.765   3.617  0.00  0.00    +0.022 C 
ENDBRANCH  26  30
ENDBRANCH   1  26
TORSDOF 5
