REMARK  Name = ZINC10357294
REMARK  6 active torsions:
REMARK  status: ('A' for Active; 'I' for Inactive)
REMARK    1  A    between atoms: C_1  and  C_2
REMARK    2  A    between atoms: C_2  and  C_4
REMARK    3  A    between atoms: C_2  and  N_13
REMARK    4  A    between atoms: N_16  and  C_17
REMARK    5  A    between atoms: C_17  and  C_19
REMARK    6  A    between atoms: C_17  and  C_25
REMARK                            x       y       z     vdW  Elec       q    Type
REMARK                         _______ _______ _______ _____ _____    ______ ____
ROOT
ATOM      1  N   UNL     1       0.711  -0.489   1.189  0.00  0.00    -0.293 N 
ATOM      2  C   UNL     1       0.051  -0.633   2.355  0.00  0.00    +0.301 C 
ATOM      3  O   UNL     1      -1.132  -0.361   2.423  0.00  0.00    -0.253 OA
ATOM      4  N   UNL     1       0.703  -1.080   3.447  0.00  0.00    -0.292 N 
ATOM      5  H   UNL     1       1.654  -0.707   1.135  0.00  0.00    +0.151 HD
ATOM      6  H   UNL     1       1.647  -1.298   3.394  0.00  0.00    +0.151 HD
ENDROOT
BRANCH   1   8
ATOM      7  C   UNL     1      -0.019   1.526   0.010  0.00  0.00    +0.033 C 
ATOM      8  C   UNL     1       0.002  -0.004   0.002  0.00  0.00    +0.102 C 
BRANCH   8   9
ATOM      9  C   UNL     1       0.707  -0.490  -1.238  0.00  0.00    -0.024 A 
ATOM     10  C   UNL     1       2.089  -0.510  -1.282  0.00  0.00    +0.009 A 
ATOM     11  C   UNL     1       2.741  -0.956  -2.417  0.00  0.00    +0.050 A 
ATOM     12  C   UNL     1       2.010  -1.383  -3.514  0.00  0.00    +0.166 A 
ATOM     13  C   UNL     1       0.618  -1.362  -3.469  0.00  0.00    +0.167 A 
ATOM     14  C   UNL     1      -0.028  -0.920  -2.326  0.00  0.00    +0.055 A 
ATOM     15  O   UNL     1       0.136  -1.827  -4.659  0.00  0.00    -0.453 OA
ATOM     16  C   UNL     1       1.241  -1.746  -5.579  0.00  0.00    +0.466 C 
ATOM     17  O   UNL     1       2.400  -1.860  -4.732  0.00  0.00    -0.453 OA
ENDBRANCH   8   9
ENDBRANCH   1   8
BRANCH   4  18
ATOM     18  C   UNL     1      -0.014  -1.237   4.715  0.00  0.00    +0.108 C 
BRANCH  18  19
ATOM     19  C   UNL     1       0.685  -2.268   5.563  0.00  0.00    -0.027 A 
ATOM     20  C   UNL     1       2.066  -2.304   5.611  0.00  0.00    +0.005 A 
ATOM     21  C   UNL     1       2.706  -3.251   6.388  0.00  0.00    +0.000 A 
ATOM     22  C   UNL     1       1.966  -4.161   7.119  0.00  0.00    +0.000 A 
ATOM     23  C   UNL     1       0.585  -4.125   7.072  0.00  0.00    +0.000 A 
ATOM     24  C   UNL     1      -0.056  -3.176   6.298  0.00  0.00    +0.005 A 
ENDBRANCH  18  19
BRANCH  18  25
ATOM     25  C   UNL     1      -0.037   0.102   5.457  0.00  0.00    +0.014 C 
ATOM     26  C   UNL     1      -1.392   0.613   5.949  0.00  0.00    +0.006 C 
ATOM     27  C   UNL     1      -0.708   1.286   4.757  0.00  0.00    +0.006 C 
ENDBRANCH  18  25
ENDBRANCH   4  18
TORSDOF 5
