REMARK  Name = ZINC00377798
REMARK  2 active torsions:
REMARK  status: ('A' for Active; 'I' for Inactive)
REMARK    1  A    between atoms: C_9  and  C_11
REMARK    2  A    between atoms: C_12  and  N_23
REMARK                            x       y       z     vdW  Elec       q    Type
REMARK                         _______ _______ _______ _____ _____    ______ ____
ROOT
ATOM      1  C   UNL     1       1.659  -1.836  -0.024  0.00  0.00    +0.078 A 
ATOM      2  C   UNL     1       0.870  -2.948  -0.022  0.00  0.00    +0.052 A 
ATOM      3  C   UNL     1       1.505  -4.256  -0.035  0.00  0.00    +0.029 A 
ATOM      4  C   UNL     1       0.902  -5.537  -0.036  0.00  0.00    +0.017 A 
ATOM      5  C   UNL     1       1.703  -6.659  -0.051  0.00  0.00    -0.025 A 
ATOM      6  C   UNL     1       3.084  -6.530  -0.063  0.00  0.00    +0.046 A 
ATOM      7  N   UNL     1       3.641  -5.331  -0.061  0.00  0.00    -0.244 NA
ATOM      8  C   UNL     1       2.919  -4.234  -0.049  0.00  0.00    +0.111 A 
ATOM      9  S   UNL     1       3.312  -2.502  -0.051  0.00  0.00    -0.064 S 
ATOM     10  C   UNL     1       3.724  -7.902  -0.077  0.00  0.00    +0.056 C 
ATOM     11  C   UNL     1       2.602  -8.867  -0.514  0.00  0.00    +0.011 C 
ATOM     12  C   UNL     1       1.328  -8.126  -0.056  0.00  0.00    +0.037 C 
ENDROOT
BRANCH   1  21
ATOM     13  C   UNL     1       0.576   4.063   0.020  0.00  0.00    +0.002 A 
ATOM     14  C   UNL     1      -0.745   3.638   0.030  0.00  0.00    +0.002 A 
ATOM     15  C   UNL     1      -1.048   2.296   0.029  0.00  0.00    +0.030 A 
ATOM     16  C   UNL     1      -0.016   1.351   0.009  0.00  0.00    +0.089 A 
ATOM     17  C   UNL     1       1.320   1.788  -0.001  0.00  0.00    +0.066 A 
ATOM     18  C   UNL     1       1.605   3.145   0.004  0.00  0.00    +0.028 A 
ATOM     19  N   UNL     1       2.101   0.645  -0.015  0.00  0.00    -0.337 N 
ATOM     20  H   UNL     1       3.100   0.609  -0.024  0.00  0.00    +0.167 HD
ATOM     21  C   UNL     1       1.247  -0.429  -0.012  0.00  0.00    +0.148 A 
ATOM     22  N   UNL     1       0.002  -0.004   0.002  0.00  0.00    -0.227 NA
ENDBRANCH   1  21
BRANCH   2  23
ATOM     23  N   UNL     1      -0.521  -2.833  -0.006  0.00  0.00    -0.356 N 
ATOM     24  H   UNL     1      -0.935  -1.955   0.002  0.00  0.00    +0.142 HD
ATOM     25  H   UNL     1      -1.074  -3.630  -0.005  0.00  0.00    +0.142 HD
ENDBRANCH   2  23
TORSDOF 2
