REMARK  Name = ZINC03113415
REMARK  9 active torsions:
REMARK  status: ('A' for Active; 'I' for Inactive)
REMARK    1  A    between atoms: C_1  and  C_2
REMARK    2  A    between atoms: C_6  and  O_8
REMARK    3  A    between atoms: O_8  and  C_9
REMARK    4  A    between atoms: C_9  and  C_10
REMARK    5  A    between atoms: N_12  and  N_13
REMARK    6  A    between atoms: C_14  and  C_15
REMARK    7  A    between atoms: C_18  and  O_21
REMARK    8  A    between atoms: O_21  and  C_22
REMARK    9  A    between atoms: C_22  and  C_24
REMARK                            x       y       z     vdW  Elec       q    Type
REMARK                         _______ _______ _______ _____ _____    ______ ____
ROOT
ATOM      1  C   UNL     1      -4.542  -4.170   0.002  0.00  0.00    -0.005 A 
ATOM      2  C   UNL     1      -5.606  -3.271   0.119  0.00  0.00    +0.013 A 
ATOM      3  C   UNL     1      -6.902  -3.738   0.130  0.00  0.00    +0.047 A 
ATOM      4  C   UNL     1      -7.152  -5.101   0.036  0.00  0.00    +0.132 A 
ATOM      5  C   UNL     1      -6.098  -5.999  -0.074  0.00  0.00    +0.047 A 
ATOM      6  C   UNL     1      -4.799  -5.541  -0.092  0.00  0.00    +0.013 A 
ENDROOT
BRANCH   1   8
ATOM      7  N   UNL     1      -2.918  -2.402   0.071  0.00  0.00    -0.188 NA
ATOM      8  C   UNL     1      -3.154  -3.675  -0.016  0.00  0.00    +0.138 C 
BRANCH   7  11
ATOM      9  C   UNL     1      -1.353  -0.609   0.145  0.00  0.00    +0.270 C 
ATOM     10  O   UNL     1      -2.275   0.173   0.241  0.00  0.00    -0.270 OA
ATOM     11  N   UNL     1      -1.598  -1.931   0.054  0.00  0.00    -0.204 N 
ATOM     12  H   UNL     1      -0.861  -2.557  -0.023  0.00  0.00    +0.177 HD
BRANCH   9  13
ATOM     13  C   UNL     1       0.066  -0.103   0.126  0.00  0.00    +0.326 C 
BRANCH  13  14
ATOM     14  O   UNL     1       0.065   1.322   0.235  0.00  0.00    -0.483 OA
BRANCH  14  20
ATOM     15  C   UNL     1       2.658   5.452   0.445  0.00  0.00    +0.044 C 
ATOM     16  C   UNL     1       2.578   3.951   0.334  0.00  0.00    -0.047 A 
ATOM     17  C   UNL     1       3.737   3.203   0.231  0.00  0.00    +0.003 A 
ATOM     18  C   UNL     1       3.667   1.826   0.129  0.00  0.00    +0.004 A 
ATOM     19  C   UNL     1       2.439   1.193   0.135  0.00  0.00    +0.045 A 
ATOM     20  C   UNL     1       1.275   1.942   0.233  0.00  0.00    +0.121 A 
ATOM     21  C   UNL     1       1.348   3.323   0.336  0.00  0.00    +0.049 A 
ENDBRANCH  14  20
ENDBRANCH  13  14
ENDBRANCH   9  13
ENDBRANCH   7  11
ENDBRANCH   1   8
BRANCH   4  22
ATOM     22  O   UNL     1      -8.432  -5.558   0.054  0.00  0.00    -0.422 OA
BRANCH  22  23
ATOM     23  C   UNL     1      -8.819  -6.251   1.142  0.00  0.00    +0.345 C 
ATOM     24  O   UNL     1      -8.072  -6.353   2.095  0.00  0.00    -0.244 OA
BRANCH  23  25
ATOM     25  C   UNL     1     -10.152  -6.886   1.177  0.00  0.00    +0.072 A 
ATOM     26  C   UNL     1     -11.015  -6.766   0.086  0.00  0.00    +0.016 A 
ATOM     27  C   UNL     1     -12.256  -7.366   0.123  0.00  0.00    +0.001 A 
ATOM     28  C   UNL     1     -12.652  -8.078   1.242  0.00  0.00    +0.001 A 
ATOM     29  C   UNL     1     -11.804  -8.197   2.329  0.00  0.00    +0.015 A 
ATOM     30  C   UNL     1     -10.557  -7.606   2.304  0.00  0.00    +0.027 A 
ATOM     31  I   UNL     1      -9.275  -7.787   3.951  0.00  0.00    -0.043 I 
ENDBRANCH  23  25
ENDBRANCH  22  23
ENDBRANCH   4  22
TORSDOF 8
