REMARK  Name = ZINC64348430
REMARK  8 active torsions:
REMARK  status: ('A' for Active; 'I' for Inactive)
REMARK    1  A    between atoms: C_1  and  C_2
REMARK    2  A    between atoms: C_2  and  C_3
REMARK    3  A    between atoms: C_2  and  C_4
REMARK    4  A    between atoms: C_7  and  C_10
REMARK    5  A    between atoms: N_28  and  C_31
REMARK    6  A    between atoms: C_31  and  C_32
REMARK    7  A    between atoms: C_35  and  O_38
REMARK    8  A    between atoms: O_38  and  C_39
REMARK                            x       y       z     vdW  Elec       q    Type
REMARK                         _______ _______ _______ _____ _____    ______ ____
ROOT
ATOM      1  C   UNL     1      -5.419  -2.005   0.043  0.00  0.00    +0.135 C 
ATOM      2  C   UNL     1      -5.422  -3.502   0.385  0.00  0.00    +0.131 C 
ATOM      3  C   UNL     1      -6.797  -4.041   0.014  0.00  0.00    -0.034 C 
ATOM      4  C   UNL     1      -7.295  -4.586   1.119  0.00  0.00    -0.001 A 
ATOM      5  C   UNL     1      -8.550  -5.314   1.371  0.00  0.00    +0.010 A 
ATOM      6  C   UNL     1      -8.752  -5.735   2.647  0.00  0.00    +0.001 A 
ATOM      7  C   UNL     1      -7.843  -5.508   3.686  0.00  0.00    +0.002 A 
ATOM      8  C   UNL     1      -6.664  -4.852   3.543  0.00  0.00    +0.026 A 
ATOM      9  C   UNL     1      -6.337  -4.364   2.244  0.00  0.00    +0.043 A 
ATOM     10  N   UNL     1      -5.262  -3.722   1.824  0.00  0.00    -0.375 N 
ATOM     11  C   UNL     1      -7.412  -3.871  -1.356  0.00  0.00    +0.065 C 
ATOM     12  C   UNL     1      -7.351  -2.368  -1.679  0.00  0.00    +0.169 C 
ATOM     13  N   UNL     1      -6.015  -1.869  -1.292  0.00  0.00    -0.264 N 
ATOM     14  C   UNL     1      -5.478  -1.312  -2.385  0.00  0.00    +0.313 C 
ATOM     15  O   UNL     1      -4.427  -0.702  -2.389  0.00  0.00    -0.252 OA
ATOM     16  N   UNL     1      -6.234  -1.507  -3.475  0.00  0.00    -0.220 N 
ATOM     17  C   UNL     1      -7.401  -2.160  -3.177  0.00  0.00    +0.244 C 
ATOM     18  O   UNL     1      -8.284  -2.502  -3.934  0.00  0.00    -0.273 OA
ATOM     19  H   UNL     1      -4.505  -3.439   2.360  0.00  0.00    +0.160 HD
ENDROOT
BRANCH   1  23
ATOM     20  C   UNL     1      -1.413  -0.522   0.010  0.00  0.00    -0.045 A 
ATOM     21  C   UNL     1      -1.765  -1.582  -0.805  0.00  0.00    +0.004 A 
ATOM     22  C   UNL     1      -3.061  -2.062  -0.794  0.00  0.00    +0.006 A 
ATOM     23  C   UNL     1      -4.006  -1.482   0.032  0.00  0.00    -0.025 A 
ATOM     24  C   UNL     1      -3.654  -0.423   0.848  0.00  0.00    +0.006 A 
ATOM     25  C   UNL     1      -2.356   0.054   0.840  0.00  0.00    +0.004 A 
BRANCH  20  27
ATOM     26  C   UNL     1       0.962  -1.119   0.402  0.00  0.00    +0.012 C 
ATOM     27  C   UNL     1       0.000   0.001  -0.002  0.00  0.00    +0.013 C 
ATOM     28  C   UNL     1       0.351   0.491  -1.408  0.00  0.00    +0.012 C 
ENDBRANCH  20  27
ENDBRANCH   1  23
BRANCH  16  29
ATOM     29  C   UNL     1      -5.862  -1.069  -4.823  0.00  0.00    +0.153 C 
BRANCH  29  30
ATOM     30  C   UNL     1      -5.088  -2.164  -5.511  0.00  0.00    -0.029 A 
ATOM     31  C   UNL     1      -3.712  -2.215  -5.393  0.00  0.00    +0.009 A 
ATOM     32  C   UNL     1      -3.000  -3.217  -6.024  0.00  0.00    +0.046 A 
ATOM     33  C   UNL     1      -3.667  -4.173  -6.776  0.00  0.00    +0.120 A 
ATOM     34  C   UNL     1      -5.049  -4.120  -6.892  0.00  0.00    +0.046 A 
ATOM     35  C   UNL     1      -5.757  -3.119  -6.256  0.00  0.00    +0.009 A 
BRANCH  33  36
ATOM     36  O   UNL     1      -2.969  -5.159  -7.397  0.00  0.00    -0.495 OA
ATOM     37  C   UNL     1      -3.722  -6.109  -8.154  0.00  0.00    +0.277 C 
ENDBRANCH  33  36
ENDBRANCH  29  30
ENDBRANCH  16  29
TORSDOF 5
