REMARK  Name = ZINC39890907
REMARK  9 active torsions:
REMARK  status: ('A' for Active; 'I' for Inactive)
REMARK    1  A    between atoms: C_1  and  C_2
REMARK    2  A    between atoms: C_6  and  C_8
REMARK    3  A    between atoms: C_8  and  N_9
REMARK    4  A    between atoms: C_24  and  C_38
REMARK    5  A    between atoms: C_25  and  C_37
REMARK    6  A    between atoms: N_32  and  C_33
REMARK    7  A    between atoms: C_33  and  C_34
REMARK    8  A    between atoms: C_34  and  C_35
REMARK    9  A    between atoms: C_35  and  O_36
REMARK                            x       y       z     vdW  Elec       q    Type
REMARK                         _______ _______ _______ _____ _____    ______ ____
ROOT
ATOM      1  N   UNL     1       1.440  -3.073   2.903  0.00  0.00    -0.264 N 
ATOM      2  C   UNL     1       2.184  -4.181   2.538  0.00  0.00    +0.043 A 
ATOM      3  C   UNL     1       1.819  -5.273   1.748  0.00  0.00    +0.024 A 
ATOM      4  C   UNL     1       2.775  -6.255   1.542  0.00  0.00    +0.002 A 
ATOM      5  C   UNL     1       4.040  -6.169   2.089  0.00  0.00    +0.000 A 
ATOM      6  C   UNL     1       4.416  -5.088   2.878  0.00  0.00    +0.008 A 
ATOM      7  C   UNL     1       3.470  -4.108   3.088  0.00  0.00    +0.011 A 
ATOM      8  C   UNL     1       3.517  -2.833   3.868  0.00  0.00    +0.174 C 
ATOM      9  C   UNL     1       2.145  -2.225   3.681  0.00  0.00    +0.253 C 
ATOM     10  O   UNL     1       1.752  -1.175   4.144  0.00  0.00    -0.272 OA
ATOM     11  C   UNL     1       4.588  -1.911   3.400  0.00  0.00    +0.084 A 
ATOM     12  C   UNL     1       4.858  -1.323   2.083  0.00  0.00    +0.199 A 
ATOM     13  O   UNL     1       4.083  -1.402   1.147  0.00  0.00    -0.287 OA
ATOM     14  C   UNL     1       6.164  -0.622   2.000  0.00  0.00    +0.065 A 
ATOM     15  C   UNL     1       6.649  -0.174   0.772  0.00  0.00    +0.019 A 
ATOM     16  C   UNL     1       7.855   0.466   0.711  0.00  0.00    -0.047 A 
ATOM     17  C   UNL     1       8.597   0.670   1.867  0.00  0.00    -0.044 A 
ATOM     18  C   UNL     1       8.133   0.235   3.088  0.00  0.00    +0.050 A 
ATOM     19  C   UNL     1       6.904  -0.417   3.176  0.00  0.00    +0.140 A 
ATOM     20  O   UNL     1       6.463  -0.825   4.388  0.00  0.00    -0.450 OA
ATOM     21  C   UNL     1       5.396  -1.643   4.470  0.00  0.00    +0.200 A 
ATOM     22  C   UNL     1       4.881  -2.384   5.635  0.00  0.00    +0.284 C 
ATOM     23  O   UNL     1       5.376  -2.367   6.745  0.00  0.00    -0.267 OA
ATOM     24  N   UNL     1       3.780  -3.084   5.290  0.00  0.00    -0.273 N 
ATOM     25  C   UNL     1       9.927   1.375   1.783  0.00  0.00    +0.044 C 
ATOM     26  C   UNL     1       8.382   0.953  -0.614  0.00  0.00    +0.044 C 
ENDROOT
BRANCH   1  27
ATOM     27  C   UNL     1       0.054  -2.845   2.489  0.00  0.00    +0.148 C 
BRANCH  27  33
ATOM     28  C   UNL     1      -0.018   1.503   0.010  0.00  0.00    +0.044 C 
ATOM     29  C   UNL     1       0.002  -0.004   0.002  0.00  0.00    -0.050 A 
ATOM     30  C   UNL     1       0.006  -0.689  -1.199  0.00  0.00    +0.003 A 
ATOM     31  C   UNL     1       0.025  -2.071  -1.207  0.00  0.00    +0.001 A 
ATOM     32  C   UNL     1       0.040  -2.768  -0.013  0.00  0.00    +0.005 A 
ATOM     33  C   UNL     1       0.037  -2.084   1.188  0.00  0.00    -0.029 A 
ATOM     34  C   UNL     1       0.023  -0.702   1.195  0.00  0.00    +0.008 A 
ENDBRANCH  27  33
ENDBRANCH   1  27
BRANCH  24  35
ATOM     35  C   UNL     1       2.988  -3.941   6.176  0.00  0.00    +0.112 C 
BRANCH  35  36
ATOM     36  C   UNL     1       3.540  -5.367   6.133  0.00  0.00    +0.047 C 
BRANCH  36  37
ATOM     37  C   UNL     1       2.713  -6.262   7.059  0.00  0.00    +0.157 C 
BRANCH  37  38
ATOM     38  O   UNL     1       3.229  -7.594   7.019  0.00  0.00    -0.395 OA
ATOM     39  H   UNL     1       2.752  -8.218   7.583  0.00  0.00    +0.209 HD
ENDBRANCH  37  38
ENDBRANCH  36  37
ENDBRANCH  35  36
ENDBRANCH  24  35
TORSDOF 6
