REMARK  Name = ZINC09210038
REMARK  5 active torsions:
REMARK  status: ('A' for Active; 'I' for Inactive)
REMARK    1  A    between atoms: C_3  and  C_7
REMARK    2  A    between atoms: C_13  and  C_14
REMARK    3  A    between atoms: C_17  and  O_20
REMARK    4  A    between atoms: O_20  and  C_21
REMARK    5  A    between atoms: C_21  and  C_23
REMARK                            x       y       z     vdW  Elec       q    Type
REMARK                         _______ _______ _______ _____ _____    ______ ____
ROOT
ATOM      1  C   UNL     1       4.558   2.891  -2.279  0.00  0.00    +0.131 C 
ATOM      2  N   UNL     1       5.355   2.210  -1.492  0.00  0.00    -0.164 NA
ATOM      3  N   UNL     1       6.687   2.543  -1.370  0.00  0.00    -0.152 N 
ATOM      4  C   UNL     1       7.651   1.826  -0.629  0.00  0.00    +0.153 C 
ATOM      5  N   UNL     1       7.523   0.564  -0.316  0.00  0.00    -0.283 NA
ATOM      6  C   UNL     1       8.829   2.651  -0.238  0.00  0.00    +0.081 C 
ATOM      7  C   UNL     1       9.503   2.440   0.944  0.00  0.00    +0.024 C 
ATOM      8  C   UNL     1       9.237   3.713  -1.191  0.00  0.00    +0.273 C 
ATOM      9  O   UNL     1      10.386   4.124  -1.220  0.00  0.00    -0.268 OA
ATOM     10  N   UNL     1       8.302   4.210  -2.025  0.00  0.00    -0.152 NA
ATOM     11  C   UNL     1       7.114   3.660  -2.057  0.00  0.00    +0.181 C 
ATOM     12  S   UNL     1       5.657   4.130  -2.951  0.00  0.00    -0.033 S 
ATOM     13  H   UNL     1       6.735   0.073  -0.596  0.00  0.00    +0.188 HD
ENDROOT
BRANCH   1  16
ATOM     14  C   UNL     1       1.085   3.283  -3.652  0.00  0.00    +0.020 A 
ATOM     15  C   UNL     1       2.431   3.520  -3.435  0.00  0.00    +0.013 A 
ATOM     16  C   UNL     1       3.117   2.683  -2.548  0.00  0.00    +0.027 A 
ATOM     17  C   UNL     1       2.421   1.649  -1.922  0.00  0.00    +0.121 A 
ATOM     18  N   UNL     1       1.140   1.464  -2.161  0.00  0.00    -0.263 NA
ATOM     19  C   UNL     1       0.467   2.237  -2.992  0.00  0.00    +0.111 A 
ENDBRANCH   1  16
BRANCH   7  20
ATOM     20  C   UNL     1      10.532   3.387   1.380  0.00  0.00    -0.024 A 
ATOM     21  C   UNL     1      10.320   4.767   1.248  0.00  0.00    +0.011 A 
ATOM     22  C   UNL     1      11.286   5.648   1.659  0.00  0.00    +0.047 A 
ATOM     23  C   UNL     1      12.476   5.176   2.204  0.00  0.00    +0.132 A 
ATOM     24  C   UNL     1      12.692   3.809   2.337  0.00  0.00    +0.047 A 
ATOM     25  C   UNL     1      11.730   2.918   1.936  0.00  0.00    +0.011 A 
BRANCH  23  26
ATOM     26  O   UNL     1      13.429   6.054   2.608  0.00  0.00    -0.422 OA
BRANCH  26  27
ATOM     27  C   UNL     1      13.247   6.691   3.782  0.00  0.00    +0.344 C 
ATOM     28  O   UNL     1      12.212   6.540   4.400  0.00  0.00    -0.245 OA
BRANCH  27  29
ATOM     29  C   UNL     1      14.304   7.571   4.316  0.00  0.00    +0.060 A 
ATOM     30  C   UNL     1      15.492   7.751   3.604  0.00  0.00    +0.018 A 
ATOM     31  C   UNL     1      16.476   8.575   4.107  0.00  0.00    +0.039 A 
ATOM     32  C   UNL     1      16.288   9.224   5.318  0.00  0.00    +0.123 A 
ATOM     33  C   UNL     1      15.111   9.049   6.029  0.00  0.00    +0.039 A 
ATOM     34  C   UNL     1      14.117   8.233   5.532  0.00  0.00    +0.018 A 
ATOM     35  F   UNL     1      17.256  10.030   5.806  0.00  0.00    -0.205 F 
ENDBRANCH  27  29
ENDBRANCH  26  27
ENDBRANCH  23  26
ENDBRANCH   7  20
TORSDOF 5
