REMARK  Name = ZINC16012273
REMARK  3 active torsions:
REMARK  status: ('A' for Active; 'I' for Inactive)
REMARK    1  A    between atoms: C_1  and  C_2
REMARK    2  A    between atoms: C_3  and  N_11
REMARK    3  A    between atoms: C_7  and  N_8
REMARK                            x       y       z     vdW  Elec       q    Type
REMARK                         _______ _______ _______ _____ _____    ______ ____
ROOT
ATOM      1  N   UNL     1       1.026   1.879   0.081  0.00  0.00    -0.210 N 
ATOM      2  C   UNL     1       0.701   3.176   0.110  0.00  0.00    +0.228 C 
ATOM      3  O   UNL     1       1.490   4.097   0.096  0.00  0.00    -0.275 OA
ATOM      4  C   UNL     1      -0.804   3.315   0.163  0.00  0.00    +0.074 C 
ATOM      5  C   UNL     1      -1.218   3.882   1.533  0.00  0.00    -0.054 C 
ATOM      6  C   UNL     1      -0.038   4.663   2.140  0.00  0.00    -0.016 C 
ATOM      7  C   UNL     1       0.742   3.639   2.987  0.00  0.00    -0.020 C 
ATOM      8  C   UNL     1      -0.011   2.306   2.803  0.00  0.00    -0.076 C 
ATOM      9  N   UNL     1      -1.390   2.688   2.415  0.00  0.00    +0.395 N 
ATOM     10  C   UNL     1      -1.964   1.658   1.533  0.00  0.00    +0.053 C 
ATOM     11  C   UNL     1      -1.300   1.844   0.158  0.00  0.00    +0.089 C 
ATOM     12  C   UNL     1      -0.018   1.043   0.106  0.00  0.00    +0.229 C 
ATOM     13  O   UNL     1       0.052  -0.167   0.085  0.00  0.00    -0.275 OA
ATOM     14  C   UNL     1      -3.459   1.780   1.441  0.00  0.00    -0.026 A 
ATOM     15  C   UNL     1      -4.304   2.786   1.028  0.00  0.00    +0.004 A 
ATOM     16  C   UNL     1      -5.675   2.597   1.060  0.00  0.00    +0.002 A 
ATOM     17  C   UNL     1      -6.193   1.396   1.509  0.00  0.00    +0.022 A 
ATOM     18  C   UNL     1      -5.351   0.385   1.925  0.00  0.00    +0.062 A 
ATOM     19  C   UNL     1      -3.969   0.568   1.895  0.00  0.00    +0.054 A 
ATOM     20  N   UNL     1      -2.927  -0.289   2.257  0.00  0.00    -0.285 N 
ATOM     21  C   UNL     1      -1.718   0.275   2.075  0.00  0.00    +0.212 C 
ATOM     22  O   UNL     1      -0.641  -0.232   2.303  0.00  0.00    -0.277 OA
ATOM     23 CL   UNL     1      -6.013  -1.118   2.486  0.00  0.00    -0.082 Cl
ATOM     24  H   UNL     1      -3.151  -1.296   2.639  0.00  0.00    +0.155 HD
ATOM     25  H   UNL     1      -2.021   2.829   3.305  0.00  0.00    -0.079 HD
ENDROOT
BRANCH   1  28
ATOM     26  C   UNL     1       2.147   1.286  -2.468  0.00  0.00    +0.048 C 
ATOM     27  C   UNL     1       2.939   1.131  -1.195  0.00  0.00    +0.002 A 
ATOM     28  C   UNL     1       2.354   1.431   0.028  0.00  0.00    +0.049 A 
ATOM     29  C   UNL     1       3.085   1.282   1.199  0.00  0.00    +0.024 A 
ATOM     30  C   UNL     1       4.392   0.840   1.144  0.00  0.00    +0.004 A 
ATOM     31  C   UNL     1       4.974   0.547  -0.076  0.00  0.00    +0.033 A 
ATOM     32  C   UNL     1       4.248   0.695  -1.244  0.00  0.00    +0.131 A 
BRANCH  32  33
ATOM     33  N   UNL     1       4.874   0.379  -2.548  0.00  0.00    +0.057 N 
ATOM     34  O   UNL     1       5.983  -0.122  -2.586  0.00  0.00    -0.126 OA
ATOM     35  O   UNL     1       4.279   0.621  -3.583  0.00  0.00    -0.126 OA
ENDBRANCH  32  33
ENDBRANCH   1  28
TORSDOF 2
