REMARK  Name = ZINC17208095
REMARK  10 active torsions:
REMARK  status: ('A' for Active; 'I' for Inactive)
REMARK    1  A    between atoms: C_1  and  C_2
REMARK    2  A    between atoms: C_4  and  C_32
REMARK    3  A    between atoms: C_5  and  N_9
REMARK    4  A    between atoms: C_6  and  C_8
REMARK    5  A    between atoms: C_12  and  C_13
REMARK    6  A    between atoms: N_14  and  C_15
REMARK    7  A    between atoms: C_22  and  C_26
REMARK    8  A    between atoms: C_23  and  C_24
REMARK    9  A    between atoms: C_23  and  C_25
REMARK   10  A    between atoms: C_27  and  O_31
REMARK                            x       y       z     vdW  Elec       q    Type
REMARK                         _______ _______ _______ _____ _____    ______ ____
ROOT
ATOM      1  N   UNL     1      -6.797   3.273  -0.136  0.00  0.00    -0.191 N 
ATOM      2  C   UNL     1      -5.448   3.217  -0.136  0.00  0.00    +0.245 C 
ATOM      3  O   UNL     1      -4.837   2.768  -1.088  0.00  0.00    -0.274 OA
ATOM      4  C   UNL     1      -4.739   3.713   1.058  0.00  0.00    +0.199 C 
ATOM      5  C   UNL     1      -5.565   4.242   2.152  0.00  0.00    +0.198 C 
ATOM      6  N   UNL     1      -6.880   4.239   2.009  0.00  0.00    -0.131 NA
ATOM      7  C   UNL     1      -7.469   3.773   0.911  0.00  0.00    +0.339 C 
ATOM      8  O   UNL     1      -8.686   3.803   0.853  0.00  0.00    -0.250 OA
ENDROOT
BRANCH   1  13
ATOM      9  C   UNL     1      -9.666   1.381  -4.652  0.00  0.00    +0.044 C 
ATOM     10  C   UNL     1      -8.905   1.883  -3.452  0.00  0.00    -0.050 A 
ATOM     11  C   UNL     1      -8.505   3.206  -3.393  0.00  0.00    +0.008 A 
ATOM     12  C   UNL     1      -7.807   3.669  -2.296  0.00  0.00    -0.028 A 
ATOM     13  C   UNL     1      -7.505   2.806  -1.251  0.00  0.00    +0.051 A 
ATOM     14  C   UNL     1      -7.903   1.477  -1.316  0.00  0.00    -0.028 A 
ATOM     15  C   UNL     1      -8.606   1.021  -2.414  0.00  0.00    +0.008 A 
ATOM     16  C   UNL     1      -7.573   0.535  -0.187  0.00  0.00    +0.046 C 
ATOM     17  C   UNL     1      -7.372   5.111  -2.232  0.00  0.00    +0.046 C 
ENDBRANCH   1  13
BRANCH   4  18
ATOM     18  C   UNL     1      -3.356   3.687   1.142  0.00  0.00    +0.100 C 
ATOM     19  N   UNL     1      -2.634   3.082   0.180  0.00  0.00    -0.291 NA
BRANCH  19  20
ATOM     20  C   UNL     1      -1.178   2.987   0.307  0.00  0.00    +0.112 C 
ATOM     21  C   UNL     1      -0.780   1.784   1.226  0.00  0.00    +0.031 C 
ATOM     22  C   UNL     1       0.056   0.862   0.287  0.00  0.00    -0.003 C 
ATOM     23  C   UNL     1       1.389   1.638   0.064  0.00  0.00    +0.005 C 
ATOM     24  C   UNL     1       1.001   2.832  -0.838  0.00  0.00    +0.009 C 
ATOM     25  C   UNL     1      -0.531   2.665  -1.075  0.00  0.00    -0.004 C 
ATOM     26  C   UNL     1      -0.653   1.100  -1.093  0.00  0.00    -0.025 C 
ATOM     27  C   UNL     1       0.127   0.478  -2.254  0.00  0.00    +0.012 C 
ATOM     28  C   UNL     1      -2.111   0.637  -1.077  0.00  0.00    +0.012 C 
ATOM     29  C   UNL     1      -1.105   3.402  -2.286  0.00  0.00    +0.014 C 
ENDBRANCH  19  20
ENDBRANCH   4  18
BRANCH   5  30
ATOM     30  O   UNL     1      -4.995   4.721   3.278  0.00  0.00    -0.496 OA
ATOM     31  H   UNL     1      -5.628   5.044   3.933  0.00  0.00    +0.293 HD
ENDBRANCH   5  30
TORSDOF 4
