REMARK  Name = ZINC39855265
REMARK  6 active torsions:
REMARK  status: ('A' for Active; 'I' for Inactive)
REMARK    1  A    between atoms: C_1  and  C_2
REMARK    2  A    between atoms: C_2  and  C_31
REMARK    3  A    between atoms: C_7  and  C_18
REMARK    4  A    between atoms: C_11  and  C_16
REMARK    5  A    between atoms: C_12  and  C_14
REMARK    6  A    between atoms: N_20  and  C_21
REMARK                            x       y       z     vdW  Elec       q    Type
REMARK                         _______ _______ _______ _____ _____    ______ ____
ROOT
ATOM      1  C   UNL     1      -0.027   1.511   0.006  0.00  0.00    +0.013 C 
ATOM      2  C   UNL     1       0.005  -0.018  -0.006  0.00  0.00    -0.007 C 
ATOM      3  C   UNL     1      -1.385  -0.648   0.378  0.00  0.00    +0.047 C 
ATOM      4  C   UNL     1      -1.579  -0.049   1.806  0.00  0.00    +0.012 C 
ATOM      5  C   UNL     1      -0.148  -0.011   2.396  0.00  0.00    +0.024 C 
ATOM      6  C   UNL     1       0.752  -0.611   1.244  0.00  0.00    +0.097 C 
ATOM      7  C   UNL     1       0.331  -2.079   1.135  0.00  0.00    +0.080 A 
ATOM      8  C   UNL     1      -0.963  -2.101   0.610  0.00  0.00    +0.069 A 
ATOM      9  N   UNL     1      -1.580  -3.241   0.407  0.00  0.00    -0.236 NA
ATOM     10  C   UNL     1      -0.967  -4.386   0.704  0.00  0.00    +0.176 A 
ATOM     11  C   UNL     1       0.336  -4.363   1.232  0.00  0.00    +0.176 A 
ATOM     12  N   UNL     1       0.949  -3.197   1.432  0.00  0.00    -0.236 NA
ATOM     13  C   UNL     1       0.551  -0.569  -1.325  0.00  0.00    +0.013 C 
ENDROOT
BRANCH   6  14
ATOM     14  C   UNL     1       2.230  -0.332   1.341  0.00  0.00    +0.230 C 
ATOM     15  O   UNL     1       2.781   0.321   0.481  0.00  0.00    -0.274 OA
ATOM     16  N   UNL     1       2.938  -0.807   2.385  0.00  0.00    -0.284 N 
ATOM     17  H   UNL     1       2.485  -1.260   3.113  0.00  0.00    +0.155 HD
BRANCH  16  18
ATOM     18  C   UNL     1       4.325  -0.648   2.417  0.00  0.00    +0.041 A 
ATOM     19  C   UNL     1       5.035  -0.496   1.246  0.00  0.00    +0.024 A 
ATOM     20  C   UNL     1       6.417  -0.337   1.267  0.00  0.00    +0.002 A 
ATOM     21  C   UNL     1       7.106  -0.326   2.442  0.00  0.00    +0.008 A 
ATOM     22  C   UNL     1       6.419  -0.478   3.659  0.00  0.00    -0.016 A 
ATOM     23  C   UNL     1       5.011  -0.636   3.650  0.00  0.00    +0.003 A 
ATOM     24  C   UNL     1       4.327  -0.783   4.867  0.00  0.00    +0.010 A 
ATOM     25  C   UNL     1       5.022  -0.767   6.037  0.00  0.00    +0.001 A 
ATOM     26  C   UNL     1       6.406  -0.606   6.047  0.00  0.00    +0.001 A 
ATOM     27  C   UNL     1       7.104  -0.472   4.886  0.00  0.00    +0.008 A 
ENDBRANCH  16  18
ENDBRANCH   6  14
BRANCH  11  28
ATOM     28  C   UNL     1       1.003  -5.589   1.555  0.00  0.00    +0.122 C 
ATOM     29  N   UNL     1       1.531  -6.562   1.810  0.00  0.00    -0.189 NA
ENDBRANCH  11  28
BRANCH  10  30
ATOM     30  C   UNL     1      -1.633  -5.635   0.486  0.00  0.00    +0.122 C 
ATOM     31  N   UNL     1      -2.161  -6.626   0.313  0.00  0.00    -0.189 NA
ENDBRANCH  10  30
TORSDOF 4
