REMARK  Name = ZINC11405638
REMARK  13 active torsions:
REMARK  status: ('A' for Active; 'I' for Inactive)
REMARK    1  A    between atoms: C_1  and  C_2
REMARK    2  A    between atoms: C_5  and  C_8
REMARK    3  A    between atoms: C_8  and  C_9
REMARK    4  A    between atoms: C_9  and  C_10
REMARK    5  A    between atoms: C_15  and  C_16
REMARK    6  A    between atoms: C_15  and  N_66
REMARK    7  A    between atoms: C_22  and  C_31
REMARK    8  A    between atoms: C_23  and  C_27
REMARK    9  A    between atoms: C_27  and  O_29
REMARK   10  A    between atoms: O_29  and  C_30
REMARK   11  A    between atoms: C_31  and  C_32
REMARK   12  A    between atoms: C_32  and  O_34
REMARK   13  A    between atoms: O_34  and  C_35
REMARK                            x       y       z     vdW  Elec       q    Type
REMARK                         _______ _______ _______ _____ _____    ______ ____
ROOT
ATOM      1  C   UNL     1      -1.815   6.865  -5.312  0.00  0.00    +0.094 A 
ATOM      2  N   UNL     1      -2.228   5.707  -5.883  0.00  0.00    -0.312 N 
ATOM      3  H   UNL     1      -1.694   4.906  -5.771  0.00  0.00    +0.170 HD
ATOM      4  C   UNL     1      -3.366   5.647  -6.603  0.00  0.00    +0.260 A 
ATOM      5  O   UNL     1      -3.728   4.601  -7.112  0.00  0.00    -0.267 OA
ATOM      6  C   UNL     1      -4.164   6.884  -6.758  0.00  0.00    +0.076 A 
ATOM      7  C   UNL     1      -5.363   7.080  -7.447  0.00  0.00    -0.001 A 
ATOM      8  C   UNL     1      -5.937   8.318  -7.472  0.00  0.00    +0.103 A 
ATOM      9  S   UNL     1      -4.807   9.297  -6.498  0.00  0.00    -0.062 S 
ATOM     10  C   UNL     1      -3.629   8.025  -6.117  0.00  0.00    +0.116 A 
ATOM     11  N   UNL     1      -2.495   7.974  -5.429  0.00  0.00    -0.229 NA
ENDROOT
BRANCH   8  12
ATOM     12  C   UNL     1      -7.175   8.738  -8.132  0.00  0.00    +0.346 C 
ATOM     13  O   UNL     1      -7.833   7.931  -8.760  0.00  0.00    -0.244 OA
BRANCH  12  14
ATOM     14  O   UNL     1      -7.586  10.020  -8.042  0.00  0.00    -0.464 OA
ATOM     15  C   UNL     1      -8.822  10.365  -8.721  0.00  0.00    +0.280 C 
ENDBRANCH  12  14
ENDBRANCH   8  12
BRANCH   1  16
ATOM     16  C   UNL     1      -0.534   6.874  -4.518  0.00  0.00    -0.003 C 
BRANCH  16  22
ATOM     17  C   UNL     1       1.419  10.612  -3.817  0.00  0.00    -0.014 C 
ATOM     18  C   UNL     1       0.290  10.533  -4.848  0.00  0.00    -0.015 C 
ATOM     19  C   UNL     1       0.106   9.078  -5.286  0.00  0.00    -0.078 C 
ATOM     20  C   UNL     1       0.874   8.273  -3.133  0.00  0.00    -0.078 C 
ATOM     21  C   UNL     1       1.081   9.704  -2.631  0.00  0.00    -0.015 C 
ATOM     22  N   UNL     1      -0.241   8.261  -4.104  0.00  0.00    +0.384 N 
ATOM     23  H   UNL     1      -1.075   8.660  -3.657  0.00  0.00    -0.081 HD
BRANCH  17  24
ATOM     24  C   UNL     1       1.566  12.055  -3.330  0.00  0.00    +0.008 C 
BRANCH  24  25
ATOM     25  C   UNL     1       2.773  12.157  -2.395  0.00  0.00    +0.035 C 
BRANCH  25  30
ATOM     26  C   UNL     1       3.329  17.607  -0.556  0.00  0.00    +0.044 C 
ATOM     27  C   UNL     1       3.185  16.186  -1.035  0.00  0.00    -0.050 A 
ATOM     28  C   UNL     1       2.413  15.290  -0.319  0.00  0.00    +0.003 A 
ATOM     29  C   UNL     1       2.280  13.986  -0.759  0.00  0.00    +0.004 A 
ATOM     30  C   UNL     1       2.918  13.578  -1.915  0.00  0.00    -0.047 A 
ATOM     31  C   UNL     1       3.694  14.473  -2.628  0.00  0.00    +0.004 A 
ATOM     32  C   UNL     1       3.824  15.777  -2.191  0.00  0.00    +0.003 A 
ENDBRANCH  25  30
ENDBRANCH  24  25
ENDBRANCH  17  24
ENDBRANCH  16  22
ENDBRANCH   1  16
BRANCH   7  33
ATOM     33  C   UNL     1      -6.017   5.929  -8.166  0.00  0.00    +0.157 C 
BRANCH  33  34
ATOM     34  C   UNL     1      -6.964   5.224  -7.229  0.00  0.00    +0.311 C 
ATOM     35  O   UNL     1      -7.090   5.614  -6.092  0.00  0.00    -0.250 OA
BRANCH  34  36
ATOM     36  O   UNL     1      -7.663   4.161  -7.655  0.00  0.00    -0.468 OA
ATOM     37  C   UNL     1      -8.551   3.528  -6.697  0.00  0.00    +0.280 C 
ENDBRANCH  34  36
ENDBRANCH  33  34
ENDBRANCH   7  33
TORSDOF 10
