REMARK  Name = ZINC17424615
REMARK  8 active torsions:
REMARK  status: ('A' for Active; 'I' for Inactive)
REMARK    1  A    between atoms: C_1  and  C_2
REMARK    2  A    between atoms: C_5  and  C_9
REMARK    3  A    between atoms: C_7  and  C_8
REMARK    4  A    between atoms: C_9  and  C_31
REMARK    5  A    between atoms: N_13  and  N_14
REMARK    6  A    between atoms: C_15  and  C_17
REMARK    7  A    between atoms: C_26  and  C_30
REMARK    8  A    between atoms: C_27  and  C_29
REMARK                            x       y       z     vdW  Elec       q    Type
REMARK                         _______ _______ _______ _____ _____    ______ ____
ROOT
ATOM      1  C   UNL     1       1.151   3.592   0.010  0.00  0.00    +0.019 C 
ATOM      2  C   UNL     1       1.766   4.093   1.314  0.00  0.00    +0.022 C 
ATOM      3  C   UNL     1       1.638   5.621   1.383  0.00  0.00    +0.059 C 
ATOM      4  C   UNL     1       0.160   5.949   1.431  0.00  0.00    +0.067 C 
ATOM      5  N   UNL     1      -0.300   6.862   2.231  0.00  0.00    -0.184 NA
ATOM      6  C   UNL     1      -0.740   5.192   0.534  0.00  0.00    +0.002 A 
ATOM      7  C   UNL     1      -0.269   4.066  -0.141  0.00  0.00    -0.028 A 
ATOM      8  C   UNL     1      -1.126   3.368  -0.972  0.00  0.00    +0.008 A 
ATOM      9  C   UNL     1      -2.435   3.784  -1.133  0.00  0.00    -0.047 A 
ATOM     10  C   UNL     1      -2.903   4.902  -0.467  0.00  0.00    -0.047 A 
ATOM     11  C   UNL     1      -2.061   5.610   0.366  0.00  0.00    +0.013 A 
ATOM     12  C   UNL     1      -4.331   5.348  -0.652  0.00  0.00    +0.044 C 
ATOM     13  C   UNL     1      -3.358   3.013  -2.041  0.00  0.00    +0.044 C 
ATOM     14  C   UNL     1       1.980   4.111  -1.166  0.00  0.00    +0.021 C 
ENDROOT
BRANCH   1  19
ATOM     15  C   UNL     1       1.230  -2.186  -0.021  0.00  0.00    +0.044 C 
ATOM     16  C   UNL     1       1.209  -0.679  -0.013  0.00  0.00    -0.048 A 
ATOM     17  C   UNL     1       0.536  -0.002   0.987  0.00  0.00    +0.004 A 
ATOM     18  C   UNL     1       0.517   1.380   0.995  0.00  0.00    +0.005 A 
ATOM     19  C   UNL     1       1.171   2.085   0.002  0.00  0.00    -0.037 A 
ATOM     20  C   UNL     1       1.842   1.409  -0.999  0.00  0.00    +0.008 A 
ATOM     21  C   UNL     1       1.862   0.026  -1.006  0.00  0.00    -0.047 A 
ATOM     22  C   UNL     1       2.595  -0.711  -2.096  0.00  0.00    +0.044 C 
ENDBRANCH   1  19
BRANCH   5  23
ATOM     23  N   UNL     1       0.575   7.563   3.071  0.00  0.00    -0.203 N 
ATOM     24  C   UNL     1       0.097   8.511   3.902  0.00  0.00    +0.263 C 
ATOM     25  O   UNL     1      -1.094   8.757   3.922  0.00  0.00    -0.268 OA
ATOM     26  H   UNL     1       1.525   7.367   3.055  0.00  0.00    +0.178 HD
BRANCH  24  27
ATOM     27  C   UNL     1       1.020   9.250   4.788  0.00  0.00    +0.038 A 
ATOM     28  C   UNL     1       2.386   8.966   4.771  0.00  0.00    +0.013 A 
ATOM     29  C   UNL     1       3.243   9.664   5.597  0.00  0.00    +0.001 A 
ATOM     30  C   UNL     1       2.749  10.636   6.449  0.00  0.00    +0.000 A 
ATOM     31  C   UNL     1       1.395  10.919   6.474  0.00  0.00    +0.001 A 
ATOM     32  C   UNL     1       0.528  10.232   5.650  0.00  0.00    +0.013 A 
ENDBRANCH  24  27
ENDBRANCH   5  23
TORSDOF 3
