REMARK  Name = ZINC38595927
REMARK  8 active torsions:
REMARK  status: ('A' for Active; 'I' for Inactive)
REMARK    1  A    between atoms: C_1  and  C_2
REMARK    2  A    between atoms: C_2  and  C_4
REMARK    3  A    between atoms: C_2  and  N_24
REMARK    4  A    between atoms: C_4  and  C_6
REMARK    5  A    between atoms: C_4  and  N_11
REMARK    6  A    between atoms: N_14  and  C_17
REMARK    7  A    between atoms: C_17  and  C_18
REMARK    8  A    between atoms: C_25  and  C_27
REMARK                            x       y       z     vdW  Elec       q    Type
REMARK                         _______ _______ _______ _____ _____    ______ ____
ROOT
ATOM      1  C   UNL     1       0.606  -0.499  -1.314  0.00  0.00    +0.113 C 
ENDROOT
BRANCH   1   2
ATOM      2  N   UNL     1       0.036   0.241  -2.448  0.00  0.00    -0.297 NA
ATOM      3  C   UNL     1       0.784  -0.032  -3.684  0.00  0.00    +0.066 C 
ATOM      4  C   UNL     1       0.197   0.802  -4.825  0.00  0.00    -0.063 C 
ATOM      5  N   UNL     1      -1.220   0.459  -5.004  0.00  0.00    +0.384 N 
ATOM      6  C   UNL     1      -1.958   0.760  -3.770  0.00  0.00    -0.063 C 
ATOM      7  C   UNL     1      -1.389  -0.074  -2.619  0.00  0.00    +0.066 C 
ATOM      8  H   UNL     1      -1.304  -0.524  -5.215  0.00  0.00    -0.081 HD
BRANCH   5   9
ATOM      9  C   UNL     1      -1.778   1.246  -6.112  0.00  0.00    -0.043 C 
BRANCH   9  10
ATOM     10  C   UNL     1      -3.195   0.807  -6.376  0.00  0.00    -0.064 A 
ATOM     11  C   UNL     1      -3.447  -0.214  -7.273  0.00  0.00    +0.002 A 
ATOM     12  C   UNL     1      -4.747  -0.616  -7.515  0.00  0.00    +0.000 A 
ATOM     13  C   UNL     1      -5.796   0.003  -6.859  0.00  0.00    +0.000 A 
ATOM     14  C   UNL     1      -5.544   1.023  -5.962  0.00  0.00    +0.000 A 
ATOM     15  C   UNL     1      -4.243   1.423  -5.716  0.00  0.00    +0.002 A 
ENDBRANCH   9  10
ENDBRANCH   5   9
ENDBRANCH   1   2
BRANCH   1  16
ATOM     16  C   UNL     1       2.072  -0.174  -1.188  0.00  0.00    +0.009 A 
ATOM     17  C   UNL     1       3.115  -1.009  -0.959  0.00  0.00    +0.013 A 
ATOM     18  C   UNL     1       4.391  -0.483  -0.882  0.00  0.00    +0.008 A 
ATOM     19  C   UNL     1       4.562   0.853  -1.038  0.00  0.00    +0.045 A 
ATOM     20  S   UNL     1       2.887   1.410  -1.310  0.00  0.00    -0.100 S 
ENDBRANCH   1  16
BRANCH   1  22
ATOM     21  C   UNL     1      -0.039   1.421   0.149  0.00  0.00    +0.030 C 
ATOM     22  C   UNL     1      -0.118  -0.097  -0.027  0.00  0.00    +0.092 C 
BRANCH  22  23
ATOM     23  N   UNL     1       0.518  -0.755   1.117  0.00  0.00    -0.307 N 
ATOM     24  C   UNL     1      -0.188  -0.979   2.243  0.00  0.00    +0.244 C 
ATOM     25  O   UNL     1      -1.352  -0.635   2.309  0.00  0.00    -0.270 OA
ATOM     26  H   UNL     1       1.447  -1.030   1.064  0.00  0.00    +0.149 HD
BRANCH  24  27
ATOM     27  C   UNL     1       0.454  -1.644   3.397  0.00  0.00    +0.038 A 
ATOM     28  C   UNL     1       1.792  -2.035   3.326  0.00  0.00    +0.013 A 
ATOM     29  C   UNL     1       2.385  -2.654   4.407  0.00  0.00    +0.002 A 
ATOM     30  C   UNL     1       1.657  -2.889   5.559  0.00  0.00    +0.015 A 
ATOM     31  C   UNL     1       0.329  -2.504   5.637  0.00  0.00    +0.019 A 
ATOM     32  C   UNL     1      -0.274  -1.877   4.565  0.00  0.00    +0.028 A 
ATOM     33 BR   UNL     1      -0.658  -2.831   7.217  0.00  0.00    -0.050 Br
ENDBRANCH  24  27
ENDBRANCH  22  23
ENDBRANCH   1  22
TORSDOF 7
