REMARK  Name = ZINC05813806
REMARK  7 active torsions:
REMARK  status: ('A' for Active; 'I' for Inactive)
REMARK    1  A    between atoms: C_6  and  C_12
REMARK    2  A    between atoms: C_7  and  O_11
REMARK    3  A    between atoms: C_12  and  C_14
REMARK    4  A    between atoms: C_12  and  N_23
REMARK    5  A    between atoms: C_17  and  N_20
REMARK    6  A    between atoms: N_23  and  C_25
REMARK    7  A    between atoms: C_26  and  O_30
REMARK                            x       y       z     vdW  Elec       q    Type
REMARK                         _______ _______ _______ _____ _____    ______ ____
ROOT
ATOM      1  C   UNL     1       1.400   5.825  -0.070  0.00  0.00    +0.136 C 
ENDROOT
BRANCH   1   7
ATOM      2  C   UNL     1       5.228   4.752  -5.131  0.00  0.00    +0.020 A 
ATOM      3  C   UNL     1       4.227   3.962  -4.641  0.00  0.00    +0.011 A 
ATOM      4  C   UNL     1       3.519   4.411  -3.511  0.00  0.00    +0.004 A 
ATOM      5  C   UNL     1       2.477   3.653  -2.952  0.00  0.00    +0.010 A 
ATOM      6  C   UNL     1       1.818   4.117  -1.854  0.00  0.00    +0.010 A 
ATOM      7  C   UNL     1       2.155   5.341  -1.281  0.00  0.00    +0.021 A 
ATOM      8  C   UNL     1       3.161   6.106  -1.797  0.00  0.00    +0.148 A 
ATOM      9  C   UNL     1       3.870   5.655  -2.930  0.00  0.00    +0.113 A 
ATOM     10  N   UNL     1       4.860   6.380  -3.458  0.00  0.00    -0.251 NA
ATOM     11  C   UNL     1       5.522   5.965  -4.511  0.00  0.00    +0.111 A 
BRANCH   8  12
ATOM     12  O   UNL     1       3.478   7.295  -1.222  0.00  0.00    -0.504 OA
ATOM     13  H   UNL     1       4.150   7.230  -0.529  0.00  0.00    +0.292 HD
ENDBRANCH   8  12
ENDBRANCH   1   7
BRANCH   1  14
ATOM     14  C   UNL     1       2.128   5.401   1.179  0.00  0.00    -0.023 A 
ATOM     15  C   UNL     1       2.093   4.080   1.585  0.00  0.00    +0.008 A 
ATOM     16  C   UNL     1       2.765   3.689   2.728  0.00  0.00    +0.033 A 
ATOM     17  C   UNL     1       3.465   4.622   3.470  0.00  0.00    +0.126 A 
ATOM     18  C   UNL     1       3.496   5.944   3.068  0.00  0.00    +0.033 A 
ATOM     19  C   UNL     1       2.828   6.333   1.922  0.00  0.00    +0.008 A 
BRANCH  17  20
ATOM     20  N   UNL     1       4.180   4.205   4.697  0.00  0.00    +0.056 N 
ATOM     21  O   UNL     1       4.796   5.027   5.352  0.00  0.00    -0.126 OA
ATOM     22  O   UNL     1       4.153   3.040   5.052  0.00  0.00    -0.126 OA
ENDBRANCH  17  20
ENDBRANCH   1  14
BRANCH   1  23
ATOM     23  N   UNL     1       0.053   5.248  -0.070  0.00  0.00    -0.317 N 
ATOM     24  H   UNL     1      -0.138   4.463   0.466  0.00  0.00    +0.148 HD
BRANCH  23  25
ATOM     25  C   UNL     1      -0.952   5.826  -0.841  0.00  0.00    +0.139 A 
ATOM     26  C   UNL     1      -2.202   5.210  -0.923  0.00  0.00    +0.155 A 
ATOM     27  C   UNL     1      -3.194   5.802  -1.691  0.00  0.00    +0.050 A 
ATOM     28  C   UNL     1      -2.898   6.984  -2.358  0.00  0.00    +0.021 A 
ATOM     29  C   UNL     1      -1.640   7.536  -2.230  0.00  0.00    +0.084 A 
ATOM     30  N   UNL     1      -0.643   6.988  -1.483  0.00  0.00    -0.347 N 
ATOM     31  H   UNL     1       0.284   7.423  -1.408  0.00  0.00    +0.167 HD
BRANCH  26  32
ATOM     32  O   UNL     1      -2.445   4.050  -0.256  0.00  0.00    -0.503 OA
ATOM     33  H   UNL     1      -2.788   4.175   0.639  0.00  0.00    +0.292 HD
ENDBRANCH  26  32
ENDBRANCH  23  25
ENDBRANCH   1  23
TORSDOF 7
