REMARK  Name = ZINC08453589
REMARK  10 active torsions:
REMARK  status: ('A' for Active; 'I' for Inactive)
REMARK    1  A    between atoms: C_1  and  C_2
REMARK    2  A    between atoms: C_4  and  C_23
REMARK    3  A    between atoms: C_5  and  C_22
REMARK    4  A    between atoms: N_6  and  C_7
REMARK    5  A    between atoms: C_10  and  N_16
REMARK    6  A    between atoms: C_11  and  N_13
REMARK    7  A    between atoms: C_24  and  C_25
REMARK    8  A    between atoms: C_24  and  C_27
REMARK    9  A    between atoms: N_29  and  C_30
REMARK   10  A    between atoms: C_30  and  C_31
REMARK                            x       y       z     vdW  Elec       q    Type
REMARK                         _______ _______ _______ _____ _____    ______ ____
ROOT
ATOM      1  C   UNL     1       5.818  -0.141  -8.364  0.00  0.00    +0.064 C 
ATOM      2  C   UNL     1       6.251  -0.252  -6.925  0.00  0.00    +0.022 A 
ATOM      3  C   UNL     1       5.518   0.119  -5.862  0.00  0.00    +0.031 A 
ATOM      4  C   UNL     1       6.335  -0.169  -4.673  0.00  0.00    -0.003 A 
ATOM      5  C   UNL     1       7.523  -0.699  -5.150  0.00  0.00    +0.028 A 
ATOM      6  N   UNL     1       7.451  -0.745  -6.494  0.00  0.00    -0.317 N 
ATOM      7  C   UNL     1       8.691  -1.149  -4.310  0.00  0.00    +0.064 C 
ENDROOT
BRANCH   6   8
ATOM      8  C   UNL     1       8.467  -1.226  -7.334  0.00  0.00    +0.049 A 
ATOM      9  C   UNL     1       9.687  -0.565  -7.396  0.00  0.00    +0.028 A 
ATOM     10  C   UNL     1      10.686  -1.037  -8.222  0.00  0.00    +0.027 A 
ATOM     11  C   UNL     1      10.472  -2.174  -8.992  0.00  0.00    +0.060 A 
ATOM     12  C   UNL     1       9.252  -2.835  -8.930  0.00  0.00    +0.149 A 
ATOM     13  C   UNL     1       8.254  -2.365  -8.099  0.00  0.00    +0.060 A 
BRANCH  11  14
ATOM     14  N   UNL     1      11.484  -2.653  -9.829  0.00  0.00    -0.328 N 
ATOM     15  C   UNL     1      12.649  -3.091  -9.049  0.00  0.00    +0.105 C 
ATOM     16  C   UNL     1      13.674  -3.740  -9.982  0.00  0.00    +0.019 C 
ATOM     17  C   UNL     1      14.101  -2.727 -11.047  0.00  0.00    +0.003 C 
ATOM     18  C   UNL     1      12.863  -2.251 -11.813  0.00  0.00    +0.019 C 
ATOM     19  C   UNL     1      11.862  -1.645 -10.827  0.00  0.00    +0.105 C 
ENDBRANCH  11  14
BRANCH  12  20
ATOM     20  N   UNL     1       9.023  -4.046  -9.750  0.00  0.00    +0.058 N 
ATOM     21  O   UNL     1       7.952  -4.625  -9.695  0.00  0.00    -0.126 OA
ATOM     22  O   UNL     1       9.904  -4.463 -10.479  0.00  0.00    -0.126 OA
ENDBRANCH  12  20
ENDBRANCH   6   8
BRANCH   4  23
ATOM     23  C   UNL     1       5.981   0.055  -3.319  0.00  0.00    +0.033 C 
ATOM     24  C   UNL     1       4.934   0.901  -3.009  0.00  0.00    +0.114 C 
BRANCH  24  25
ATOM     25  C   UNL     1       4.470   1.017  -1.620  0.00  0.00    +0.255 C 
ATOM     26  O   UNL     1       5.008   0.369  -0.742  0.00  0.00    -0.269 OA
ATOM     27  N   UNL     1       3.448   1.843  -1.318  0.00  0.00    -0.306 N 
ATOM     28  H   UNL     1       3.019   2.360  -2.017  0.00  0.00    +0.149 HD
BRANCH  27  29
ATOM     29  C   UNL     1       2.986   1.959   0.067  0.00  0.00    +0.147 C 
BRANCH  29  30
ATOM     30  C   UNL     1       1.842   2.939   0.135  0.00  0.00    +0.007 A 
ATOM     31  C   UNL     1       0.512   2.708   0.011  0.00  0.00    +0.013 A 
ATOM     32  C   UNL     1      -0.364   3.773   0.103  0.00  0.00    +0.008 A 
ATOM     33  C   UNL     1       0.132   5.015   0.326  0.00  0.00    +0.045 A 
ATOM     34  S   UNL     1       1.888   4.704   0.399  0.00  0.00    -0.100 S 
ENDBRANCH  29  30
ENDBRANCH  27  29
ENDBRANCH  24  25
BRANCH  24  35
ATOM     35  C   UNL     1       4.301   1.664  -4.042  0.00  0.00    +0.104 C 
ATOM     36  N   UNL     1       3.798   2.270  -4.862  0.00  0.00    -0.191 NA
ENDBRANCH  24  35
ENDBRANCH   4  23
TORSDOF 8
