REMARK  Name = ZINC34906713
REMARK  4 active torsions:
REMARK  status: ('A' for Active; 'I' for Inactive)
REMARK    1  A    between atoms: N_9  and  C_10
REMARK    2  A    between atoms: C_19  and  C_22
REMARK    3  A    between atoms: N_24  and  C_25
REMARK    4  A    between atoms: C_25  and  C_26
REMARK                            x       y       z     vdW  Elec       q    Type
REMARK                         _______ _______ _______ _____ _____    ______ ____
ROOT
ATOM      1  C   UNL     1       0.915   1.892   0.737  0.00  0.00    +0.002 A 
ATOM      2  C   UNL     1       0.919   1.931  -0.649  0.00  0.00    +0.002 A 
ATOM      3  C   UNL     1       1.413   0.868  -1.377  0.00  0.00    +0.028 A 
ATOM      4  C   UNL     1       1.909  -0.247  -0.720  0.00  0.00    +0.068 A 
ATOM      5  C   UNL     1       1.906  -0.293   0.684  0.00  0.00    +0.065 A 
ATOM      6  C   UNL     1       1.403   0.792   1.406  0.00  0.00    +0.028 A 
ATOM      7  N   UNL     1       2.442  -1.488   1.046  0.00  0.00    -0.327 N 
ATOM      8  C   UNL     1       2.768  -2.167  -0.025  0.00  0.00    +0.177 A 
ATOM      9  N   UNL     1       2.459  -1.446  -1.143  0.00  0.00    -0.310 N 
ATOM     10  N   UNL     1       3.337  -3.423  -0.025  0.00  0.00    -0.302 N 
ATOM     11  C   UNL     1       4.796  -3.583  -0.098  0.00  0.00    +0.108 C 
ATOM     12  C   UNL     1       5.255  -4.464   1.068  0.00  0.00    +0.020 C 
ATOM     13  C   UNL     1       4.475  -5.781   1.045  0.00  0.00    +0.016 C 
ATOM     14  C   UNL     1       2.981  -5.495   1.214  0.00  0.00    +0.092 C 
ATOM     15  C   UNL     1       2.498  -4.626   0.055  0.00  0.00    +0.120 C 
ATOM     16  H   UNL     1       2.566  -1.792   1.959  0.00  0.00    +0.169 HD
ENDROOT
BRANCH   9  17
ATOM     17  C   UNL     1       2.670  -1.863  -2.532  0.00  0.00    +0.090 C 
ATOM     18  C   UNL     1       3.536  -0.822  -3.270  0.00  0.00    +0.025 C 
ATOM     19  C   UNL     1       2.940  -0.776  -4.699  0.00  0.00    +0.002 C 
ATOM     20  C   UNL     1       1.419  -0.914  -4.439  0.00  0.00    +0.002 C 
ATOM     21  C   UNL     1       1.324  -1.922  -3.275  0.00  0.00    +0.025 C 
ENDBRANCH   9  17
BRANCH  14  22
ATOM     22  C   UNL     1       2.218  -6.794   1.224  0.00  0.00    +0.218 C 
ATOM     23  O   UNL     1       1.369  -7.005   0.385  0.00  0.00    -0.275 OA
ATOM     24  N   UNL     1       2.480  -7.722   2.166  0.00  0.00    -0.311 N 
ATOM     25  H   UNL     1       3.160  -7.553   2.837  0.00  0.00    +0.149 HD
BRANCH  24  26
ATOM     26  C   UNL     1       1.738  -8.985   2.176  0.00  0.00    +0.139 C 
BRANCH  26  27
ATOM     27  C   UNL     1       2.218  -9.841   3.321  0.00  0.00    -0.030 A 
ATOM     28  C   UNL     1       3.269 -10.720   3.133  0.00  0.00    +0.008 A 
ATOM     29  C   UNL     1       3.710 -11.504   4.182  0.00  0.00    +0.038 A 
ATOM     30  C   UNL     1       3.099 -11.409   5.421  0.00  0.00    +0.123 A 
ATOM     31  C   UNL     1       2.047 -10.529   5.608  0.00  0.00    +0.038 A 
ATOM     32  C   UNL     1       1.611  -9.741   4.559  0.00  0.00    +0.008 A 
ATOM     33  F   UNL     1       3.530 -12.176   6.447  0.00  0.00    -0.205 F 
ENDBRANCH  26  27
ENDBRANCH  24  26
ENDBRANCH  14  22
TORSDOF 4
