REMARK  Name = ZINC39466497
REMARK  4 active torsions:
REMARK  status: ('A' for Active; 'I' for Inactive)
REMARK    1  A    between atoms: C_4  and  C_7
REMARK    2  A    between atoms: C_7  and  C_8
REMARK    3  A    between atoms: P_17  and  C_27
REMARK    4  A    between atoms: C_27  and  C_28
REMARK                            x       y       z     vdW  Elec       q    Type
REMARK                         _______ _______ _______ _____ _____    ______ ____
ROOT
ATOM      1  C   UNL     1       4.120  -1.075   1.366  0.00  0.00    -0.033 C 
ATOM      2  C   UNL     1       3.860  -2.289   1.841  0.00  0.00    -0.018 C 
ATOM      3  C   UNL     1       4.282  -2.653   3.239  0.00  0.00    +0.016 C 
ATOM      4  C   UNL     1       4.459  -4.158   3.367  0.00  0.00    -0.003 C 
ATOM      5  C   UNL     1       5.457  -4.507   4.480  0.00  0.00    -0.020 C 
ATOM      6  C   UNL     1       5.029  -5.886   5.002  0.00  0.00    +0.156 C 
ATOM      7  O   UNL     1       5.920  -6.327   6.038  0.00  0.00    -0.319 OA
ATOM      8  P   UNL     1       6.213  -5.293   7.261  0.00  0.00    +0.262 P 
ATOM      9  O   UNL     1       7.478  -5.646   7.942  0.00  0.00    -0.274 OA
ATOM     10  N   UNL     1       6.343  -3.816   6.541  0.00  0.00    -0.291 NA
ATOM     11  N   UNL     1       5.450  -3.502   5.536  0.00  0.00    +0.397 N 
ATOM     12  C   UNL     1       5.909  -2.188   5.060  0.00  0.00    -0.046 C 
ATOM     13  C   UNL     1       5.612  -1.977   3.568  0.00  0.00    +0.005 C 
ATOM     14  C   UNL     1       5.524  -0.506   3.260  0.00  0.00    -0.009 C 
ATOM     15  C   UNL     1       4.815  -0.092   2.215  0.00  0.00    +0.017 C 
ATOM     16 BR   UNL     1       4.693   1.755   1.826  0.00  0.00    -0.050 Br
ATOM     17  H   UNL     1       7.024  -3.186   6.824  0.00  0.00    +0.111 HD
ATOM     18  H   UNL     1       4.519  -3.417   5.915  0.00  0.00    -0.055 HD
ENDROOT
BRANCH   1  19
ATOM     19  C   UNL     1       3.711  -0.707  -0.038  0.00  0.00    +0.071 C 
BRANCH  19  23
ATOM     20  C   UNL     1       6.987  -1.373  -2.697  0.00  0.00    +0.000 A 
ATOM     21  C   UNL     1       6.144  -2.417  -2.364  0.00  0.00    +0.000 A 
ATOM     22  C   UNL     1       5.085  -2.201  -1.503  0.00  0.00    +0.004 A 
ATOM     23  C   UNL     1       4.867  -0.942  -0.975  0.00  0.00    -0.043 A 
ATOM     24  C   UNL     1       5.710   0.102  -1.309  0.00  0.00    +0.004 A 
ATOM     25  C   UNL     1       6.769  -0.114  -2.171  0.00  0.00    +0.000 A 
ENDBRANCH  19  23
ENDBRANCH   1  19
BRANCH   8  26
ATOM     26  C   UNL     1       4.830  -5.306   8.447  0.00  0.00    +0.147 C 
BRANCH  26  27
ATOM     27  C   UNL     1       4.662  -6.694   9.009  0.00  0.00    -0.037 A 
ATOM     28  C   UNL     1       3.831  -7.599   8.376  0.00  0.00    +0.004 A 
ATOM     29  C   UNL     1       3.677  -8.873   8.891  0.00  0.00    +0.000 A 
ATOM     30  C   UNL     1       4.354  -9.241  10.038  0.00  0.00    +0.000 A 
ATOM     31  C   UNL     1       5.186  -8.336  10.670  0.00  0.00    +0.000 A 
ATOM     32  C   UNL     1       5.343  -7.064  10.153  0.00  0.00    +0.004 A 
ENDBRANCH  26  27
ENDBRANCH   8  26
TORSDOF 4
