REMARK  Name = ZINC36017182
REMARK  15 active torsions:
REMARK  status: ('A' for Active; 'I' for Inactive)
REMARK    1  A    between atoms: C_1  and  C_2
REMARK    2  A    between atoms: C_2  and  N_3
REMARK    3  A    between atoms: C_4  and  C_24
REMARK    4  A    between atoms: C_5  and  C_19
REMARK    5  A    between atoms: C_6  and  C_11
REMARK    6  A    between atoms: C_16  and  O_17
REMARK    7  A    between atoms: O_17  and  C_18
REMARK    8  A    between atoms: C_19  and  O_21
REMARK    9  A    between atoms: O_21  and  C_22
REMARK   10  A    between atoms: C_22  and  C_23
REMARK   11  A    between atoms: C_24  and  N_25
REMARK   12  A    between atoms: N_34  and  C_35
REMARK   13  A    between atoms: C_35  and  C_36
REMARK   14  A    between atoms: C_35  and  C_37
REMARK   15  A    between atoms: C_35  and  C_38
REMARK                            x       y       z     vdW  Elec       q    Type
REMARK                         _______ _______ _______ _____ _____    ______ ____
ROOT
ATOM      1  N   UNL     1       0.941   0.043  -1.264  0.00  0.00    -0.261 N 
ATOM      2  C   UNL     1       0.308  -0.445  -2.371  0.00  0.00    +0.010 C 
ATOM      3  C   UNL     1       0.988  -1.126  -3.319  0.00  0.00    +0.077 C 
ATOM      4  C   UNL     1       2.475  -1.328  -3.113  0.00  0.00    +0.147 C 
ATOM      5  N   UNL     1       3.061  -0.762  -1.886  0.00  0.00    -0.288 N 
ATOM      6  C   UNL     1       2.252  -0.103  -1.034  0.00  0.00    +0.307 C 
ATOM      7  O   UNL     1       2.727   0.372  -0.020  0.00  0.00    -0.252 OA
ATOM      8  H   UNL     1       4.008  -0.859  -1.698  0.00  0.00    +0.151 HD
ENDROOT
BRANCH   4   9
ATOM      9  C   UNL     1       3.194  -0.725  -4.292  0.00  0.00    +0.019 A 
ATOM     10  C   UNL     1       3.633   0.584  -4.238  0.00  0.00    +0.009 A 
ATOM     11  C   UNL     1       4.293   1.138  -5.319  0.00  0.00    +0.001 A 
ATOM     12  C   UNL     1       4.515   0.384  -6.457  0.00  0.00    +0.004 A 
ATOM     13  C   UNL     1       4.079  -0.925  -6.516  0.00  0.00    +0.046 A 
ATOM     14  C   UNL     1       3.421  -1.485  -5.429  0.00  0.00    +0.125 A 
BRANCH  14  15
ATOM     15  O   UNL     1       2.995  -2.775  -5.482  0.00  0.00    -0.495 OA
ATOM     16  C   UNL     1       3.355  -3.530  -6.641  0.00  0.00    +0.277 C 
ENDBRANCH  14  15
ENDBRANCH   4   9
BRANCH   1  18
ATOM     17  C   UNL     1       0.220   2.272  -0.564  0.00  0.00    +0.025 C 
ATOM     18  C   UNL     1       0.142   0.772  -0.276  0.00  0.00    +0.111 C 
ENDBRANCH   1  18
BRANCH   3  19
ATOM     19  C   UNL     1       0.333  -1.632  -4.466  0.00  0.00    +0.339 C 
ATOM     20  O   UNL     1      -0.010  -2.799  -4.505  0.00  0.00    -0.245 OA
BRANCH  19  21
ATOM     21  O   UNL     1       0.089  -0.822  -5.517  0.00  0.00    -0.462 OA
BRANCH  21  22
ATOM     22  C   UNL     1      -0.674  -1.369  -6.595  0.00  0.00    +0.229 C 
ATOM     23  C   UNL     1      -0.744  -0.353  -7.737  0.00  0.00    +0.048 C 
ENDBRANCH  21  22
ENDBRANCH  19  21
ENDBRANCH   3  19
BRANCH   2  24
ATOM     24  C   UNL     1      -1.173  -0.221  -2.537  0.00  0.00    -0.026 C 
BRANCH  24  25
ATOM     25  N   UNL     1      -1.902  -1.410  -2.078  0.00  0.00    +0.384 N 
ATOM     26  C   UNL     1      -3.298  -1.284  -2.493  0.00  0.00    -0.077 C 
ATOM     27  C   UNL     1      -3.882  -2.663  -2.709  0.00  0.00    +0.000 C 
ATOM     28  C   UNL     1      -4.573  -3.134  -1.416  0.00  0.00    +0.107 C 
ATOM     29  N   UNL     1      -3.789  -2.751  -0.225  0.00  0.00    -0.287 N 
ATOM     30  C   UNL     1      -2.345  -2.858  -0.179  0.00  0.00    +0.091 C 
ATOM     31  C   UNL     1      -1.705  -1.545  -0.686  0.00  0.00    -0.059 C 
ATOM     32  C   UNL     1      -4.440  -2.285   0.859  0.00  0.00    +0.303 C 
ATOM     33  O   UNL     1      -5.655  -2.268   0.877  0.00  0.00    -0.253 OA
ATOM     34  N   UNL     1      -3.744  -1.838   1.923  0.00  0.00    -0.294 N 
ATOM     35  H   UNL     1      -2.777  -1.918   1.939  0.00  0.00    +0.151 HD
ATOM     36  H   UNL     1      -1.509  -2.220  -2.535  0.00  0.00    -0.081 HD
BRANCH  34  37
ATOM     37  C   UNL     1      -4.447  -1.230   3.056  0.00  0.00    +0.028 C 
ATOM     38  C   UNL     1      -5.423  -2.245   3.654  0.00  0.00    +0.031 C 
ATOM     39  C   UNL     1      -3.431  -0.812   4.121  0.00  0.00    +0.031 C 
ATOM     40  C   UNL     1      -5.220  -0.000   2.577  0.00  0.00    +0.031 C 
ENDBRANCH  34  37
ENDBRANCH  24  25
ENDBRANCH   2  24
TORSDOF 9
