REMARK  Name = ZINC39542914
REMARK  9 active torsions:
REMARK  status: ('A' for Active; 'I' for Inactive)
REMARK    1  A    between atoms: C_1  and  C_2
REMARK    2  A    between atoms: C_2  and  C_3
REMARK    3  A    between atoms: C_2  and  S_4
REMARK    4  A    between atoms: S_4  and  N_7
REMARK    5  A    between atoms: N_7  and  C_8
REMARK    6  A    between atoms: C_8  and  C_9
REMARK    7  A    between atoms: C_15  and  C_17
REMARK    8  A    between atoms: C_20  and  C_31
REMARK    9  A    between atoms: C_36  and  O_37
REMARK                            x       y       z     vdW  Elec       q    Type
REMARK                         _______ _______ _______ _____ _____    ______ ____
ROOT
ATOM      1  C   UNL     1       3.004  -1.793   0.099  0.00  0.00    +0.150 C 
ATOM      2  C   UNL     1       2.262  -0.890   1.101  0.00  0.00    +0.069 C 
ATOM      3  C   UNL     1       2.900  -1.210   2.434  0.00  0.00    -0.000 C 
ATOM      4  C   UNL     1       3.834  -2.134   2.259  0.00  0.00    +0.079 C 
ATOM      5  N   UNL     1       4.669  -2.665   3.252  0.00  0.00    -0.303 N 
ATOM      6  C   UNL     1       5.982  -2.942   2.835  0.00  0.00    +0.037 A 
ATOM      7  C   UNL     1       6.926  -3.361   3.761  0.00  0.00    +0.023 A 
ATOM      8  C   UNL     1       8.214  -3.642   3.349  0.00  0.00    +0.002 A 
ATOM      9  C   UNL     1       8.555  -3.505   2.015  0.00  0.00    +0.000 A 
ATOM     10  C   UNL     1       7.616  -3.083   1.094  0.00  0.00    +0.007 A 
ATOM     11  C   UNL     1       6.323  -2.794   1.498  0.00  0.00    -0.010 A 
ATOM     12  C   UNL     1       5.328  -2.312   0.475  0.00  0.00    +0.124 C 
ATOM     13  N   UNL     1       3.955  -2.554   0.924  0.00  0.00    -0.370 NA
ATOM     14  H   UNL     1       4.363  -2.829   4.158  0.00  0.00    +0.153 HD
ATOM     15  H   UNL     1       3.750  -3.539   0.858  0.00  0.00    +0.128 HD
ENDROOT
BRANCH   3  16
ATOM     16  C   UNL     1       2.540  -0.593   3.725  0.00  0.00    +0.023 A 
ATOM     17  C   UNL     1       3.375   0.367   4.300  0.00  0.00    +0.012 A 
ATOM     18  C   UNL     1       3.033   0.941   5.507  0.00  0.00    +0.001 A 
ATOM     19  C   UNL     1       1.865   0.569   6.150  0.00  0.00    +0.004 A 
ATOM     20  C   UNL     1       1.031  -0.381   5.590  0.00  0.00    +0.046 A 
ATOM     21  C   UNL     1       1.356  -0.961   4.376  0.00  0.00    +0.124 A 
BRANCH  21  22
ATOM     22  O   UNL     1       0.533  -1.890   3.822  0.00  0.00    -0.506 OA
ATOM     23  H   UNL     1       0.729  -2.799   4.088  0.00  0.00    +0.292 HD
ENDBRANCH  21  22
ENDBRANCH   3  16
BRANCH   1  25
ATOM     24  N   UNL     1       1.198  -2.252  -1.528  0.00  0.00    -0.170 N 
ATOM     25  C   UNL     1       2.038  -2.725  -0.586  0.00  0.00    +0.254 C 
ATOM     26  O   UNL     1       2.017  -3.901  -0.289  0.00  0.00    -0.272 OA
BRANCH  24  27
ATOM     27  S   UNL     1       1.319  -0.679  -2.030  0.00  0.00    +0.050 S 
ATOM     28  O   UNL     1       0.664  -0.650  -3.291  0.00  0.00    -0.155 OA
ATOM     29  O   UNL     1       2.702  -0.370  -1.925  0.00  0.00    -0.155 OA
BRANCH  27  31
ATOM     30  C   UNL     1       0.299   1.737  -1.252  0.00  0.00    +0.033 C 
ATOM     31  C   UNL     1       0.372   0.274  -0.811  0.00  0.00    +0.145 C 
ATOM     32  C   UNL     1      -1.044  -0.298  -0.706  0.00  0.00    +0.033 C 
ENDBRANCH  27  31
ENDBRANCH  24  27
BRANCH  24  33
ATOM     33  C   UNL     1       0.178  -3.130  -2.107  0.00  0.00    +0.169 C 
BRANCH  33  34
ATOM     34  C   UNL     1       0.779  -3.916  -3.244  0.00  0.00    -0.028 A 
ATOM     35  C   UNL     1       0.748  -3.408  -4.529  0.00  0.00    +0.005 A 
ATOM     36  C   UNL     1       1.299  -4.129  -5.571  0.00  0.00    +0.000 A 
ATOM     37  C   UNL     1       1.881  -5.359  -5.329  0.00  0.00    +0.000 A 
ATOM     38  C   UNL     1       1.914  -5.867  -4.044  0.00  0.00    +0.000 A 
ATOM     39  C   UNL     1       1.366  -5.144  -3.001  0.00  0.00    +0.005 A 
ENDBRANCH  33  34
ENDBRANCH  24  33
ENDBRANCH   1  25
TORSDOF 7
