REMARK  Name = ZINC28639545
REMARK  10 active torsions:
REMARK  status: ('A' for Active; 'I' for Inactive)
REMARK    1  A    between atoms: C_1  and  C_2
REMARK    2  A    between atoms: C_2  and  C_3
REMARK    3  A    between atoms: C_2  and  C_4
REMARK    4  A    between atoms: C_2  and  C_5
REMARK    5  A    between atoms: C_9  and  C_11
REMARK    6  A    between atoms: C_11  and  C_12
REMARK    7  A    between atoms: C_12  and  C_14
REMARK    8  A    between atoms: C_12  and  N_25
REMARK    9  A    between atoms: C_20  and  C_22
REMARK   10  A    between atoms: C_26  and  C_28
REMARK                            x       y       z     vdW  Elec       q    Type
REMARK                         _______ _______ _______ _____ _____    ______ ____
ROOT
ATOM      1  C   UNL     1       3.528   0.345  -4.486  0.00  0.00    +0.165 C 
ENDROOT
BRANCH   1   2
ATOM      2  C   UNL     1       4.915   0.565  -5.031  0.00  0.00    +0.237 C 
ATOM      3  O   UNL     1       5.199   0.170  -6.142  0.00  0.00    -0.274 OA
ATOM      4  N   UNL     1       5.840   1.200  -4.285  0.00  0.00    -0.288 N 
ATOM      5  C   UNL     1       5.665   1.635  -2.887  0.00  0.00    +0.109 C 
ATOM      6  C   UNL     1       7.102   1.715  -2.314  0.00  0.00    +0.021 C 
ATOM      7  C   UNL     1       7.895   2.252  -3.535  0.00  0.00    +0.033 C 
ATOM      8  C   UNL     1       7.193   1.569  -4.728  0.00  0.00    +0.162 C 
BRANCH   8   9
ATOM      9  C   UNL     1       7.953   0.333  -5.135  0.00  0.00    +0.231 C 
ATOM     10  O   UNL     1       7.423  -0.755  -5.065  0.00  0.00    -0.274 OA
ATOM     11  N   UNL     1       9.222   0.438  -5.577  0.00  0.00    -0.328 N 
ATOM     12  H   UNL     1       9.646   1.309  -5.633  0.00  0.00    +0.145 HD
ATOM     13  H   UNL     1       9.712  -0.357  -5.839  0.00  0.00    +0.145 HD
ENDBRANCH   8   9
ENDBRANCH   1   2
BRANCH   1  14
ATOM     14  N   UNL     1       2.574   0.261  -5.595  0.00  0.00    -0.302 N 
ATOM     15  C   UNL     1       2.050   1.386  -6.119  0.00  0.00    +0.234 C 
ATOM     16  O   UNL     1       2.367   2.468  -5.673  0.00  0.00    -0.274 OA
ATOM     17  H   UNL     1       2.321  -0.605  -5.951  0.00  0.00    +0.150 HD
BRANCH  15  18
ATOM     18  C   UNL     1       1.069   1.299  -7.260  0.00  0.00    +0.159 C 
ATOM     19  C   UNL     1       1.832   1.077  -8.567  0.00  0.00    +0.032 C 
ATOM     20  C   UNL     1       0.851   1.215  -9.738  0.00  0.00    +0.011 C 
ATOM     21  C   UNL     1       0.394   2.674  -9.818  0.00  0.00    +0.096 C 
ATOM     22  C   UNL     1      -0.035   3.150  -8.460  0.00  0.00    +0.214 C 
ATOM     23  O   UNL     1      -0.719   4.149  -8.392  0.00  0.00    -0.276 OA
ATOM     24  N   UNL     1       0.298   2.534  -7.328  0.00  0.00    -0.304 N 
ATOM     25  H   UNL     1       0.005   2.933  -6.494  0.00  0.00    +0.149 HD
ENDBRANCH  15  18
ENDBRANCH   1  14
BRANCH   1  26
ATOM     26  C   UNL     1       3.495  -0.958  -3.685  0.00  0.00    +0.086 C 
BRANCH  26  31
ATOM     27  C   UNL     1       0.571  -1.037  -1.560  0.00  0.00    +0.090 A 
ATOM     28  N   UNL     1       0.049  -1.596  -2.673  0.00  0.00    -0.349 N 
ATOM     29  H   UNL     1      -0.863  -1.904  -2.788  0.00  0.00    +0.166 HD
ATOM     30  C   UNL     1       1.048  -1.645  -3.608  0.00  0.00    +0.105 A 
ATOM     31  C   UNL     1       2.145  -1.115  -3.035  0.00  0.00    +0.036 A 
ATOM     32  N   UNL     1       1.824  -0.747  -1.786  0.00  0.00    -0.347 N 
ATOM     33  H   UNL     1       2.428  -0.333  -1.150  0.00  0.00    +0.167 HD
BRANCH  27  35
ATOM     34  C   UNL     1      -0.161   0.714   0.035  0.00  0.00    +0.018 C 
ATOM     35  C   UNL     1      -0.171  -0.784  -0.273  0.00  0.00    +0.018 C 
ATOM     36  C   UNL     1       0.512  -1.544   0.867  0.00  0.00    +0.018 C 
ATOM     37  C   UNL     1      -1.616  -1.267  -0.414  0.00  0.00    +0.018 C 
ENDBRANCH  27  35
ENDBRANCH  26  31
ENDBRANCH   1  26
TORSDOF 7
