REMARK  Name = ZINC25583815
REMARK  10 active torsions:
REMARK  status: ('A' for Active; 'I' for Inactive)
REMARK    1  A    between atoms: C_1  and  N_2
REMARK    2  A    between atoms: N_2  and  C_3
REMARK    3  A    between atoms: N_2  and  C_4
REMARK    4  A    between atoms: C_7  and  C_10
REMARK    5  A    between atoms: C_14  and  C_17
REMARK    6  A    between atoms: C_17  and  S_18
REMARK    7  A    between atoms: S_18  and  C_19
REMARK    8  A    between atoms: C_20  and  C_35
REMARK    9  A    between atoms: C_21  and  C_31
REMARK   10  A    between atoms: C_23  and  C_25
REMARK                            x       y       z     vdW  Elec       q    Type
REMARK                         _______ _______ _______ _____ _____    ______ ____
ROOT
ATOM      1  S   UNL     1       2.658   8.155   0.016  0.00  0.00    -0.102 S 
ENDROOT
BRANCH   1   2
ATOM      2  C   UNL     1       1.108   7.318   0.028  0.00  0.00    +0.116 A 
ATOM      3  C   UNL     1      -0.087   8.060   0.043  0.00  0.00    +0.095 A 
ATOM      4  C   UNL     1      -1.310   7.378   0.052  0.00  0.00    +0.077 A 
ATOM      5  C   UNL     1      -1.293   5.997   0.040  0.00  0.00    +0.042 A 
ATOM      6  C   UNL     1      -0.070   5.326   0.030  0.00  0.00    +0.073 A 
ATOM      7  N   UNL     1       1.076   5.996   0.022  0.00  0.00    -0.239 NA
BRANCH   6   8
ATOM      8  C   UNL     1      -0.050   3.844   0.023  0.00  0.00    +0.000 A 
ATOM      9  C   UNL     1       1.165   3.161   0.007  0.00  0.00    +0.010 A 
ATOM     10  C   UNL     1       1.177   1.781   0.000  0.00  0.00    +0.001 A 
ATOM     11  C   UNL     1      -0.013   1.076   0.008  0.00  0.00    +0.000 A 
ATOM     12  C   UNL     1      -1.221   1.748   0.017  0.00  0.00    +0.001 A 
ATOM     13  C   UNL     1      -1.246   3.128   0.031  0.00  0.00    +0.010 A 
ENDBRANCH   6   8
BRANCH   4  14
ATOM     14  C   UNL     1      -2.615   8.132   0.069  0.00  0.00    +0.419 C 
ATOM     15  F   UNL     1      -3.679   7.224   0.075  0.00  0.00    -0.166 F 
ATOM     16  F   UNL     1      -2.676   8.931   1.216  0.00  0.00    -0.166 F 
ATOM     17  F   UNL     1      -2.700   8.942  -1.068  0.00  0.00    -0.166 F 
ENDBRANCH   4  14
BRANCH   3  18
ATOM     18  C   UNL     1      -0.054   9.492   0.050  0.00  0.00    +0.102 C 
ATOM     19  N   UNL     1      -0.028  10.628   0.055  0.00  0.00    -0.191 NA
ENDBRANCH   3  18
ENDBRANCH   1   2
BRANCH   1  20
ATOM     20  C   UNL     1       3.782   6.737  -0.002  0.00  0.00    +0.105 C 
BRANCH  20  24
ATOM     21  C   UNL     1       6.936   7.885  -1.375  0.00  0.00    +0.094 C 
ATOM     22  N   UNL     1       7.292   6.500  -0.989  0.00  0.00    +0.401 N 
ATOM     23  C   UNL     1       6.211   6.042  -0.082  0.00  0.00    -0.046 C 
ATOM     24  C   UNL     1       5.229   7.233  -0.014  0.00  0.00    +0.110 C 
ATOM     25  O   UNL     1       5.503   7.975  -1.225  0.00  0.00    -0.388 OA
ATOM     26  H   UNL     1       7.349   5.872  -1.890  0.00  0.00    -0.081 HD
ATOM     27  H   UNL     1       8.266   6.501  -0.480  0.00  0.00    -0.081 HD
BRANCH  21  31
ATOM     28  C   UNL     1       8.045   8.621  -5.436  0.00  0.00    +0.029 A 
ATOM     29  C   UNL     1       7.993   9.671  -4.528  0.00  0.00    +0.023 A 
ATOM     30  C   UNL     1       7.634   9.429  -3.216  0.00  0.00    +0.006 A 
ATOM     31  C   UNL     1       7.327   8.144  -2.807  0.00  0.00    -0.036 A 
ATOM     32  C   UNL     1       7.383   7.096  -3.708  0.00  0.00    +0.006 A 
ATOM     33  C   UNL     1       7.736   7.332  -5.022  0.00  0.00    +0.023 A 
BRANCH  28  35
ATOM     34  C   UNL     1       8.734  10.222  -7.199  0.00  0.00    +0.129 C 
ATOM     35  N   UNL     1       8.408   8.862  -6.764  0.00  0.00    -0.336 N 
ATOM     36  C   UNL     1       8.462   7.754  -7.721  0.00  0.00    +0.129 C 
ENDBRANCH  28  35
ENDBRANCH  21  31
ENDBRANCH  20  24
ENDBRANCH   1  20
TORSDOF 8
