REMARK  Name = ZINC41660448
REMARK  3 active torsions:
REMARK  status: ('A' for Active; 'I' for Inactive)
REMARK    1  A    between atoms: C_1  and  N_2
REMARK    2  A    between atoms: C_6  and  C_7
REMARK    3  A    between atoms: C_8  and  C_13
REMARK                            x       y       z     vdW  Elec       q    Type
REMARK                         _______ _______ _______ _____ _____    ______ ____
ROOT
ATOM      1  C   UNL     1       0.031  -0.382   2.505  0.00  0.00    +0.119 A 
ATOM      2  C   UNL     1       0.058  -1.302   3.517  0.00  0.00    +0.025 A 
ATOM      3  S   UNL     1       0.055  -0.227   4.946  0.00  0.00    -0.057 S 
ATOM      4  C   UNL     1       0.018   1.325   4.061  0.00  0.00    +0.156 A 
ATOM      5  N   UNL     1       0.017   0.916   2.807  0.00  0.00    -0.222 NA
ATOM      6  N   UNL     1       0.000   2.617   4.561  0.00  0.00    -0.337 N 
ATOM      7  H   UNL     1       0.008   2.767   5.519  0.00  0.00    +0.144 HD
ATOM      8  H   UNL     1      -0.019   3.372   3.952  0.00  0.00    +0.144 HD
ENDROOT
BRANCH   1  14
ATOM      9  C   UNL     1      -0.018   1.461   0.010  0.00  0.00    +0.150 C 
ATOM     10  N   UNL     1       0.002  -0.004   0.002  0.00  0.00    -0.332 N 
ATOM     11  C   UNL     1       0.009  -0.814  -1.105  0.00  0.00    +0.107 A 
ATOM     12  C   UNL     1       0.028  -2.086  -0.663  0.00  0.00    +0.131 A 
ATOM     13  N   UNL     1       0.033  -2.069   0.676  0.00  0.00    -0.234 NA
ATOM     14  C   UNL     1       0.024  -0.822   1.095  0.00  0.00    +0.160 A 
ENDBRANCH   1  14
BRANCH   2  15
ATOM     15  C   UNL     1       0.083  -2.807   3.447  0.00  0.00    +0.028 C 
ATOM     16  C   UNL     1      -1.116  -3.392   4.222  0.00  0.00    +0.009 C 
ATOM     17  C   UNL     1      -0.550  -4.670   4.889  0.00  0.00    +0.001 C 
ATOM     18  C   UNL     1       0.880  -4.239   5.296  0.00  0.00    +0.001 C 
ATOM     19  C   UNL     1       1.353  -3.346   4.131  0.00  0.00    +0.009 C 
ENDBRANCH   2  15
TORSDOF 2
