REMARK  Name = ZINC61639365
REMARK  6 active torsions:
REMARK  status: ('A' for Active; 'I' for Inactive)
REMARK    1  A    between atoms: C_1  and  C_2
REMARK    2  A    between atoms: C_4  and  C_17
REMARK    3  A    between atoms: N_5  and  C_7
REMARK    4  A    between atoms: C_7  and  C_8
REMARK    5  A    between atoms: C_12  and  N_14
REMARK    6  A    between atoms: N_14  and  N_15
REMARK                            x       y       z     vdW  Elec       q    Type
REMARK                         _______ _______ _______ _____ _____    ______ ____
ROOT
ATOM      1  C   UNL     1       1.482  -3.681   1.774  0.00  0.00    +0.083 A 
ATOM      2  C   UNL     1       2.136  -4.558   0.929  0.00  0.00    +0.064 A 
ATOM      3  C   UNL     1       3.452  -4.910   1.201  0.00  0.00    +0.025 A 
ATOM      4  C   UNL     1       4.064  -4.367   2.316  0.00  0.00    +0.046 A 
ATOM      5  C   UNL     1       3.346  -3.490   3.122  0.00  0.00    +0.132 A 
ATOM      6  N   UNL     1       2.095  -3.174   2.828  0.00  0.00    -0.233 NA
ATOM      7 CL   UNL     1       1.320  -5.212  -0.457  0.00  0.00    -0.082 Cl
ENDROOT
BRANCH   5   8
ATOM      8  N   UNL     1       3.950  -2.937   4.246  0.00  0.00    -0.268 N 
ATOM      9  H   UNL     1       4.868  -3.163   4.464  0.00  0.00    +0.167 HD
BRANCH   8  10
ATOM     10  N   UNL     1       3.251  -2.076   5.043  0.00  0.00    -0.255 NA
ATOM     11  H   UNL     1       2.396  -2.500   5.371  0.00  0.00    +0.140 HD
ATOM     12  H   UNL     1       3.816  -1.758   5.816  0.00  0.00    +0.140 HD
ENDBRANCH   8  10
ENDBRANCH   5   8
BRANCH   1  13
ATOM     13  C   UNL     1       0.055  -3.295   1.486  0.00  0.00    +0.200 C 
BRANCH  13  18
ATOM     14  C   UNL     1      -0.018   1.503   0.010  0.00  0.00    +0.069 C 
ATOM     15  C   UNL     1       0.002  -0.004   0.002  0.00  0.00    +0.078 A 
ATOM     16  C   UNL     1       0.008  -0.818  -1.136  0.00  0.00    +0.084 A 
ATOM     17  C   UNL     1       0.028  -2.108  -0.725  0.00  0.00    +0.055 A 
ATOM     18  N   UNL     1       0.034  -2.109   0.625  0.00  0.00    -0.261 N 
ATOM     19  N   UNL     1       0.023  -0.777   1.058  0.00  0.00    -0.174 NA
ATOM     20  C   UNL     1       0.041  -3.324  -1.615  0.00  0.00    +0.067 C 
ATOM     21 CL   UNL     1      -0.008  -0.271  -2.784  0.00  0.00    -0.080 Cl
ENDBRANCH  13  18
ENDBRANCH   1  13
TORSDOF 4
