REMARK  Name = ZINC00295151
REMARK  7 active torsions:
REMARK  status: ('A' for Active; 'I' for Inactive)
REMARK    1  A    between atoms: C_1  and  C_2
REMARK    2  A    between atoms: C_5  and  C_18
REMARK    3  A    between atoms: N_6  and  C_7
REMARK    4  A    between atoms: C_8  and  C_14
REMARK    5  A    between atoms: C_9  and  C_13
REMARK    6  A    between atoms: C_10  and  C_12
REMARK    7  A    between atoms: N_16  and  N_17
REMARK                            x       y       z     vdW  Elec       q    Type
REMARK                         _______ _______ _______ _____ _____    ______ ____
ROOT
ATOM      1  C   UNL     1      -0.340  -0.573   2.492  0.00  0.00    +0.097 A 
ATOM      2  C   UNL     1      -0.022  -1.373   3.578  0.00  0.00    +0.072 A 
ATOM      3  C   UNL     1       0.091  -0.713   4.857  0.00  0.00    -0.026 A 
ATOM      4  C   UNL     1      -0.126   0.616   4.853  0.00  0.00    -0.008 A 
ATOM      5  S   UNL     1      -0.471   0.968   3.143  0.00  0.00    -0.075 S 
ATOM      6  C   UNL     1      -0.082   1.574   6.015  0.00  0.00    +0.052 C 
ATOM      7  C   UNL     1       0.430  -1.465   6.119  0.00  0.00    +0.045 C 
ENDROOT
BRANCH   1  13
ATOM      8  C   UNL     1       1.818  -1.978   0.833  0.00  0.00    +0.064 C 
ATOM      9  C   UNL     1       0.432  -1.585   0.394  0.00  0.00    +0.021 A 
ATOM     10  C   UNL     1      -0.101  -1.796  -0.827  0.00  0.00    +0.023 A 
ATOM     11  C   UNL     1      -1.412  -1.277  -0.813  0.00  0.00    +0.023 A 
ATOM     12  C   UNL     1      -1.633  -0.767   0.415  0.00  0.00    +0.021 A 
ATOM     13  N   UNL     1      -0.506  -0.957   1.165  0.00  0.00    -0.311 N 
ATOM     14  C   UNL     1      -2.904  -0.107   0.882  0.00  0.00    +0.064 C 
ENDBRANCH   1  13
BRANCH   2  15
ATOM     15  C   UNL     1       0.188  -2.818   3.434  0.00  0.00    +0.260 C 
ATOM     16  O   UNL     1       1.314  -3.260   3.304  0.00  0.00    -0.269 OA
ATOM     17  N   UNL     1      -0.867  -3.657   3.448  0.00  0.00    -0.249 N 
ATOM     18  H   UNL     1      -1.765  -3.306   3.552  0.00  0.00    +0.169 HD
BRANCH  17  19
ATOM     19  N   UNL     1      -0.672  -5.003   3.314  0.00  0.00    -0.254 NA
ATOM     20  H   UNL     1      -0.037  -5.348   4.019  0.00  0.00    +0.140 HD
ATOM     21  H   UNL     1      -1.549  -5.500   3.343  0.00  0.00    +0.140 HD
ENDBRANCH  17  19
ENDBRANCH   2  15
TORSDOF 3
