REMARK  Name = ZINC39318996
REMARK  6 active torsions:
REMARK  status: ('A' for Active; 'I' for Inactive)
REMARK    1  A    between atoms: C_1  and  C_2
REMARK    2  A    between atoms: C_4  and  C_19
REMARK    3  A    between atoms: C_11  and  C_14
REMARK    4  A    between atoms: C_22  and  C_25
REMARK    5  A    between atoms: C_25  and  O_26
REMARK    6  A    between atoms: O_26  and  C_27
REMARK                            x       y       z     vdW  Elec       q    Type
REMARK                         _______ _______ _______ _____ _____    ______ ____
ROOT
ATOM      1  C   UNL     1       0.177   1.606   0.038  0.00  0.00    +0.035 C 
ATOM      2  C   UNL     1       0.065   0.081   0.002  0.00  0.00    +0.124 C 
ATOM      3  C   UNL     1       0.774  -0.472  -1.214  0.00  0.00    +0.014 C 
ATOM      4  C   UNL     1       1.738  -1.259  -0.787  0.00  0.00    +0.093 C 
ATOM      5  N   UNL     1       1.782  -1.318   0.593  0.00  0.00    -0.269 N 
ATOM      6  N   UNL     1       0.773  -0.514   1.148  0.00  0.00    -0.229 N 
ATOM      7  C   UNL     1       0.500  -0.318   2.498  0.00  0.00    +0.156 A 
ATOM      8  C   UNL     1      -0.389  -1.167   3.152  0.00  0.00    +0.083 A 
ATOM      9  C   UNL     1      -0.651  -0.960   4.495  0.00  0.00    +0.037 A 
ATOM     10  C   UNL     1      -0.013   0.091   5.141  0.00  0.00    +0.074 A 
ATOM     11  C   UNL     1       0.856   0.893   4.430  0.00  0.00    +0.125 A 
ATOM     12  N   UNL     1       1.092   0.670   3.151  0.00  0.00    -0.237 NA
ATOM     13 CL   UNL     1      -1.159  -2.465   2.295  0.00  0.00    -0.080 Cl
ATOM     14  H   UNL     1       2.418  -1.842   1.105  0.00  0.00    +0.170 HD
ENDROOT
BRANCH   3  15
ATOM     15  C   UNL     1       0.437  -0.176  -2.653  0.00  0.00    +0.274 C 
ATOM     16  N   UNL     1       1.221  -1.037  -3.557  0.00  0.00    -0.232 NA
ATOM     17  C   UNL     1       1.933  -0.223  -4.265  0.00  0.00    +0.186 C 
ATOM     18  N   UNL     1       1.699   1.070  -3.921  0.00  0.00    -0.133 NA
ATOM     19  N   UNL     1       0.861   1.187  -3.015  0.00  0.00    -0.154 NA
BRANCH  17  20
ATOM     20  C   UNL     1       2.902  -0.654  -5.337  0.00  0.00    +0.306 C 
BRANCH  20  21
ATOM     21  O   UNL     1       2.900  -2.080  -5.435  0.00  0.00    -0.483 OA
BRANCH  21  22
ATOM     22  C   UNL     1       3.725  -2.636  -6.361  0.00  0.00    +0.139 A 
ATOM     23  C   UNL     1       4.524  -1.826  -7.154  0.00  0.00    +0.048 A 
ATOM     24  C   UNL     1       5.362  -2.393  -8.095  0.00  0.00    +0.023 A 
ATOM     25  C   UNL     1       5.405  -3.768  -8.247  0.00  0.00    +0.043 A 
ATOM     26  C   UNL     1       4.609  -4.578  -7.457  0.00  0.00    +0.043 A 
ATOM     27  C   UNL     1       3.773  -4.015  -6.510  0.00  0.00    +0.084 A 
ATOM     28 CL   UNL     1       2.779  -5.032  -5.514  0.00  0.00    -0.080 Cl
ATOM     29 CL   UNL     1       6.458  -4.477  -9.430  0.00  0.00    -0.083 Cl
ENDBRANCH  21  22
ENDBRANCH  20  21
ENDBRANCH  17  20
ENDBRANCH   3  15
BRANCH  10  30
ATOM     30  C   UNL     1      -0.269   0.353   6.602  0.00  0.00    +0.419 C 
ATOM     31  F   UNL     1       0.650  -0.366   7.373  0.00  0.00    -0.166 F 
ATOM     32  F   UNL     1      -0.126   1.721   6.862  0.00  0.00    -0.166 F 
ATOM     33  F   UNL     1      -1.568  -0.050   6.928  0.00  0.00    -0.166 F 
ENDBRANCH  10  30
TORSDOF 5
