REMARK  Name = ZINC44960345
REMARK  11 active torsions:
REMARK  status: ('A' for Active; 'I' for Inactive)
REMARK    1  A    between atoms: C_1  and  C_2
REMARK    2  A    between atoms: C_2  and  C_3
REMARK    3  A    between atoms: C_2  and  C_4
REMARK    4  A    between atoms: C_7  and  O_33
REMARK    5  A    between atoms: C_8  and  C_10
REMARK    6  A    between atoms: C_10  and  N_11
REMARK    7  A    between atoms: C_16  and  C_18
REMARK    8  A    between atoms: N_20  and  C_21
REMARK    9  A    between atoms: C_21  and  C_22
REMARK   10  A    between atoms: C_26  and  C_28
REMARK   11  A    between atoms: O_33  and  C_34
REMARK                            x       y       z     vdW  Elec       q    Type
REMARK                         _______ _______ _______ _____ _____    ______ ____
ROOT
ATOM      1  N   UNL     1      -3.598  -3.912  -1.951  0.00  0.00    +0.390 N 
ATOM      2  C   UNL     1      -2.243  -4.443  -1.761  0.00  0.00    -0.077 C 
ATOM      3  C   UNL     1      -2.304  -5.713  -0.909  0.00  0.00    -0.019 C 
ATOM      4  C   UNL     1      -3.169  -6.757  -1.621  0.00  0.00    -0.003 C 
ATOM      5  C   UNL     1      -4.557  -6.165  -1.881  0.00  0.00    -0.006 C 
ATOM      6  C   UNL     1      -4.412  -4.879  -2.697  0.00  0.00    +0.020 C 
ATOM      7  H   UNL     1      -4.020  -3.741  -1.051  0.00  0.00    -0.080 HD
ENDROOT
BRANCH   6   8
ATOM      8  C   UNL     1      -5.776  -4.292  -2.955  0.00  0.00    +0.200 C 
ATOM      9  O   UNL     1      -6.244  -3.482  -2.184  0.00  0.00    -0.278 OA
ATOM     10  N   UNL     1      -6.476  -4.669  -4.044  0.00  0.00    -0.313 N 
ATOM     11  H   UNL     1      -6.103  -5.317  -4.660  0.00  0.00    +0.149 HD
BRANCH  10  12
ATOM     12  C   UNL     1      -7.802  -4.099  -4.295  0.00  0.00    +0.139 C 
BRANCH  12  13
ATOM     13  C   UNL     1      -8.367  -4.681  -5.565  0.00  0.00    -0.030 A 
ATOM     14  C   UNL     1      -8.120  -4.064  -6.777  0.00  0.00    +0.008 A 
ATOM     15  C   UNL     1      -8.637  -4.597  -7.943  0.00  0.00    +0.039 A 
ATOM     16  C   UNL     1      -9.402  -5.750  -7.896  0.00  0.00    +0.135 A 
ATOM     17  C   UNL     1      -9.649  -6.367  -6.682  0.00  0.00    +0.090 A 
ATOM     18  C   UNL     1      -9.126  -5.835  -5.518  0.00  0.00    +0.020 A 
ATOM     19  F   UNL     1      -9.909  -6.272  -9.035  0.00  0.00    -0.205 F 
BRANCH  17  20
ATOM     20  C   UNL     1     -10.482  -7.622  -6.629  0.00  0.00    +0.420 C 
ATOM     21  F   UNL     1     -10.589  -8.055  -5.303  0.00  0.00    -0.166 F 
ATOM     22  F   UNL     1     -11.758  -7.356  -7.138  0.00  0.00    -0.166 F 
ATOM     23  F   UNL     1      -9.872  -8.620  -7.397  0.00  0.00    -0.166 F 
ENDBRANCH  17  20
ENDBRANCH  12  13
ENDBRANCH  10  12
ENDBRANCH   6   8
BRANCH   1  24
ATOM     24  C   UNL     1      -3.527  -2.651  -2.703  0.00  0.00    -0.038 C 
BRANCH  24  29
ATOM     25  C   UNL     1      -0.847  -0.314  -1.433  0.00  0.00    -0.044 A 
ATOM     26  C   UNL     1      -1.485   0.289  -0.365  0.00  0.00    +0.007 A 
ATOM     27  C   UNL     1      -2.785  -0.058  -0.050  0.00  0.00    +0.046 A 
ATOM     28  C   UNL     1      -3.450  -1.012  -0.807  0.00  0.00    +0.121 A 
ATOM     29  C   UNL     1      -2.807  -1.615  -1.879  0.00  0.00    -0.022 A 
ATOM     30  C   UNL     1      -1.509  -1.261  -2.192  0.00  0.00    +0.009 A 
BRANCH  25  32
ATOM     31  C   UNL     1       0.636   1.560  -2.093  0.00  0.00    +0.012 C 
ATOM     32  C   UNL     1       0.571   0.065  -1.774  0.00  0.00    +0.013 C 
ATOM     33  C   UNL     1       1.482  -0.242  -0.583  0.00  0.00    +0.012 C 
ENDBRANCH  25  32
BRANCH  28  34
ATOM     34  O   UNL     1      -4.728  -1.355  -0.500  0.00  0.00    -0.495 OA
ATOM     35  C   UNL     1      -5.327  -0.693   0.617  0.00  0.00    +0.277 C 
ENDBRANCH  28  34
ENDBRANCH  24  29
ENDBRANCH   1  24
TORSDOF 8
