REMARK  Name = ZINC63588678
REMARK  12 active torsions:
REMARK  status: ('A' for Active; 'I' for Inactive)
REMARK    1  A    between atoms: C_1  and  O_2
REMARK    2  A    between atoms: O_2  and  C_3
REMARK    3  A    between atoms: C_5  and  C_13
REMARK    4  A    between atoms: C_7  and  O_11
REMARK    5  A    between atoms: C_8  and  O_9
REMARK    6  A    between atoms: O_9  and  C_10
REMARK    7  A    between atoms: O_11  and  C_12
REMARK    8  A    between atoms: C_13  and  N_15
REMARK    9  A    between atoms: N_17  and  C_18
REMARK   10  A    between atoms: N_25  and  C_26
REMARK   11  A    between atoms: C_26  and  C_27
REMARK   12  A    between atoms: C_27  and  C_28
REMARK                            x       y       z     vdW  Elec       q    Type
REMARK                         _______ _______ _______ _____ _____    ______ ____
ROOT
ATOM      1  N   UNL     1      -6.753  -0.877  -0.388  0.00  0.00    -0.143 NA
ATOM      2  C   UNL     1      -7.027   0.403  -0.588  0.00  0.00    +0.194 C 
ATOM      3  N   UNL     1      -6.369   1.362   0.127  0.00  0.00    -0.328 N 
ATOM      4  N   UNL     1      -7.966   0.763  -1.509  0.00  0.00    -0.357 N 
ATOM      5  H   UNL     1      -5.399   1.389   0.124  0.00  0.00    +0.169 HD
ATOM      6  H   UNL     1      -8.468   0.081  -1.983  0.00  0.00    +0.162 HD
ENDROOT
BRANCH   3   7
ATOM      7  C   UNL     1      -7.093   2.306   0.863  0.00  0.00    +0.042 A 
ATOM      8  C   UNL     1      -8.270   1.937   1.500  0.00  0.00    +0.028 A 
ATOM      9  C   UNL     1      -8.983   2.870   2.227  0.00  0.00    +0.040 A 
ATOM     10  C   UNL     1      -8.524   4.174   2.321  0.00  0.00    +0.124 A 
ATOM     11  C   UNL     1      -7.351   4.544   1.687  0.00  0.00    +0.040 A 
ATOM     12  C   UNL     1      -6.632   3.612   0.963  0.00  0.00    +0.028 A 
ATOM     13  F   UNL     1      -9.223   5.085   3.032  0.00  0.00    -0.205 F 
ENDBRANCH   3   7
BRANCH   1  14
ATOM     14  C   UNL     1      -5.935  -1.239   0.610  0.00  0.00    +0.270 C 
ATOM     15  O   UNL     1      -5.370  -0.388   1.274  0.00  0.00    -0.268 OA
BRANCH  14  18
ATOM     16  C   UNL     1      -4.663  -4.390   2.219  0.00  0.00    +0.166 A 
ATOM     17  C   UNL     1      -4.865  -3.050   1.944  0.00  0.00    +0.062 A 
ATOM     18  C   UNL     1      -5.717  -2.672   0.905  0.00  0.00    +0.046 A 
ATOM     19  C   UNL     1      -6.364  -3.648   0.146  0.00  0.00    +0.062 A 
ATOM     20  C   UNL     1      -6.160  -4.987   0.424  0.00  0.00    +0.166 A 
ATOM     21  C   UNL     1      -5.305  -5.362   1.456  0.00  0.00    +0.204 A 
BRANCH  16  23
ATOM     22  C   UNL     1      -3.208  -3.709   3.972  0.00  0.00    +0.277 C 
ATOM     23  O   UNL     1      -3.833  -4.759   3.231  0.00  0.00    -0.491 OA
ENDBRANCH  16  23
BRANCH  21  24
ATOM     24  O   UNL     1      -5.101  -6.679   1.724  0.00  0.00    -0.488 OA
ATOM     25  C   UNL     1      -5.986  -7.294   2.663  0.00  0.00    +0.277 C 
ENDBRANCH  21  24
BRANCH  20  26
ATOM     26  O   UNL     1      -6.790  -5.939  -0.316  0.00  0.00    -0.491 OA
ATOM     27  C   UNL     1      -7.649  -5.483  -1.364  0.00  0.00    +0.277 C 
ENDBRANCH  20  26
ENDBRANCH  14  18
ENDBRANCH   1  14
BRANCH   4  28
ATOM     28  C   UNL     1      -8.218   2.180  -1.783  0.00  0.00    +0.120 C 
BRANCH  28  29
ATOM     29  C   UNL     1      -9.307   2.308  -2.850  0.00  0.00    +0.054 C 
BRANCH  29  30
ATOM     30  C   UNL     1      -9.481   3.759  -3.220  0.00  0.00    -0.040 C 
ATOM     31  C   UNL     1      -8.869   4.420  -4.229  0.00  0.00    -0.001 A 
ATOM     32  C   UNL     1      -7.896   4.002  -5.245  0.00  0.00    +0.010 A 
ATOM     33  C   UNL     1      -7.456   4.912  -6.145  0.00  0.00    +0.001 A 
ATOM     34  C   UNL     1      -7.904   6.239  -6.130  0.00  0.00    +0.002 A 
ATOM     35  C   UNL     1      -8.797   6.698  -5.228  0.00  0.00    +0.026 A 
ATOM     36  C   UNL     1      -9.328   5.828  -4.235  0.00  0.00    +0.043 A 
ATOM     37  N   UNL     1     -10.188   6.029  -3.267  0.00  0.00    -0.380 N 
ATOM     38  C   UNL     1     -10.379   4.769  -2.541  0.00  0.00    +0.144 C 
ATOM     39  H   UNL     1     -10.629   6.870  -3.068  0.00  0.00    +0.160 HD
ENDBRANCH  29  30
ENDBRANCH  28  29
ENDBRANCH   4  28
TORSDOF 9
