REMARK  Name = ZINC65919593
REMARK  3 active torsions:
REMARK  status: ('A' for Active; 'I' for Inactive)
REMARK    1  A    between atoms: C_9  and  C_12
REMARK    2  A    between atoms: N_14  and  N_15
REMARK    3  A    between atoms: N_18  and  C_19
REMARK                            x       y       z     vdW  Elec       q    Type
REMARK                         _______ _______ _______ _____ _____    ______ ____
ROOT
ATOM      1  C   UNL     1       6.002   0.843  -0.051  0.00  0.00    +0.278 C 
ATOM      2  O   UNL     1       6.657  -0.182  -0.062  0.00  0.00    -0.267 OA
ATOM      3  N   UNL     1       6.621   2.039  -0.050  0.00  0.00    -0.228 N 
ATOM      4  H   UNL     1       6.099   2.857  -0.041  0.00  0.00    +0.173 HD
ENDROOT
BRANCH   1  13
ATOM      5  C   UNL     1      -0.017   1.386   0.010  0.00  0.00    +0.022 A 
ATOM      6  C   UNL     1       1.157   2.105   0.002  0.00  0.00    +0.028 A 
ATOM      7  C   UNL     1       2.379   1.437  -0.013  0.00  0.00    +0.049 A 
ATOM      8  C   UNL     1       2.394   0.028  -0.021  0.00  0.00    +0.020 A 
ATOM      9  C   UNL     1       1.188  -0.682  -0.013  0.00  0.00    +0.031 A 
ATOM     10  C   UNL     1       0.002  -0.004   0.002  0.00  0.00    +0.042 A 
ATOM     11 CL   UNL     1      -1.493  -0.886   0.011  0.00  0.00    -0.084 Cl
ATOM     12  C   UNL     1       3.799  -0.370  -0.036  0.00  0.00    +0.078 A 
ATOM     13  C   UNL     1       4.535   0.776  -0.037  0.00  0.00    +0.123 A 
ATOM     14  N   UNL     1       3.685   1.865  -0.023  0.00  0.00    -0.349 N 
ATOM     15  H   UNL     1       3.967   2.793  -0.021  0.00  0.00    +0.166 HD
ATOM     16 CL   UNL     1       4.414  -1.993  -0.050  0.00  0.00    -0.081 Cl
ENDBRANCH   1  13
BRANCH   3  17
ATOM     17  N   UNL     1       8.021   2.104  -0.063  0.00  0.00    -0.218 N 
ATOM     18  C   UNL     1       8.641   3.300  -0.063  0.00  0.00    +0.316 C 
ATOM     19  O   UNL     1       9.855   3.356  -0.074  0.00  0.00    -0.251 OA
ATOM     20  N   UNL     1       7.914   4.436  -0.050  0.00  0.00    -0.295 N 
ATOM     21  H   UNL     1       8.544   1.287  -0.072  0.00  0.00    +0.174 HD
ATOM     22  H   UNL     1       6.945   4.391  -0.041  0.00  0.00    +0.151 HD
BRANCH  20  23
ATOM     23  C   UNL     1       8.588   5.736  -0.049  0.00  0.00    +0.074 C 
ATOM     24  C   UNL     1       8.894   6.173   1.399  0.00  0.00    +0.022 C 
ATOM     25  C   UNL     1       8.665   7.705   1.390  0.00  0.00    +0.002 C 
ATOM     26  C   UNL     1       7.436   7.862   0.461  0.00  0.00    +0.002 C 
ATOM     27  C   UNL     1       7.661   6.810  -0.645  0.00  0.00    +0.022 C 
ENDBRANCH  20  23
ENDBRANCH   3  17
TORSDOF 3
