REMARK  Name = ZINC33937052
REMARK  11 active torsions:
REMARK  status: ('A' for Active; 'I' for Inactive)
REMARK    1  A    between atoms: C_1  and  C_2
REMARK    2  A    between atoms: C_2  and  C_3
REMARK    3  A    between atoms: C_3  and  C_5
REMARK    4  A    between atoms: C_3  and  N_17
REMARK    5  A    between atoms: N_9  and  C_10
REMARK    6  A    between atoms: C_10  and  C_11
REMARK    7  A    between atoms: N_17  and  C_18
REMARK    8  A    between atoms: N_17  and  C_33
REMARK    9  A    between atoms: C_18  and  C_19
REMARK   10  A    between atoms: C_22  and  C_32
REMARK   11  A    between atoms: C_24  and  C_31
REMARK                            x       y       z     vdW  Elec       q    Type
REMARK                         _______ _______ _______ _____ _____    ______ ____
ROOT
ATOM      1  N   UNL     1       2.364  -0.172   1.224  0.00  0.00    +0.391 N 
ATOM      2  H   UNL     1       2.619  -0.530   0.316  0.00  0.00    -0.080 HD
ENDROOT
BRANCH   1   3
ATOM      3  C   UNL     1       2.738   1.246   1.313  0.00  0.00    -0.067 C 
ATOM      4  C   UNL     1       2.463   1.758   2.729  0.00  0.00    -0.015 C 
ATOM      5  C   UNL     1       2.853   3.234   2.822  0.00  0.00    -0.002 C 
ATOM      6  C   UNL     1       2.029   4.043   1.818  0.00  0.00    -0.000 C 
ATOM      7  C   UNL     1       2.304   3.532   0.402  0.00  0.00    -0.002 C 
ATOM      8  C   UNL     1       1.915   2.055   0.309  0.00  0.00    -0.015 C 
ENDBRANCH   1   3
BRANCH   1   9
ATOM      9  C   UNL     1       0.914  -0.308   1.414  0.00  0.00    +0.003 C 
BRANCH   9  10
ATOM     10  C   UNL     1       0.568  -0.031   2.854  0.00  0.00    +0.138 A 
ATOM     11  N   UNL     1       1.198  -0.480   3.911  0.00  0.00    -0.115 NA
ATOM     12  N   UNL     1       0.600  -0.022   4.957  0.00  0.00    -0.023 NA
ATOM     13  N   UNL     1      -0.396   0.709   4.593  0.00  0.00    -0.044 NA
ATOM     14  N   UNL     1      -0.446   0.732   3.304  0.00  0.00    -0.228 N 
BRANCH  14  15
ATOM     15  C   UNL     1      -1.424   1.452   2.485  0.00  0.00    +0.178 C 
BRANCH  15  16
ATOM     16  C   UNL     1      -2.628   0.546   2.215  0.00  0.00    +0.140 C 
ATOM     17  C   UNL     1      -3.715   1.318   1.426  0.00  0.00    +0.035 C 
ATOM     18  C   UNL     1      -4.461   0.147   0.730  0.00  0.00    +0.031 C 
ATOM     19  C   UNL     1      -3.318  -0.855   0.460  0.00  0.00    +0.160 C 
ATOM     20  O   UNL     1      -2.249  -0.547   1.364  0.00  0.00    -0.375 OA
ENDBRANCH  15  16
ENDBRANCH  14  15
ENDBRANCH   9  10
BRANCH   9  22
ATOM     21  C   UNL     1       0.756  -1.984  -0.433  0.00  0.00    +0.002 C 
ATOM     22  C   UNL     1       0.484  -1.731   1.051  0.00  0.00    -0.011 C 
ENDBRANCH   9  22
ENDBRANCH   1   9
BRANCH   1  23
ATOM     23  C   UNL     1       3.068  -0.931   2.266  0.00  0.00    -0.036 C 
BRANCH  23  24
ATOM     24  C   UNL     1       4.543  -0.958   1.958  0.00  0.00    +0.001 A 
ATOM     25  C   UNL     1       5.373  -0.065   2.551  0.00  0.00    +0.017 A 
ATOM     26  C   UNL     1       6.801  -0.118   2.231  0.00  0.00    +0.002 A 
ATOM     27  C   UNL     1       7.707   0.776   2.812  0.00  0.00    -0.041 A 
ATOM     28  C   UNL     1       9.033   0.700   2.493  0.00  0.00    +0.007 A 
ATOM     29  C   UNL     1       9.490  -0.257   1.596  0.00  0.00    -0.048 A 
ATOM     30  C   UNL     1       8.616  -1.147   1.012  0.00  0.00    +0.029 A 
ATOM     31  C   UNL     1       7.261  -1.089   1.322  0.00  0.00    +0.050 A 
ATOM     32  N   UNL     1       6.364  -1.969   0.753  0.00  0.00    -0.322 N 
ATOM     33  H   UNL     1       6.683  -2.637   0.127  0.00  0.00    +0.169 HD
ATOM     34  C   UNL     1       5.056  -1.916   1.057  0.00  0.00    +0.251 A 
ATOM     35  O   UNL     1       4.293  -2.712   0.539  0.00  0.00    -0.268 OA
ATOM     36  C   UNL     1      10.957  -0.321   1.258  0.00  0.00    +0.044 C 
ATOM     37  C   UNL     1       7.221   1.819   3.786  0.00  0.00    +0.044 C 
ENDBRANCH  23  24
ENDBRANCH   1  23
TORSDOF 8
