REMARK  Name = ZINC40814672
REMARK  8 active torsions:
REMARK  status: ('A' for Active; 'I' for Inactive)
REMARK    1  A    between atoms: C_1  and  C_2
REMARK    2  A    between atoms: C_6  and  C_7
REMARK    3  A    between atoms: N_9  and  C_10
REMARK    4  A    between atoms: N_9  and  C_11
REMARK    5  A    between atoms: N_14  and  C_17
REMARK    6  A    between atoms: N_22  and  N_23
REMARK    7  A    between atoms: N_23  and  C_24
REMARK    8  A    between atoms: C_27  and  N_30
REMARK                            x       y       z     vdW  Elec       q    Type
REMARK                         _______ _______ _______ _____ _____    ______ ____
ROOT
ATOM      1  C   UNL     1       0.652   1.486   0.072  0.00  0.00    +0.048 C 
ATOM      2  C   UNL     1       0.699  -0.020   0.078  0.00  0.00    +0.009 A 
ATOM      3  C   UNL     1       0.935  -0.858  -1.018  0.00  0.00    +0.042 A 
ATOM      4  C   UNL     1       0.888  -2.155  -0.564  0.00  0.00    +0.115 A 
ATOM      5  O   UNL     1       0.639  -2.124   0.744  0.00  0.00    -0.454 OA
ATOM      6  C   UNL     1       0.524  -0.842   1.157  0.00  0.00    +0.193 A 
ATOM      7  C   UNL     1       1.093  -3.347  -1.464  0.00  0.00    +0.075 C 
ATOM      8  C   UNL     1       0.835  -2.937  -2.917  0.00  0.00    +0.014 C 
ATOM      9  C   UNL     1       1.672  -1.708  -3.288  0.00  0.00    +0.058 C 
ATOM     10  C   UNL     1       1.200  -0.537  -2.439  0.00  0.00    +0.070 C 
ATOM     11  N   UNL     1       1.042   0.656  -2.924  0.00  0.00    -0.186 NA
ENDROOT
BRANCH   6  12
ATOM     12  C   UNL     1       0.254  -0.406   2.532  0.00  0.00    +0.282 C 
ATOM     13  O   UNL     1       0.302   0.777   2.815  0.00  0.00    -0.267 OA
ATOM     14  N   UNL     1      -0.048  -1.315   3.480  0.00  0.00    -0.295 N 
ATOM     15  C   UNL     1      -0.031  -2.743   3.157  0.00  0.00    +0.132 C 
BRANCH  14  16
ATOM     16  C   UNL     1      -0.392  -0.874   4.834  0.00  0.00    +0.073 C 
ATOM     17  C   UNL     1       0.598  -1.474   5.836  0.00  0.00    +0.004 C 
ATOM     18  C   UNL     1       0.186  -1.075   7.254  0.00  0.00    -0.077 C 
ATOM     19  N   UNL     1      -1.163  -1.579   7.536  0.00  0.00    +0.378 N 
ATOM     20  C   UNL     1      -2.129  -0.953   6.626  0.00  0.00    -0.077 C 
ATOM     21  C   UNL     1      -1.806  -1.347   5.183  0.00  0.00    +0.004 C 
ATOM     22  C   UNL     1      -1.523  -1.261   8.924  0.00  0.00    -0.096 C 
ATOM     23  H   UNL     1      -1.181  -2.580   7.407  0.00  0.00    -0.082 HD
ENDBRANCH  14  16
ENDBRANCH   6  12
BRANCH  11  24
ATOM     24  N   UNL     1       1.308   0.902  -4.277  0.00  0.00    -0.238 N 
ATOM     25  H   UNL     1       1.610   0.182  -4.851  0.00  0.00    +0.174 HD
BRANCH  24  26
ATOM     26  C   UNL     1       1.137   2.185  -4.799  0.00  0.00    +0.048 A 
ATOM     27  C   UNL     1       0.709   3.220  -3.977  0.00  0.00    +0.027 A 
ATOM     28  C   UNL     1       0.541   4.489  -4.497  0.00  0.00    +0.034 A 
ATOM     29  C   UNL     1       0.799   4.729  -5.835  0.00  0.00    +0.126 A 
ATOM     30  C   UNL     1       1.225   3.701  -6.656  0.00  0.00    +0.034 A 
ATOM     31  C   UNL     1       1.401   2.432  -6.142  0.00  0.00    +0.027 A 
BRANCH  29  32
ATOM     32  N   UNL     1       0.617   6.093  -6.390  0.00  0.00    +0.056 N 
ATOM     33  O   UNL     1       0.244   6.992  -5.673  0.00  0.00    -0.126 OA
ATOM     34  O   UNL     1       0.842   6.305  -7.559  0.00  0.00    -0.126 OA
ENDBRANCH  29  32
ENDBRANCH  24  26
ENDBRANCH  11  24
TORSDOF 5
