REMARK  Name = ZINC13093436
REMARK  9 active torsions:
REMARK  status: ('A' for Active; 'I' for Inactive)
REMARK    1  A    between atoms: C_1  and  C_2
REMARK    2  A    between atoms: C_5  and  S_10
REMARK    3  A    between atoms: C_7  and  C_8
REMARK    4  A    between atoms: S_10  and  N_13
REMARK    5  A    between atoms: C_16  and  C_19
REMARK    6  A    between atoms: C_22  and  N_25
REMARK    7  A    between atoms: N_25  and  C_26
REMARK    8  A    between atoms: N_25  and  S_27
REMARK    9  A    between atoms: S_27  and  C_30
REMARK                            x       y       z     vdW  Elec       q    Type
REMARK                         _______ _______ _______ _____ _____    ______ ____
ROOT
ATOM      1  N   UNL     1      -0.966   5.489   0.168  0.00  0.00    -0.194 N 
ATOM      2  C   UNL     1      -0.263   4.297   0.232  0.00  0.00    +0.178 A 
ATOM      3  N   UNL     1       1.041   4.099   0.305  0.00  0.00    -0.224 NA
ATOM      4  C   UNL     1       1.549   2.870   0.360  0.00  0.00    +0.080 A 
ATOM      5  C   UNL     1       0.705   1.797   0.340  0.00  0.00    +0.077 A 
ATOM      6  S   UNL     1      -0.879   2.619   0.231  0.00  0.00    -0.059 S 
ATOM      7  H   UNL     1      -0.490   6.334   0.174  0.00  0.00    +0.176 HD
ENDROOT
BRANCH   4   8
ATOM      8  C   UNL     1       3.016   2.669   0.442  0.00  0.00    +0.001 A 
ATOM      9  C   UNL     1       3.541   1.379   0.504  0.00  0.00    +0.012 A 
ATOM     10  C   UNL     1       4.906   1.193   0.576  0.00  0.00    +0.025 A 
ATOM     11  C   UNL     1       5.757   2.292   0.596  0.00  0.00    +0.051 A 
ATOM     12  C   UNL     1       5.236   3.579   0.538  0.00  0.00    +0.025 A 
ATOM     13  C   UNL     1       3.872   3.769   0.462  0.00  0.00    +0.012 A 
BRANCH  11  14
ATOM     14  N   UNL     1       7.139   2.102   0.674  0.00  0.00    -0.211 N 
ATOM     15  C   UNL     1       8.050   3.129   0.162  0.00  0.00    +0.157 C 
BRANCH  14  16
ATOM     16  S   UNL     1       7.747   0.716   1.345  0.00  0.00    +0.042 S 
ATOM     17  O   UNL     1       9.034   1.080   1.825  0.00  0.00    -0.155 OA
ATOM     18  O   UNL     1       6.738   0.274   2.243  0.00  0.00    -0.155 OA
ATOM     19  C   UNL     1       7.902  -0.444  -0.041  0.00  0.00    +0.218 C 
ENDBRANCH  14  16
ENDBRANCH  11  14
ENDBRANCH   4   8
BRANCH   1  20
ATOM     20  S   UNL     1      -2.620   5.470   0.081  0.00  0.00    +0.074 S 
ATOM     21  O   UNL     1      -3.040   6.828   0.055  0.00  0.00    -0.150 OA
ATOM     22  O   UNL     1      -2.962   4.547  -0.944  0.00  0.00    -0.150 OA
BRANCH  20  27
ATOM     23  C   UNL     1      -4.655   3.101   5.254  0.00  0.00    +0.044 C 
ATOM     24  C   UNL     1      -4.148   3.695   3.966  0.00  0.00    -0.036 A 
ATOM     25  C   UNL     1      -3.874   2.879   2.888  0.00  0.00    +0.006 A 
ATOM     26  C   UNL     1      -3.414   3.423   1.703  0.00  0.00    +0.029 A 
ATOM     27  C   UNL     1      -3.213   4.788   1.593  0.00  0.00    +0.109 A 
ATOM     28  C   UNL     1      -3.482   5.616   2.663  0.00  0.00    +0.044 A 
ATOM     29  C   UNL     1      -3.953   5.074   3.860  0.00  0.00    +0.068 A 
BRANCH  29  30
ATOM     30  C   UNL     1      -4.243   5.954   5.010  0.00  0.00    +0.387 C 
ATOM     31  O   UNL     1      -4.758   5.497   6.011  0.00  0.00    -0.241 OA
ATOM     32  O   UNL     1      -3.936   7.265   4.949  0.00  0.00    -0.241 OA
ENDBRANCH  29  30
ENDBRANCH  20  27
ENDBRANCH   1  20
TORSDOF 6
