REMARK  Name = ZINC04460796
REMARK  10 active torsions:
REMARK  status: ('A' for Active; 'I' for Inactive)
REMARK    1  A    between atoms: C_1  and  C_2
REMARK    2  A    between atoms: C_3  and  C_25
REMARK    3  A    between atoms: C_4  and  C_11
REMARK    4  A    between atoms: N_9  and  C_10
REMARK    5  A    between atoms: C_14  and  N_17
REMARK    6  A    between atoms: C_18  and  C_20
REMARK    7  A    between atoms: C_25  and  O_27
REMARK    8  A    between atoms: O_27  and  C_28
REMARK    9  A    between atoms: C_28  and  C_29
REMARK   10  A    between atoms: C_28  and  C_30
REMARK                            x       y       z     vdW  Elec       q    Type
REMARK                         _______ _______ _______ _____ _____    ______ ____
ROOT
ATOM      1  C   UNL     1      -0.001   3.376   0.356  0.00  0.00    +0.061 C 
ATOM      2  C   UNL     1      -0.716   2.584   1.421  0.00  0.00    +0.024 C 
ATOM      3  C   UNL     1      -1.296   3.233   2.454  0.00  0.00    +0.078 C 
ATOM      4  C   UNL     1      -2.000   2.398   3.504  0.00  0.00    +0.143 C 
ATOM      5  N   UNL     1      -2.000   0.939   3.308  0.00  0.00    -0.288 N 
ATOM      6  C   UNL     1      -1.381   0.438   2.220  0.00  0.00    +0.307 C 
ATOM      7  O   UNL     1      -1.374  -0.765   2.049  0.00  0.00    -0.252 OA
ATOM      8  N   UNL     1      -0.773   1.223   1.322  0.00  0.00    -0.262 N 
ATOM      9  C   UNL     1      -0.127   0.586   0.172  0.00  0.00    +0.139 C 
ATOM     10  H   UNL     1      -2.434   0.352   3.946  0.00  0.00    +0.151 HD
ENDROOT
BRANCH   4  11
ATOM     11  C   UNL     1      -1.357   2.688   4.836  0.00  0.00    -0.022 A 
ATOM     12  C   UNL     1      -0.251   1.965   5.240  0.00  0.00    +0.007 A 
ATOM     13  C   UNL     1       0.344   2.231   6.458  0.00  0.00    +0.023 A 
ATOM     14  C   UNL     1      -0.178   3.220   7.282  0.00  0.00    +0.034 A 
ATOM     15  C   UNL     1      -1.293   3.942   6.875  0.00  0.00    +0.023 A 
ATOM     16  C   UNL     1      -1.879   3.674   5.654  0.00  0.00    +0.007 A 
BRANCH  14  17
ATOM     17  N   UNL     1       0.418   3.488   8.518  0.00  0.00    -0.281 N 
ATOM     18  C   UNL     1       1.751   3.357   8.666  0.00  0.00    +0.255 C 
ATOM     19  O   UNL     1       2.448   3.099   7.702  0.00  0.00    -0.269 OA
ATOM     20  H   UNL     1      -0.128   3.768   9.269  0.00  0.00    +0.155 HD
BRANCH  18  21
ATOM     21  C   UNL     1       2.362   3.525   9.988  0.00  0.00    +0.074 A 
ATOM     22  C   UNL     1       3.695   3.428  10.353  0.00  0.00    +0.021 A 
ATOM     23  C   UNL     1       3.998   3.639  11.675  0.00  0.00    +0.008 A 
ATOM     24  C   UNL     1       2.996   3.916  12.550  0.00  0.00    +0.046 A 
ATOM     25  S   UNL     1       1.581   3.901  11.548  0.00  0.00    -0.092 S 
ENDBRANCH  18  21
ENDBRANCH  14  17
ENDBRANCH   4  11
BRANCH   3  26
ATOM     26  C   UNL     1      -1.242   4.643   2.555  0.00  0.00    +0.339 C 
ATOM     27  O   UNL     1      -0.671   5.293   1.699  0.00  0.00    -0.245 OA
BRANCH  26  28
ATOM     28  O   UNL     1      -1.825   5.267   3.599  0.00  0.00    -0.459 OA
BRANCH  28  29
ATOM     29  C   UNL     1      -1.732   6.692   3.638  0.00  0.00    +0.171 C 
ATOM     30  C   UNL     1      -2.961   7.265   4.347  0.00  0.00    +0.052 C 
ATOM     31  C   UNL     1      -0.468   7.101   4.397  0.00  0.00    +0.052 C 
ENDBRANCH  28  29
ENDBRANCH  26  28
ENDBRANCH   3  26
TORSDOF 6
