REMARK  Name = ZINC21229470
REMARK  11 active torsions:
REMARK  status: ('A' for Active; 'I' for Inactive)
REMARK    1  A    between atoms: C_1  and  C_2
REMARK    2  A    between atoms: N_13  and  C_32
REMARK    3  A    between atoms: C_14  and  S_16
REMARK    4  A    between atoms: S_16  and  C_17
REMARK    5  A    between atoms: C_17  and  C_19
REMARK    6  A    between atoms: C_17  and  C_20
REMARK    7  A    between atoms: N_22  and  C_23
REMARK    8  A    between atoms: C_26  and  C_29
REMARK    9  A    between atoms: C_32  and  C_33
REMARK   10  A    between atoms: C_33  and  C_34
REMARK   11  A    between atoms: C_33  and  C_35
REMARK                            x       y       z     vdW  Elec       q    Type
REMARK                         _______ _______ _______ _____ _____    ______ ____
ROOT
ATOM      1  C   UNL     1       5.970  -0.895   8.213  0.00  0.00    +0.008 C 
ATOM      2  C   UNL     1       5.256  -0.977   6.862  0.00  0.00    -0.009 C 
ATOM      3  C   UNL     1       4.093  -1.969   6.955  0.00  0.00    +0.008 C 
ATOM      4  C   UNL     1       3.531  -2.243   5.560  0.00  0.00    +0.037 C 
ATOM      5  C   UNL     1       3.209  -0.911   4.888  0.00  0.00    -0.023 A 
ATOM      6  C   UNL     1       3.752   0.237   5.340  0.00  0.00    -0.004 A 
ATOM      7  S   UNL     1       3.107   1.501   4.277  0.00  0.00    -0.073 S 
ATOM      8  C   UNL     1       2.107   0.480   3.224  0.00  0.00    +0.117 A 
ATOM      9  C   UNL     1       2.308  -0.813   3.737  0.00  0.00    +0.076 A 
ATOM     10  C   UNL     1       1.607  -1.865   3.068  0.00  0.00    +0.263 A 
ATOM     11  O   UNL     1       1.721  -3.020   3.443  0.00  0.00    -0.267 OA
ATOM     12  N   UNL     1       0.818  -1.563   2.021  0.00  0.00    -0.287 N 
ATOM     13  C   UNL     1       0.684  -0.277   1.583  0.00  0.00    +0.173 A 
ATOM     14  N   UNL     1       1.317   0.711   2.183  0.00  0.00    -0.216 NA
ATOM     15  C   UNL     1       4.696   0.404   6.491  0.00  0.00    +0.046 C 
ENDROOT
BRANCH  13  16
ATOM     16  S   UNL     1      -0.356   0.068   0.203  0.00  0.00    -0.075 S 
BRANCH  16  17
ATOM     17  C   UNL     1      -0.153   1.863   0.098  0.00  0.00    +0.137 C 
ATOM     18  C   UNL     1      -0.735   2.517   1.353  0.00  0.00    +0.029 C 
BRANCH  17  19
ATOM     19  C   UNL     1      -0.877   2.380  -1.119  0.00  0.00    +0.230 C 
ATOM     20  O   UNL     1      -1.811   1.757  -1.579  0.00  0.00    -0.274 OA
ATOM     21  N   UNL     1      -0.487   3.533  -1.696  0.00  0.00    -0.285 N 
ATOM     22  H   UNL     1       0.302   4.142  -1.230  0.00  0.00    +0.155 HD
BRANCH  21  23
ATOM     23  C   UNL     1      -1.083   3.955  -2.884  0.00  0.00    +0.033 A 
ATOM     24  C   UNL     1      -1.500   3.017  -3.823  0.00  0.00    +0.024 A 
ATOM     25  C   UNL     1      -2.093   3.430  -4.995  0.00  0.00    +0.015 A 
ATOM     26  C   UNL     1      -2.267   4.794  -5.245  0.00  0.00    +0.037 A 
ATOM     27  C   UNL     1      -1.843   5.734  -4.302  0.00  0.00    +0.015 A 
ATOM     28  C   UNL     1      -1.255   5.314  -3.130  0.00  0.00    +0.024 A 
BRANCH  26  29
ATOM     29  C   UNL     1      -2.898   5.241  -6.502  0.00  0.00    +0.242 C 
ATOM     30  O   UNL     1      -3.049   6.428  -6.718  0.00  0.00    -0.270 OA
ATOM     31  N   UNL     1      -3.307   4.333  -7.411  0.00  0.00    -0.325 N 
ATOM     32  H   UNL     1      -3.777   4.666  -8.348  0.00  0.00    +0.145 HD
ATOM     33  H   UNL     1      -3.170   3.259  -7.215  0.00  0.00    +0.145 HD
ENDBRANCH  26  29
ENDBRANCH  21  23
ENDBRANCH  17  19
ENDBRANCH  16  17
ENDBRANCH  13  16
BRANCH  12  34
ATOM     34  C   UNL     1       0.093  -2.635   1.334  0.00  0.00    +0.130 C 
BRANCH  34  35
ATOM     35  C   UNL     1       0.960  -3.194   0.204  0.00  0.00    +0.003 C 
ATOM     36  C   UNL     1       0.256  -4.394  -0.433  0.00  0.00    +0.009 C 
ATOM     37  C   UNL     1       1.179  -2.111  -0.854  0.00  0.00    +0.009 C 
ENDBRANCH  34  35
ENDBRANCH  12  34
TORSDOF 7
