REMARK  Name = ZINC12782745
REMARK  7 active torsions:
REMARK  status: ('A' for Active; 'I' for Inactive)
REMARK    1  A    between atoms: C_4  and  O_7
REMARK    2  A    between atoms: O_7  and  C_8
REMARK    3  A    between atoms: C_13  and  N_14
REMARK    4  A    between atoms: N_14  and  S_15
REMARK    5  A    between atoms: S_15  and  C_18
REMARK    6  A    between atoms: N_24  and  C_29
REMARK    7  A    between atoms: C_29  and  C_30
REMARK                            x       y       z     vdW  Elec       q    Type
REMARK                         _______ _______ _______ _____ _____    ______ ____
ROOT
ATOM      1  S   UNL     1       2.595   4.023   0.039  0.00  0.00    +0.073 S 
ATOM      2  O   UNL     1       2.345   5.319   0.565  0.00  0.00    -0.150 OA
ATOM      3  O   UNL     1       3.563   3.146   0.599  0.00  0.00    -0.150 OA
ENDROOT
BRANCH   1   4
ATOM      4  C   UNL     1       1.058   3.162   0.070  0.00  0.00    +0.110 A 
ATOM      5  C   UNL     1       1.043   1.779   0.099  0.00  0.00    +0.032 A 
ATOM      6  C   UNL     1      -0.159   1.096   0.123  0.00  0.00    +0.049 A 
ATOM      7  C   UNL     1      -1.352   1.798   0.114  0.00  0.00    +0.143 A 
ATOM      8  C   UNL     1      -1.336   3.192   0.091  0.00  0.00    +0.081 A 
ATOM      9  C   UNL     1      -0.129   3.870   0.067  0.00  0.00    +0.056 A 
ATOM     10  N   UNL     1      -2.552   3.891   0.088  0.00  0.00    -0.254 N 
ATOM     11  C   UNL     1      -3.684   3.236   0.426  0.00  0.00    +0.258 C 
ATOM     12  O   UNL     1      -4.751   3.813   0.400  0.00  0.00    -0.271 OA
ATOM     13  C   UNL     1      -3.617   1.787   0.835  0.00  0.00    +0.325 C 
ATOM     14  O   UNL     1      -2.543   1.142   0.145  0.00  0.00    -0.481 OA
BRANCH  10  15
ATOM     15  C   UNL     1      -2.593   5.309  -0.277  0.00  0.00    +0.238 C 
BRANCH  15  16
ATOM     16  C   UNL     1      -2.807   5.440  -1.763  0.00  0.00    +0.373 C 
ATOM     17  O   UNL     1      -2.915   4.450  -2.447  0.00  0.00    -0.245 OA
ATOM     18  O   UNL     1      -2.879   6.656  -2.326  0.00  0.00    -0.245 OA
ENDBRANCH  15  16
ENDBRANCH  10  15
ENDBRANCH   1   4
BRANCH   1  19
ATOM     19  N   UNL     1       3.008   4.229  -1.552  0.00  0.00    -0.213 N 
ATOM     20  H   UNL     1       3.818   3.823  -1.899  0.00  0.00    +0.174 HD
BRANCH  19  26
ATOM     21  C   UNL     1       2.036   4.629  -3.731  0.00  0.00    +0.151 A 
ATOM     22  C   UNL     1       1.220   5.382  -4.559  0.00  0.00    +0.049 A 
ATOM     23  C   UNL     1       0.569   6.496  -4.062  0.00  0.00    +0.024 A 
ATOM     24  C   UNL     1       0.725   6.859  -2.736  0.00  0.00    +0.043 A 
ATOM     25  C   UNL     1       1.534   6.109  -1.901  0.00  0.00    +0.048 A 
ATOM     26  C   UNL     1       2.190   4.990  -2.394  0.00  0.00    +0.092 A 
ATOM     27 CL   UNL     1      -0.095   8.259  -2.118  0.00  0.00    -0.083 Cl
BRANCH  21  28
ATOM     28  O   UNL     1       2.682   3.537  -4.220  0.00  0.00    -0.454 OA
BRANCH  28  32
ATOM     29  C   UNL     1       6.698   3.892  -5.094  0.00  0.00    +0.000 A 
ATOM     30  C   UNL     1       6.077   2.660  -5.191  0.00  0.00    +0.004 A 
ATOM     31  C   UNL     1       4.732   2.539  -4.899  0.00  0.00    +0.046 A 
ATOM     32  C   UNL     1       4.005   3.654  -4.508  0.00  0.00    +0.129 A 
ATOM     33  C   UNL     1       4.629   4.889  -4.417  0.00  0.00    +0.046 A 
ATOM     34  C   UNL     1       5.976   5.004  -4.704  0.00  0.00    +0.004 A 
ENDBRANCH  28  32
ENDBRANCH  21  28
ENDBRANCH  19  26
ENDBRANCH   1  19
TORSDOF 7
