REMARK  Name = ZINC58991745
REMARK  10 active torsions:
REMARK  status: ('A' for Active; 'I' for Inactive)
REMARK    1  A    between atoms: C_4  and  C_7
REMARK    2  A    between atoms: C_10  and  S_13
REMARK    3  A    between atoms: N_11  and  N_12
REMARK    4  A    between atoms: S_13  and  C_14
REMARK    5  A    between atoms: C_14  and  C_15
REMARK    6  A    between atoms: N_17  and  N_18
REMARK    7  A    between atoms: C_19  and  C_20
REMARK    8  A    between atoms: C_25  and  O_26
REMARK    9  A    between atoms: O_26  and  C_27
REMARK   10  A    between atoms: C_27  and  C_28
REMARK                            x       y       z     vdW  Elec       q    Type
REMARK                         _______ _______ _______ _____ _____    ______ ____
ROOT
ATOM      1  C   UNL     1       8.810  -4.417   0.949  0.00  0.00    +0.242 C 
ATOM      2  O   UNL     1       8.353  -5.419   1.458  0.00  0.00    -0.273 OA
ATOM      3  N   UNL     1      10.064  -4.423   0.457  0.00  0.00    -0.206 N 
ATOM      4  H   UNL     1      10.409  -3.640  -0.001  0.00  0.00    +0.177 HD
ENDROOT
BRANCH   3   5
ATOM      5  N   UNL     1      10.870  -5.559   0.608  0.00  0.00    -0.188 NA
ATOM      6  C   UNL     1      12.115  -5.524   0.241  0.00  0.00    +0.142 C 
BRANCH   6   7
ATOM      7  C   UNL     1      12.926  -6.754   0.272  0.00  0.00    +0.036 A 
ATOM      8  C   UNL     1      14.294  -6.701  -0.007  0.00  0.00    +0.013 A 
ATOM      9  C   UNL     1      15.047  -7.855   0.024  0.00  0.00    +0.001 A 
ATOM     10  C   UNL     1      14.454  -9.068   0.330  0.00  0.00    +0.004 A 
ATOM     11  C   UNL     1      13.101  -9.135   0.607  0.00  0.00    +0.046 A 
ATOM     12  C   UNL     1      12.331  -7.984   0.586  0.00  0.00    +0.130 A 
BRANCH  12  13
ATOM     13  O   UNL     1      11.003  -8.047   0.864  0.00  0.00    -0.487 OA
BRANCH  13  14
ATOM     14  C   UNL     1      10.492  -9.306   1.304  0.00  0.00    +0.266 C 
BRANCH  14  15
ATOM     15  C   UNL     1       8.987  -9.247   1.358  0.00  0.00    +0.008 A 
ATOM     16  C   UNL     1       8.322  -8.134   0.877  0.00  0.00    +0.008 A 
ATOM     17  C   UNL     1       6.941  -8.079   0.926  0.00  0.00    +0.000 A 
ATOM     18  C   UNL     1       6.225  -9.137   1.456  0.00  0.00    +0.001 A 
ATOM     19  C   UNL     1       6.889 -10.249   1.937  0.00  0.00    +0.020 A 
ATOM     20  C   UNL     1       8.271 -10.307   1.883  0.00  0.00    +0.047 A 
ATOM     21 CL   UNL     1       9.105 -11.707   2.481  0.00  0.00    -0.083 Cl
ENDBRANCH  14  15
ENDBRANCH  13  14
ENDBRANCH  12  13
ENDBRANCH   6   7
ENDBRANCH   3   5
BRANCH   1  22
ATOM     22  C   UNL     1       7.974  -3.165   0.868  0.00  0.00    +0.174 C 
BRANCH  22  23
ATOM     23  S   UNL     1       6.348  -3.474   1.610  0.00  0.00    -0.075 S 
BRANCH  23  27
ATOM     24  C   UNL     1       4.004  -0.349   1.508  0.00  0.00    +0.182 A 
ATOM     25  N   UNL     1       5.098   0.092   0.933  0.00  0.00    -0.127 NA
ATOM     26  N   UNL     1       5.980  -0.842   0.892  0.00  0.00    -0.121 NA
ATOM     27  C   UNL     1       5.503  -1.937   1.439  0.00  0.00    +0.209 A 
ATOM     28  N   UNL     1       4.232  -1.661   1.855  0.00  0.00    -0.224 N 
BRANCH  24  32
ATOM     29  C   UNL     1       0.441   1.860   2.188  0.00  0.00    +0.000 A 
ATOM     30  C   UNL     1       1.608   2.522   1.854  0.00  0.00    +0.001 A 
ATOM     31  C   UNL     1       2.769   1.810   1.632  0.00  0.00    +0.011 A 
ATOM     32  C   UNL     1       2.764   0.419   1.746  0.00  0.00    +0.021 A 
ATOM     33  C   UNL     1       1.583  -0.242   2.084  0.00  0.00    +0.011 A 
ATOM     34  C   UNL     1       0.428   0.481   2.303  0.00  0.00    +0.001 A 
ENDBRANCH  24  32
BRANCH  28  35
ATOM     35  N   UNL     1       3.366  -2.511   2.483  0.00  0.00    -0.295 N 
ATOM     36  H   UNL     1       2.804  -3.015   1.813  0.00  0.00    +0.163 HD
ATOM     37  H   UNL     1       3.860  -3.147   3.091  0.00  0.00    +0.163 HD
ENDBRANCH  28  35
ENDBRANCH  23  27
ENDBRANCH  22  23
ENDBRANCH   1  22
TORSDOF 10
