REMARK  Name = ZINC12896114
REMARK  10 active torsions:
REMARK  status: ('A' for Active; 'I' for Inactive)
REMARK    1  A    between atoms: C_1  and  C_2
REMARK    2  A    between atoms: C_2  and  C_3
REMARK    3  A    between atoms: C_2  and  C_4
REMARK    4  A    between atoms: C_10  and  C_15
REMARK    5  A    between atoms: C_16  and  N_24
REMARK    6  A    between atoms: C_25  and  C_27
REMARK    7  A    between atoms: C_29  and  O_35
REMARK    8  A    between atoms: C_31  and  O_33
REMARK    9  A    between atoms: O_33  and  C_34
REMARK   10  A    between atoms: O_35  and  C_36
REMARK                            x       y       z     vdW  Elec       q    Type
REMARK                         _______ _______ _______ _____ _____    ______ ____
ROOT
ATOM      1  C   UNL     1       0.281   0.375   0.906  0.00  0.00    +0.158 A 
ATOM      2  C   UNL     1      -0.102   1.217  -0.102  0.00  0.00    +0.088 A 
ATOM      3  C   UNL     1       1.042   1.295  -1.017  0.00  0.00    +0.042 A 
ATOM      4  C   UNL     1       1.285   1.974  -2.213  0.00  0.00    +0.013 A 
ATOM      5  C   UNL     1       2.491   1.832  -2.839  0.00  0.00    +0.001 A 
ATOM      6  C   UNL     1       3.475   1.019  -2.294  0.00  0.00    +0.004 A 
ATOM      7  C   UNL     1       3.254   0.342  -1.114  0.00  0.00    +0.047 A 
ATOM      8  C   UNL     1       2.035   0.470  -0.460  0.00  0.00    +0.138 A 
ATOM      9  O   UNL     1       1.541  -0.056   0.679  0.00  0.00    -0.453 OA
ENDROOT
BRANCH   1  16
ATOM     10  C   UNL     1       1.535  -2.601   3.792  0.00  0.00    -0.044 A 
ATOM     11  C   UNL     1       0.713  -2.921   4.863  0.00  0.00    +0.007 A 
ATOM     12  C   UNL     1      -0.508  -2.300   5.021  0.00  0.00    +0.047 A 
ATOM     13  C   UNL     1      -0.924  -1.344   4.104  0.00  0.00    +0.140 A 
ATOM     14  C   UNL     1      -0.093  -1.020   3.022  0.00  0.00    +0.029 A 
ATOM     15  C   UNL     1       1.139  -1.655   2.872  0.00  0.00    +0.016 A 
ATOM     16  C   UNL     1      -0.547  -0.002   2.054  0.00  0.00    +0.037 A 
ATOM     17  C   UNL     1      -1.786   0.592   2.272  0.00  0.00    +0.104 A 
ATOM     18  C   UNL     1      -2.549   0.202   3.378  0.00  0.00    +0.338 A 
ATOM     19  O   UNL     1      -3.636   0.723   3.561  0.00  0.00    -0.245 OA
ATOM     20  O   UNL     1      -2.118  -0.727   4.247  0.00  0.00    -0.422 OA
BRANCH  10  22
ATOM     21  C   UNL     1       3.732  -3.013   4.865  0.00  0.00    +0.012 C 
ATOM     22  C   UNL     1       2.866  -3.291   3.635  0.00  0.00    +0.013 C 
ATOM     23  C   UNL     1       2.646  -4.798   3.497  0.00  0.00    +0.012 C 
ENDBRANCH  10  22
ENDBRANCH   1  16
BRANCH   2  24
ATOM     24  N   UNL     1      -1.328   1.862  -0.235  0.00  0.00    -0.278 N 
ATOM     25  C   UNL     1      -1.428   3.180   0.030  0.00  0.00    +0.249 C 
ATOM     26  O   UNL     1      -0.431   3.825   0.291  0.00  0.00    -0.270 OA
ATOM     27  H   UNL     1      -2.111   1.364  -0.518  0.00  0.00    +0.155 HD
BRANCH  25  28
ATOM     28  C   UNL     1      -2.750   3.841   0.002  0.00  0.00    +0.044 A 
ATOM     29  C   UNL     1      -3.895   3.104  -0.304  0.00  0.00    +0.059 A 
ATOM     30  C   UNL     1      -5.132   3.727  -0.324  0.00  0.00    +0.124 A 
ATOM     31  C   UNL     1      -5.232   5.083  -0.052  0.00  0.00    +0.091 A 
ATOM     32  C   UNL     1      -4.096   5.821   0.247  0.00  0.00    +0.124 A 
ATOM     33  C   UNL     1      -2.856   5.206   0.275  0.00  0.00    +0.059 A 
BRANCH  32  34
ATOM     34  O   UNL     1      -4.200   7.150   0.514  0.00  0.00    -0.495 OA
ATOM     35  C   UNL     1      -5.510   7.720   0.467  0.00  0.00    +0.277 C 
ENDBRANCH  32  34
BRANCH  30  36
ATOM     36  O   UNL     1      -6.248   3.009  -0.616  0.00  0.00    -0.495 OA
ATOM     37  C   UNL     1      -7.490   3.715  -0.625  0.00  0.00    +0.277 C 
ENDBRANCH  30  36
ENDBRANCH  25  28
ENDBRANCH   2  24
TORSDOF 6
