REMARK  Name = ZINC24985528
REMARK  7 active torsions:
REMARK  status: ('A' for Active; 'I' for Inactive)
REMARK    1  A    between atoms: C_1  and  C_2
REMARK    2  A    between atoms: C_2  and  O_3
REMARK    3  A    between atoms: O_3  and  C_4
REMARK    4  A    between atoms: C_4  and  C_6
REMARK    5  A    between atoms: C_7  and  C_29
REMARK    6  A    between atoms: N_8  and  C_21
REMARK    7  A    between atoms: C_12  and  C_14
REMARK                            x       y       z     vdW  Elec       q    Type
REMARK                         _______ _______ _______ _____ _____    ______ ____
ROOT
ATOM      1  C   UNL     1      -1.149   2.081  -0.015  0.00  0.00    +0.078 C 
ATOM      2  C   UNL     1       0.074   1.508  -0.007  0.00  0.00    +0.024 C 
ATOM      3  N   UNL     1       1.208   2.268   0.018  0.00  0.00    -0.254 N 
ATOM      4  C   UNL     1       1.204   3.607   0.042  0.00  0.00    +0.307 C 
ATOM      5  O   UNL     1       2.267   4.198   0.064  0.00  0.00    -0.252 OA
ATOM      6  N   UNL     1       0.062   4.321   0.043  0.00  0.00    -0.288 N 
ATOM      7  C   UNL     1      -1.219   3.595   0.018  0.00  0.00    +0.144 C 
ATOM      8  C   UNL     1       0.189   0.006  -0.034  0.00  0.00    +0.061 C 
ATOM      9  H   UNL     1       0.070   5.421   0.063  0.00  0.00    +0.151 HD
ENDROOT
BRANCH   7  10
ATOM     10  C   UNL     1      -2.009   4.002   1.234  0.00  0.00    -0.021 A 
ATOM     11  C   UNL     1      -3.373   4.208   1.136  0.00  0.00    +0.006 A 
ATOM     12  C   UNL     1      -4.098   4.582   2.252  0.00  0.00    +0.001 A 
ATOM     13  C   UNL     1      -3.460   4.749   3.467  0.00  0.00    +0.015 A 
ATOM     14  C   UNL     1      -2.096   4.543   3.566  0.00  0.00    +0.018 A 
ATOM     15  C   UNL     1      -1.371   4.164   2.450  0.00  0.00    +0.021 A 
ATOM     16 BR   UNL     1      -1.223   4.772   5.227  0.00  0.00    -0.050 Br
ENDBRANCH   7  10
BRANCH   3  17
ATOM     17  C   UNL     1       2.502   1.580   0.018  0.00  0.00    +0.105 C 
ATOM     18  C   UNL     1       3.356   2.081  -1.158  0.00  0.00    +0.047 C 
ATOM     19  C   UNL     1       4.820   1.610  -0.985  0.00  0.00    +0.168 C 
ATOM     20  S   UNL     1       4.986   1.469   0.841  0.00  0.00    -0.029 S 
ATOM     21  O   UNL     1       5.245   0.114   1.179  0.00  0.00    -0.174 OA
ATOM     22  O   UNL     1       5.865   2.485   1.305  0.00  0.00    -0.174 OA
ATOM     23  C   UNL     1       3.263   1.893   1.337  0.00  0.00    +0.188 C 
ENDBRANCH   3  17
BRANCH   1  24
ATOM     24  C   UNL     1      -2.325   1.295  -0.046  0.00  0.00    +0.339 C 
ATOM     25  O   UNL     1      -2.248   0.083   0.022  0.00  0.00    -0.245 OA
BRANCH  24  26
ATOM     26  O   UNL     1      -3.531   1.890  -0.152  0.00  0.00    -0.462 OA
BRANCH  26  28
ATOM     27  C   UNL     1      -5.943   1.884  -0.302  0.00  0.00    +0.048 C 
ATOM     28  C   UNL     1      -4.676   1.035  -0.179  0.00  0.00    +0.229 C 
ENDBRANCH  26  28
ENDBRANCH  24  26
ENDBRANCH   1  24
TORSDOF 5
