REMARK  Name = ZINC64131789
REMARK  9 active torsions:
REMARK  status: ('A' for Active; 'I' for Inactive)
REMARK    1  A    between atoms: C_1  and  C_2
REMARK    2  A    between atoms: C_4  and  C_8
REMARK    3  A    between atoms: C_8  and  N_9
REMARK    4  A    between atoms: N_9  and  C_10
REMARK    5  A    between atoms: C_13  and  C_30
REMARK    6  A    between atoms: C_13  and  C_31
REMARK    7  A    between atoms: N_21  and  C_22
REMARK    8  A    between atoms: C_25  and  O_28
REMARK    9  A    between atoms: O_28  and  C_29
REMARK                            x       y       z     vdW  Elec       q    Type
REMARK                         _______ _______ _______ _____ _____    ______ ____
ROOT
ATOM      1  C   UNL     1      -0.463   4.703  -5.884  0.00  0.00    -0.065 C 
ATOM      2  C   UNL     1      -1.889   4.874  -6.433  0.00  0.00    -0.009 C 
ATOM      3  C   UNL     1      -1.883   5.348  -7.883  0.00  0.00    -0.035 C 
ATOM      4  C   UNL     1      -1.046   6.627  -8.057  0.00  0.00    +0.030 C 
ATOM      5  C   UNL     1       0.344   6.321  -7.551  0.00  0.00    +0.094 C 
ATOM      6  C   UNL     1       0.232   6.045  -6.023  0.00  0.00    +0.012 C 
ATOM      7  C   UNL     1       1.728   6.070  -5.677  0.00  0.00    +0.106 C 
ATOM      8  N   UNL     1       2.230   7.168  -6.552  0.00  0.00    -0.240 NA
ATOM      9  N   UNL     1       1.357   7.359  -7.598  0.00  0.00    -0.264 N 
ATOM     10  C   UNL     1      -1.299   4.244  -8.767  0.00  0.00    +0.011 C 
ATOM     11  C   UNL     1      -3.322   5.628  -8.323  0.00  0.00    +0.011 C 
ATOM     12  H   UNL     1       3.164   6.972  -6.878  0.00  0.00    +0.144 HD
ENDROOT
BRANCH   9  13
ATOM     13  C   UNL     1       1.444   8.377  -8.555  0.00  0.00    +0.045 A 
ATOM     14  C   UNL     1       1.661   9.689  -8.155  0.00  0.00    +0.028 A 
ATOM     15  C   UNL     1       1.746  10.693  -9.099  0.00  0.00    +0.047 A 
ATOM     16  C   UNL     1       1.615  10.391 -10.446  0.00  0.00    +0.120 A 
ATOM     17  C   UNL     1       1.398   9.081 -10.847  0.00  0.00    +0.047 A 
ATOM     18  C   UNL     1       1.318   8.075  -9.904  0.00  0.00    +0.028 A 
BRANCH  16  19
ATOM     19  O   UNL     1       1.700  11.381 -11.375  0.00  0.00    -0.495 OA
ATOM     20  C   UNL     1       1.556  10.999 -12.745  0.00  0.00    +0.277 C 
ENDBRANCH  16  19
ENDBRANCH   9  13
BRANCH   1  21
ATOM     21  N   UNL     1      -0.515   4.310  -4.469  0.00  0.00    +0.385 N 
ATOM     22  H   UNL     1      -1.079   4.971  -3.957  0.00  0.00    -0.085 HD
ATOM     23  H   UNL     1       0.419   4.298  -4.089  0.00  0.00    -0.085 HD
BRANCH  21  24
ATOM     24  C   UNL     1      -1.107   2.970  -4.355  0.00  0.00    -0.024 C 
BRANCH  24  28
ATOM     25  C   UNL     1       0.260   1.163   0.114  0.00  0.00    +0.086 C 
ATOM     26  C   UNL     1      -0.564   1.786  -0.982  0.00  0.00    +0.104 A 
ATOM     27  N   UNL     1      -0.166   1.997  -2.207  0.00  0.00    -0.240 NA
ATOM     28  C   UNL     1      -1.161   2.567  -2.904  0.00  0.00    +0.042 A 
ATOM     29  H   UNL     1      -2.386   2.178  -0.061  0.00  0.00    +0.166 HD
ATOM     30  C   UNL     1      -2.215   2.715  -2.080  0.00  0.00    +0.105 A 
ATOM     31  N   UNL     1      -1.839   2.215  -0.862  0.00  0.00    -0.348 N 
ENDBRANCH  24  28
ENDBRANCH  21  24
ENDBRANCH   1  21
TORSDOF 5
