REMARK  Name = ZINC12363680
REMARK  6 active torsions:
REMARK  status: ('A' for Active; 'I' for Inactive)
REMARK    1  A    between atoms: C_1  and  C_2
REMARK    2  A    between atoms: C_4  and  N_23
REMARK    3  A    between atoms: C_7  and  C_8
REMARK    4  A    between atoms: C_11  and  C_13
REMARK    5  A    between atoms: N_14  and  N_15
REMARK    6  A    between atoms: N_15  and  C_16
REMARK                            x       y       z     vdW  Elec       q    Type
REMARK                         _______ _______ _______ _____ _____    ______ ____
ROOT
ATOM      1  C   UNL     1      -1.084   6.576   0.066  0.00  0.00    +0.136 A 
ATOM      2  C   UNL     1      -0.455   7.812  -0.179  0.00  0.00    +0.050 A 
ATOM      3  C   UNL     1       0.884   7.582  -0.268  0.00  0.00    +0.051 A 
ATOM      4  C   UNL     1       1.066   6.139  -0.077  0.00  0.00    +0.148 A 
ATOM      5  O   UNL     1      -0.159   5.603   0.121  0.00  0.00    -0.454 OA
ENDROOT
BRANCH   1  12
ATOM      6  C   UNL     1      -2.432   4.513  -1.461  0.00  0.00    +0.044 C 
ATOM      7  C   UNL     1      -3.195   5.385  -0.498  0.00  0.00    -0.038 A 
ATOM      8  C   UNL     1      -4.550   5.210  -0.331  0.00  0.00    +0.036 A 
ATOM      9  C   UNL     1      -5.254   6.010   0.554  0.00  0.00    +0.126 A 
ATOM     10  C   UNL     1      -4.603   6.995   1.281  0.00  0.00    +0.033 A 
ATOM     11  C   UNL     1      -3.247   7.184   1.134  0.00  0.00    +0.014 A 
ATOM     12  C   UNL     1      -2.525   6.380   0.234  0.00  0.00    +0.020 A 
BRANCH   9  13
ATOM     13  N   UNL     1      -6.711   5.812   0.726  0.00  0.00    +0.056 N 
ATOM     14  O   UNL     1      -7.334   4.878   0.038  0.00  0.00    -0.126 OA
ATOM     15  O   UNL     1      -7.384   6.571   1.566  0.00  0.00    -0.126 OA
ENDBRANCH   9  13
ENDBRANCH   1  12
BRANCH   4  16
ATOM     16  C   UNL     1       2.270   5.454  -0.092  0.00  0.00    +0.176 C 
ATOM     17  N   UNL     1       2.299   4.153   0.194  0.00  0.00    -0.187 NA
BRANCH  17  18
ATOM     18  N   UNL     1       1.233   3.560   0.612  0.00  0.00    -0.238 N 
ATOM     19  H   UNL     1       0.436   4.077   0.811  0.00  0.00    +0.174 HD
BRANCH  18  20
ATOM     20  C   UNL     1       1.224   2.186   0.776  0.00  0.00    +0.048 A 
ATOM     21  C   UNL     1       0.072   1.542   1.228  0.00  0.00    +0.026 A 
ATOM     22  C   UNL     1       0.069   0.173   1.389  0.00  0.00    +0.016 A 
ATOM     23  C   UNL     1       1.207  -0.563   1.104  0.00  0.00    +0.013 A 
ATOM     24  C   UNL     1       2.354   0.071   0.655  0.00  0.00    +0.016 A 
ATOM     25  C   UNL     1       2.368   1.440   0.490  0.00  0.00    +0.026 A 
ATOM     26  I   UNL     1       1.194  -2.643   1.353  0.00  0.00    -0.044 I 
ENDBRANCH  18  20
ENDBRANCH  17  18
ENDBRANCH   4  16
TORSDOF 5
