REMARK  Name = ZINC08886945
REMARK  10 active torsions:
REMARK  status: ('A' for Active; 'I' for Inactive)
REMARK    1  A    between atoms: C_1  and  C_2
REMARK    2  A    between atoms: C_3  and  C_30
REMARK    3  A    between atoms: C_4  and  C_29
REMARK    4  A    between atoms: C_7  and  C_8
REMARK    5  A    between atoms: C_8  and  C_10
REMARK    6  A    between atoms: C_10  and  N_11
REMARK    7  A    between atoms: C_14  and  C_18
REMARK    8  A    between atoms: C_14  and  C_19
REMARK    9  A    between atoms: C_30  and  O_32
REMARK   10  A    between atoms: O_32  and  C_33
REMARK                            x       y       z     vdW  Elec       q    Type
REMARK                         _______ _______ _______ _____ _____    ______ ____
ROOT
ATOM      1  N   UNL     1      -3.943   3.858   1.872  0.00  0.00    -0.216 N 
ATOM      2  C   UNL     1      -3.580   3.053   0.854  0.00  0.00    +0.251 C 
ATOM      3  O   UNL     1      -3.981   1.931   0.630  0.00  0.00    -0.272 OA
ATOM      4  C   UNL     1      -2.569   3.842   0.047  0.00  0.00    +0.135 C 
ATOM      5  N   UNL     1      -2.469   5.121   0.772  0.00  0.00    -0.281 N 
ATOM      6  C   UNL     1      -3.307   5.035   1.821  0.00  0.00    +0.310 C 
ATOM      7  O   UNL     1      -3.469   5.926   2.631  0.00  0.00    -0.252 OA
ATOM      8  C   UNL     1      -3.073   4.070  -1.379  0.00  0.00    +0.047 C 
ATOM      9  H   UNL     1      -1.908   5.877   0.539  0.00  0.00    +0.152 HD
ENDROOT
BRANCH   4  10
ATOM     10  C   UNL     1      -1.237   3.137   0.031  0.00  0.00    -0.015 A 
ATOM     11  C   UNL     1      -1.198   1.744   0.017  0.00  0.00    +0.007 A 
ATOM     12  C   UNL     1      -0.013   1.076   0.008  0.00  0.00    +0.009 A 
ATOM     13  C   UNL     1       1.193   1.799   0.000  0.00  0.00    -0.018 A 
ATOM     14  C   UNL     1       2.436   1.144  -0.015  0.00  0.00    +0.008 A 
ATOM     15  C   UNL     1       3.583   1.877  -0.022  0.00  0.00    +0.001 A 
ATOM     16  C   UNL     1       3.544   3.270  -0.015  0.00  0.00    +0.001 A 
ATOM     17  C   UNL     1       2.358   3.938   0.000  0.00  0.00    +0.008 A 
ATOM     18  C   UNL     1       1.153   3.215   0.008  0.00  0.00    -0.018 A 
ATOM     19  C   UNL     1      -0.090   3.870   0.023  0.00  0.00    +0.014 A 
ENDBRANCH   4  10
BRANCH   1  20
ATOM     20  C   UNL     1      -4.912   3.491   2.907  0.00  0.00    +0.199 C 
BRANCH  20  21
ATOM     21  C   UNL     1      -6.295   3.898   2.467  0.00  0.00    +0.197 C 
ATOM     22  O   UNL     1      -6.455   4.441   1.394  0.00  0.00    -0.289 OA
BRANCH  21  29
ATOM     23  C   UNL     1      -9.234   4.651   1.790  0.00  0.00    +0.047 C 
ATOM     24  C   UNL     1      -8.718   3.968   3.031  0.00  0.00    -0.008 A 
ATOM     25  C   UNL     1      -9.486   3.535   4.133  0.00  0.00    +0.083 A 
ATOM     26  C   UNL     1      -8.610   2.970   5.044  0.00  0.00    +0.028 A 
ATOM     27  N   UNL     1      -7.367   3.039   4.545  0.00  0.00    -0.355 N 
ATOM     28  H   UNL     1      -6.566   2.713   4.985  0.00  0.00    +0.166 HD
ATOM     29  C   UNL     1      -7.407   3.646   3.306  0.00  0.00    +0.088 A 
ATOM     30  C   UNL     1      -8.990   2.376   6.376  0.00  0.00    +0.064 C 
BRANCH  25  31
ATOM     31  C   UNL     1     -10.945   3.664   4.287  0.00  0.00    +0.341 C 
ATOM     32  O   UNL     1     -11.415   4.656   4.807  0.00  0.00    -0.245 OA
BRANCH  31  33
ATOM     33  O   UNL     1     -11.758   2.681   3.852  0.00  0.00    -0.464 OA
ATOM     34  C   UNL     1     -13.185   2.876   4.037  0.00  0.00    +0.280 C 
ENDBRANCH  31  33
ENDBRANCH  25  31
ENDBRANCH  21  29
ENDBRANCH  20  21
ENDBRANCH   1  20
TORSDOF 6
