REMARK  Name = ZINC09380007
REMARK  11 active torsions:
REMARK  status: ('A' for Active; 'I' for Inactive)
REMARK    1  A    between atoms: C_1  and  C_2
REMARK    2  A    between atoms: C_14  and  C_16
REMARK    3  A    between atoms: C_19  and  O_24
REMARK    4  A    between atoms: C_20  and  O_22
REMARK    5  A    between atoms: O_22  and  C_23
REMARK    6  A    between atoms: O_24  and  C_25
REMARK    7  A    between atoms: C_29  and  C_32
REMARK    8  A    between atoms: C_35  and  C_38
REMARK    9  A    between atoms: C_38  and  C_39
REMARK   10  A    between atoms: C_38  and  C_40
REMARK   11  A    between atoms: C_38  and  C_41
REMARK                            x       y       z     vdW  Elec       q    Type
REMARK                         _______ _______ _______ _____ _____    ______ ____
ROOT
ATOM      1  C   UNL     1       3.042   1.994  -2.186  0.00  0.00    +0.110 C 
ATOM      2  C   UNL     1       3.294   1.211  -0.923  0.00  0.00    +0.218 C 
ATOM      3  O   UNL     1       4.289   0.524  -0.825  0.00  0.00    -0.276 OA
ATOM      4  N   UNL     1       2.414   1.273   0.096  0.00  0.00    -0.258 N 
ATOM      5  C   UNL     1       1.273   2.066  -0.027  0.00  0.00    +0.058 A 
ATOM      6  C   UNL     1       1.360   3.448  -0.097  0.00  0.00    +0.025 A 
ATOM      7  C   UNL     1       0.201   4.202  -0.136  0.00  0.00    +0.002 A 
ATOM      8  C   UNL     1      -1.038   3.586  -0.107  0.00  0.00    +0.002 A 
ATOM      9  C   UNL     1      -1.128   2.205  -0.062  0.00  0.00    +0.025 A 
ATOM     10  C   UNL     1       0.031   1.450  -0.043  0.00  0.00    +0.053 A 
ATOM     11  N   UNL     1       0.017   0.060  -0.051  0.00  0.00    -0.316 N 
ATOM     12  C   UNL     1       0.476  -0.728   0.956  0.00  0.00    +0.017 C 
ATOM     13  C   UNL     1       1.653  -0.568   1.584  0.00  0.00    +0.037 C 
ATOM     14  C   UNL     1       2.666   0.516   1.304  0.00  0.00    +0.147 C 
ATOM     15  C   UNL     1       2.034  -1.453   2.620  0.00  0.00    +0.163 C 
ATOM     16  O   UNL     1       3.116  -1.300   3.153  0.00  0.00    -0.292 OA
ATOM     17  C   UNL     1       1.151  -2.572   3.085  0.00  0.00    +0.088 C 
ATOM     18  C   UNL     1      -0.309  -2.179   2.829  0.00  0.00    +0.032 C 
ATOM     19  C   UNL     1      -0.452  -1.869   1.340  0.00  0.00    +0.059 C 
ATOM     20  H   UNL     1      -0.350  -0.380  -0.833  0.00  0.00    +0.152 HD
ENDROOT
BRANCH  14  21
ATOM     21  C   UNL     1       2.681   1.470   2.471  0.00  0.00    -0.018 A 
ATOM     22  C   UNL     1       1.550   2.204   2.776  0.00  0.00    +0.009 A 
ATOM     23  C   UNL     1       1.557   3.076   3.849  0.00  0.00    +0.050 A 
ATOM     24  C   UNL     1       2.703   3.224   4.614  0.00  0.00    +0.162 A 
ATOM     25  C   UNL     1       3.843   2.489   4.303  0.00  0.00    +0.162 A 
ATOM     26  C   UNL     1       3.827   1.613   3.230  0.00  0.00    +0.055 A 
BRANCH  25  27
ATOM     27  O   UNL     1       4.970   2.631   5.051  0.00  0.00    -0.491 OA
ATOM     28  C   UNL     1       6.102   1.846   4.673  0.00  0.00    +0.277 C 
ENDBRANCH  25  27
BRANCH  24  29
ATOM     29  O   UNL     1       2.713   4.085   5.666  0.00  0.00    -0.491 OA
ATOM     30  C   UNL     1       1.506   4.806   5.926  0.00  0.00    +0.277 C 
ENDBRANCH  24  29
ENDBRANCH  14  21
BRANCH  18  31
ATOM     31  C   UNL     1      -1.218  -3.321   3.204  0.00  0.00    -0.043 A 
ATOM     32  C   UNL     1      -1.094  -4.541   2.567  0.00  0.00    +0.004 A 
ATOM     33  C   UNL     1      -1.925  -5.590   2.914  0.00  0.00    +0.004 A 
ATOM     34  C   UNL     1      -2.887  -5.415   3.892  0.00  0.00    -0.042 A 
ATOM     35  C   UNL     1      -3.014  -4.193   4.525  0.00  0.00    +0.004 A 
ATOM     36  C   UNL     1      -2.180  -3.146   4.181  0.00  0.00    +0.004 A 
BRANCH  34  37
ATOM     37  C   UNL     1      -3.796  -6.557   4.267  0.00  0.00    -0.013 C 
ATOM     38  C   UNL     1      -5.250  -6.157   4.009  0.00  0.00    +0.015 C 
ATOM     39  C   UNL     1      -3.448  -7.785   3.423  0.00  0.00    +0.015 C 
ATOM     40  C   UNL     1      -3.613  -6.889   5.749  0.00  0.00    +0.015 C 
ENDBRANCH  34  37
ENDBRANCH  18  31
TORSDOF 5
