REMARK  Name = ZINC19074336
REMARK  11 active torsions:
REMARK  status: ('A' for Active; 'I' for Inactive)
REMARK    1  A    between atoms: C_1  and  C_2
REMARK    2  A    between atoms: C_2  and  N_67
REMARK    3  A    between atoms: C_3  and  C_4
REMARK    4  A    between atoms: C_3  and  N_67
REMARK    5  A    between atoms: C_5  and  C_6
REMARK    6  A    between atoms: C_5  and  N_67
REMARK    7  A    between atoms: C_6  and  C_7
REMARK    8  A    between atoms: C_10  and  C_20
REMARK    9  A    between atoms: C_13  and  C_15
REMARK   10  A    between atoms: C_22  and  C_32
REMARK   11  A    between atoms: C_25  and  C_26
REMARK                            x       y       z     vdW  Elec       q    Type
REMARK                         _______ _______ _______ _____ _____    ______ ____
ROOT
ATOM      1  C   UNL     1       4.057   0.474  -1.236  0.00  0.00    +0.234 C 
ATOM      2  O   UNL     1       3.251   0.657  -0.348  0.00  0.00    -0.274 OA
ATOM      3  N   UNL     1       5.100  -0.355  -1.039  0.00  0.00    -0.183 N 
ATOM      4  C   UNL     1       5.321  -1.183   0.157  0.00  0.00    +0.157 C 
ATOM      5  C   UNL     1       6.641  -1.918  -0.148  0.00  0.00    +0.091 C 
ATOM      6  C   UNL     1       7.032  -1.411  -1.518  0.00  0.00    +0.104 C 
ATOM      7  N   UNL     1       6.147  -0.568  -1.934  0.00  0.00    -0.178 NA
ENDROOT
BRANCH   6   8
ATOM      8  C   UNL     1       8.230  -1.815  -2.260  0.00  0.00    +0.150 A 
ATOM      9  C   UNL     1       8.597  -1.369  -3.496  0.00  0.00    +0.051 A 
ATOM     10  C   UNL     1       9.804  -2.015  -3.819  0.00  0.00    +0.042 A 
ATOM     11  C   UNL     1      10.116  -2.815  -2.779  0.00  0.00    +0.196 A 
ATOM     12  O   UNL     1       9.166  -2.689  -1.837  0.00  0.00    -0.462 OA
ENDBRANCH   6   8
BRANCH   4  13
ATOM     13  C   UNL     1       4.195  -2.169   0.335  0.00  0.00    +0.087 C 
ATOM     14  N   UNL     1       3.442  -2.613  -0.613  0.00  0.00    -0.253 NA
ATOM     15  C   UNL     1       2.480  -3.545  -0.012  0.00  0.00    +0.252 C 
ATOM     16  N   UNL     1       2.789  -3.581   1.423  0.00  0.00    -0.251 NA
ATOM     17  C   UNL     1       3.788  -2.771   1.620  0.00  0.00    +0.091 C 
BRANCH  17  18
ATOM     18  C   UNL     1       4.423  -2.499   2.931  0.00  0.00    +0.002 A 
ATOM     19  C   UNL     1       3.758  -2.828   4.112  0.00  0.00    +0.010 A 
ATOM     20  C   UNL     1       4.355  -2.573   5.330  0.00  0.00    +0.001 A 
ATOM     21  C   UNL     1       5.610  -1.993   5.380  0.00  0.00    +0.000 A 
ATOM     22  C   UNL     1       6.274  -1.665   4.212  0.00  0.00    +0.001 A 
ATOM     23  C   UNL     1       5.688  -1.915   2.988  0.00  0.00    +0.010 A 
ENDBRANCH  17  18
BRANCH  15  24
ATOM     24  C   UNL     1       2.648  -4.919  -0.608  0.00  0.00    -0.002 A 
ATOM     25  C   UNL     1       3.087  -5.058  -1.911  0.00  0.00    +0.007 A 
ATOM     26  C   UNL     1       3.246  -6.318  -2.457  0.00  0.00    +0.000 A 
ATOM     27  C   UNL     1       2.955  -7.439  -1.702  0.00  0.00    +0.000 A 
ATOM     28  C   UNL     1       2.511  -7.300  -0.400  0.00  0.00    +0.000 A 
ATOM     29  C   UNL     1       2.358  -6.040   0.147  0.00  0.00    +0.007 A 
ENDBRANCH  15  24
ENDBRANCH   4  13
BRANCH   1  30
ATOM     30  C   UNL     1       3.891   1.175  -2.560  0.00  0.00    +0.079 C 
BRANCH  30  31
ATOM     31  C   UNL     1       2.637   2.050  -2.521  0.00  0.00    -0.070 C 
BRANCH  31  32
ATOM     32  N   UNL     1       2.500   2.747  -3.817  0.00  0.00    +0.380 N 
ATOM     33  H   UNL     1       3.385   3.218  -4.038  0.00  0.00    -0.082 HD
BRANCH  32  35
ATOM     34  C   UNL     1       0.872   1.060  -4.601  0.00  0.00    -0.017 C 
ATOM     35  C   UNL     1       2.196   1.771  -4.885  0.00  0.00    -0.082 C 
ENDBRANCH  32  35
BRANCH  32  36
ATOM     36  C   UNL     1       1.425   3.758  -3.736  0.00  0.00    -0.082 C 
ATOM     37  C   UNL     1       1.482   4.638  -4.987  0.00  0.00    -0.017 C 
ENDBRANCH  32  36
ENDBRANCH  31  32
ENDBRANCH  30  31
ENDBRANCH   1  30
TORSDOF 9
