REMARK  Name = ZINC09382639
REMARK  9 active torsions:
REMARK  status: ('A' for Active; 'I' for Inactive)
REMARK    1  A    between atoms: C_1  and  C_2
REMARK    2  A    between atoms: C_5  and  S_8
REMARK    3  A    between atoms: S_8  and  N_11
REMARK    4  A    between atoms: N_11  and  C_12
REMARK    5  A    between atoms: C_12  and  C_14
REMARK    6  A    between atoms: C_12  and  C_15
REMARK    7  A    between atoms: C_15  and  C_17
REMARK    8  A    between atoms: C_15  and  N_60
REMARK    9  A    between atoms: N_24  and  C_27
REMARK                            x       y       z     vdW  Elec       q    Type
REMARK                         _______ _______ _______ _____ _____    ______ ____
ROOT
ATOM      1  C   UNL     1       2.565  -1.514  -0.030  0.00  0.00    -0.012 C 
ENDROOT
BRANCH   1   7
ATOM      2  C   UNL     1       0.626  -2.829   0.584  0.00  0.00    -0.059 C 
ATOM      3  C   UNL     1       0.101  -3.863   1.582  0.00  0.00    +0.086 C 
ATOM      4  N   UNL     1       0.144  -3.297   2.938  0.00  0.00    -0.331 N 
ATOM      5  C   UNL     1       1.516  -2.919   3.304  0.00  0.00    +0.086 C 
ATOM      6  C   UNL     1       2.041  -1.884   2.305  0.00  0.00    -0.059 C 
ATOM      7  N   UNL     1       2.013  -2.474   0.950  0.00  0.00    +0.388 N 
ATOM      8  H   UNL     1       2.588  -3.324   0.944  0.00  0.00    -0.081 HD
BRANCH   4   9
ATOM      9  C   UNL     1      -0.395  -4.189   3.871  0.00  0.00    +0.065 A 
ATOM     10  C   UNL     1      -0.515  -3.815   5.202  0.00  0.00    +0.026 A 
ATOM     11  C   UNL     1      -1.052  -4.696   6.120  0.00  0.00    +0.002 A 
ATOM     12  C   UNL     1      -1.462  -5.953   5.718  0.00  0.00    +0.003 A 
ATOM     13  C   UNL     1      -1.340  -6.333   4.393  0.00  0.00    +0.040 A 
ATOM     14  C   UNL     1      -0.808  -5.454   3.467  0.00  0.00    +0.144 A 
ATOM     15  F   UNL     1      -0.688  -5.825   2.174  0.00  0.00    -0.204 F 
ENDBRANCH   4   9
ENDBRANCH   1   7
BRANCH   1  16
ATOM     16  C   UNL     1       1.841  -0.195   0.058  0.00  0.00    -0.022 A 
ATOM     17  C   UNL     1       2.354   1.057   0.142  0.00  0.00    +0.009 A 
ATOM     18  C   UNL     1       1.490   2.132   0.215  0.00  0.00    +0.008 A 
ATOM     19  C   UNL     1       0.153   1.904   0.200  0.00  0.00    +0.045 A 
ATOM     20  S   UNL     1       0.084   0.124   0.081  0.00  0.00    -0.103 S 
ENDBRANCH   1  16
BRANCH   1  21
ATOM     21  C   UNL     1       2.404  -2.090  -1.438  0.00  0.00    +0.065 C 
ATOM     22  C   UNL     1       3.139  -3.429  -1.528  0.00  0.00    +0.024 C 
BRANCH  21  23
ATOM     23  N   UNL     1       2.970  -1.156  -2.415  0.00  0.00    -0.188 NA
ATOM     24  H   UNL     1       3.755  -0.634  -2.189  0.00  0.00    +0.148 HD
BRANCH  23  25
ATOM     25  S   UNL     1       2.267  -0.992  -3.906  0.00  0.00    +0.059 S 
ATOM     26  O   UNL     1       3.019  -0.008  -4.603  0.00  0.00    -0.153 OA
ATOM     27  O   UNL     1       2.077  -2.306  -4.413  0.00  0.00    -0.153 OA
BRANCH  25  32
ATOM     28  C   UNL     1      -3.233   1.334  -3.041  0.00  0.00    +0.044 C 
ATOM     29  C   UNL     1      -1.859   0.753  -3.257  0.00  0.00    -0.050 A 
ATOM     30  C   UNL     1      -0.776   1.591  -3.447  0.00  0.00    +0.005 A 
ATOM     31  C   UNL     1       0.484   1.058  -3.645  0.00  0.00    +0.029 A 
ATOM     32  C   UNL     1       0.661  -0.313  -3.653  0.00  0.00    +0.105 A 
ATOM     33  C   UNL     1      -0.422  -1.151  -3.468  0.00  0.00    +0.029 A 
ATOM     34  C   UNL     1      -1.682  -0.618  -3.265  0.00  0.00    +0.005 A 
ENDBRANCH  25  32
ENDBRANCH  23  25
ENDBRANCH  21  23
ENDBRANCH   1  21
TORSDOF 7
