REMARK  Name = ZINC09232879
REMARK  4 active torsions:
REMARK  status: ('A' for Active; 'I' for Inactive)
REMARK    1  A    between atoms: C_1  and  C_2
REMARK    2  A    between atoms: N_27  and  C_30
REMARK    3  A    between atoms: C_30  and  C_31
REMARK    4  A    between atoms: C_31  and  C_32
REMARK                            x       y       z     vdW  Elec       q    Type
REMARK                         _______ _______ _______ _____ _____    ______ ____
ROOT
ATOM      1  C   UNL     1      -0.018   1.503   0.010  0.00  0.00    +0.047 C 
ATOM      2  C   UNL     1       0.002  -0.004   0.002  0.00  0.00    -0.009 A 
ATOM      3  C   UNL     1       0.006  -0.684  -1.178  0.00  0.00    +0.008 A 
ATOM      4  C   UNL     1       0.026  -2.086  -1.168  0.00  0.00    +0.019 A 
ATOM      5  C   UNL     1       0.043  -2.757   0.005  0.00  0.00    +0.096 A 
ATOM      6  N   UNL     1       0.039  -2.087   1.192  0.00  0.00    -0.269 N 
ATOM      7  C   UNL     1       0.023  -0.720   1.214  0.00  0.00    +0.122 A 
ATOM      8  N   UNL     1       0.020  -0.055   2.366  0.00  0.00    -0.329 N 
ATOM      9  C   UNL     1       0.038  -0.696   3.534  0.00  0.00    +0.109 A 
ATOM     10  C   UNL     1       0.062  -2.088   3.557  0.00  0.00    +0.057 A 
ATOM     11  C   UNL     1       0.056  -2.781   2.349  0.00  0.00    +0.263 A 
ATOM     12  O   UNL     1       0.081  -4.003   2.337  0.00  0.00    -0.267 OA
ATOM     13  C   UNL     1       0.078  -2.845   4.857  0.00  0.00    +0.071 C 
ATOM     14  C   UNL     1       0.624  -1.968   5.986  0.00  0.00    +0.146 C 
ATOM     15  C   UNL     1      -0.144  -0.636   5.996  0.00  0.00    +0.099 C 
ATOM     16  N   UNL     1       0.034   0.005   4.715  0.00  0.00    -0.312 N 
ATOM     17  C   UNL     1       0.224   1.498   4.707  0.00  0.00    +0.107 C 
ATOM     18  C   UNL     1      -1.038   2.024   5.260  0.00  0.00    +0.019 C 
ATOM     19  C   UNL     1      -1.415   1.506   6.635  0.00  0.00    +0.002 C 
ATOM     20  C   UNL     1      -2.357   0.409   6.245  0.00  0.00    +0.002 C 
ATOM     21  C   UNL     1      -1.628  -0.974   6.395  0.00  0.00    +0.024 C 
ATOM     22  C   UNL     1       2.082  -1.692   5.748  0.00  0.00    +0.238 C 
ATOM     23  O   UNL     1       2.416  -1.142   4.720  0.00  0.00    -0.274 OA
ATOM     24  N   UNL     1       3.022  -2.034   6.638  0.00  0.00    -0.239 N 
ATOM     25  C   UNL     1       2.718  -2.646   7.793  0.00  0.00    +0.315 C 
ATOM     26  N   UNL     1       1.452  -2.953   8.113  0.00  0.00    -0.224 N 
ATOM     27  C   UNL     1       0.424  -2.661   7.304  0.00  0.00    +0.240 C 
ATOM     28  O   UNL     1      -0.699  -2.964   7.645  0.00  0.00    -0.274 OA
ATOM     29  O   UNL     1       3.611  -2.929   8.567  0.00  0.00    -0.252 OA
ATOM     30  H   UNL     1       3.951  -1.833   6.443  0.00  0.00    +0.159 HD
ATOM     31  H   UNL     1       0.005   0.914   2.356  0.00  0.00    +0.168 HD
ENDROOT
BRANCH  26  32
ATOM     32  C   UNL     1       1.185  -3.628   9.386  0.00  0.00    +0.122 C 
BRANCH  32  33
ATOM     33  C   UNL     1       0.945  -2.583  10.477  0.00  0.00    +0.054 C 
BRANCH  33  34
ATOM     34  C   UNL     1       0.670  -3.277  11.786  0.00  0.00    -0.046 A 
ATOM     35  C   UNL     1      -0.626  -3.608  12.134  0.00  0.00    +0.004 A 
ATOM     36  C   UNL     1      -0.878  -4.245  13.335  0.00  0.00    +0.000 A 
ATOM     37  C   UNL     1       0.166  -4.552  14.187  0.00  0.00    +0.000 A 
ATOM     38  C   UNL     1       1.462  -4.221  13.839  0.00  0.00    +0.000 A 
ATOM     39  C   UNL     1       1.715  -3.588  12.636  0.00  0.00    +0.004 A 
ENDBRANCH  33  34
ENDBRANCH  32  33
ENDBRANCH  26  32
TORSDOF 3
