REMARK  Name = ZINC03614346
REMARK  11 active torsions:
REMARK  status: ('A' for Active; 'I' for Inactive)
REMARK    1  A    between atoms: C_1  and  C_2
REMARK    2  A    between atoms: C_2  and  C_3
REMARK    3  A    between atoms: C_2  and  C_4
REMARK    4  A    between atoms: C_7  and  N_10
REMARK    5  A    between atoms: C_11  and  C_13
REMARK    6  A    between atoms: C_13  and  C_15
REMARK    7  A    between atoms: C_13  and  N_24
REMARK    8  A    between atoms: N_24  and  C_25
REMARK    9  A    between atoms: N_24  and  C_32
REMARK   10  A    between atoms: C_25  and  C_26
REMARK   11  A    between atoms: C_32  and  C_33
REMARK                            x       y       z     vdW  Elec       q    Type
REMARK                         _______ _______ _______ _____ _____    ______ ____
ROOT
ATOM      1  C   UNL     1       0.779  -0.907  -0.856  0.00  0.00    +0.051 C 
ENDROOT
BRANCH   1   2
ATOM      2  C   UNL     1       0.862  -2.118   0.039  0.00  0.00    -0.049 A 
ATOM      3  C   UNL     1       0.913  -1.959   1.411  0.00  0.00    +0.006 A 
ATOM      4  C   UNL     1       0.985  -3.066   2.236  0.00  0.00    +0.050 A 
ATOM      5  C   UNL     1       1.015  -4.338   1.687  0.00  0.00    +0.166 A 
ATOM      6  C   UNL     1       0.969  -4.498   0.305  0.00  0.00    +0.166 A 
ATOM      7  C   UNL     1       0.892  -3.384  -0.515  0.00  0.00    +0.052 A 
ATOM      8  O   UNL     1       1.012  -5.832   0.018  0.00  0.00    -0.453 OA
ATOM      9  C   UNL     1       0.674  -6.501   1.247  0.00  0.00    +0.466 C 
ATOM     10  O   UNL     1       1.088  -5.572   2.267  0.00  0.00    -0.453 OA
ENDBRANCH   1   2
BRANCH   1  12
ATOM     11  N   UNL     1       3.024  -0.824  -1.891  0.00  0.00    -0.287 N 
ATOM     12  C   UNL     1       2.150  -0.301  -1.008  0.00  0.00    +0.208 C 
ATOM     13  O   UNL     1       2.467   0.658  -0.337  0.00  0.00    -0.277 OA
ATOM     14  H   UNL     1       2.708  -1.636  -2.562  0.00  0.00    +0.155 HD
BRANCH  11  18
ATOM     15  C   UNL     1       6.922   0.634  -2.076  0.00  0.00    -0.045 A 
ATOM     16  C   UNL     1       6.250   0.612  -0.868  0.00  0.00    +0.006 A 
ATOM     17  C   UNL     1       4.958   0.130  -0.803  0.00  0.00    +0.023 A 
ATOM     18  C   UNL     1       4.333  -0.334  -1.953  0.00  0.00    +0.033 A 
ATOM     19  C   UNL     1       5.012  -0.316  -3.164  0.00  0.00    +0.023 A 
ATOM     20  C   UNL     1       6.303   0.173  -3.223  0.00  0.00    +0.006 A 
BRANCH  15  22
ATOM     21  C   UNL     1       9.265   0.061  -2.651  0.00  0.00    +0.012 C 
ATOM     22  C   UNL     1       8.332   1.162  -2.143  0.00  0.00    +0.013 C 
ATOM     23  C   UNL     1       8.384   2.355  -3.099  0.00  0.00    +0.012 C 
ENDBRANCH  15  22
ENDBRANCH  11  18
ENDBRANCH   1  12
BRANCH   1  24
ATOM     24  N   UNL     1      -0.130   0.081  -0.259  0.00  0.00    +0.395 N 
ATOM     25  H   UNL     1       0.314   0.421   0.688  0.00  0.00    -0.079 HD
BRANCH  24  26
ATOM     26  C   UNL     1      -0.282   1.251  -1.134  0.00  0.00    -0.041 C 
BRANCH  26  27
ATOM     27  C   UNL     1      -0.755   0.805  -2.493  0.00  0.00    -0.064 A 
ATOM     28  C   UNL     1       0.165   0.521  -3.486  0.00  0.00    +0.002 A 
ATOM     29  C   UNL     1      -0.269   0.106  -4.731  0.00  0.00    +0.000 A 
ATOM     30  C   UNL     1      -1.622  -0.013  -4.988  0.00  0.00    +0.000 A 
ATOM     31  C   UNL     1      -2.541   0.277  -3.997  0.00  0.00    +0.000 A 
ATOM     32  C   UNL     1      -2.108   0.686  -2.750  0.00  0.00    +0.002 A 
ENDBRANCH  26  27
ENDBRANCH  24  26
BRANCH  24  33
ATOM     33  C   UNL     1      -1.435  -0.521   0.046  0.00  0.00    -0.041 C 
BRANCH  33  34
ATOM     34  C   UNL     1      -2.147   0.318   1.076  0.00  0.00    -0.064 A 
ATOM     35  C   UNL     1      -1.925   0.095   2.422  0.00  0.00    +0.002 A 
ATOM     36  C   UNL     1      -2.573   0.868   3.366  0.00  0.00    +0.000 A 
ATOM     37  C   UNL     1      -3.453   1.856   2.965  0.00  0.00    +0.000 A 
ATOM     38  C   UNL     1      -3.679   2.075   1.619  0.00  0.00    +0.000 A 
ATOM     39  C   UNL     1      -3.026   1.306   0.674  0.00  0.00    +0.002 A 
ENDBRANCH  33  34
ENDBRANCH  24  33
ENDBRANCH   1  24
TORSDOF 9
