REMARK  Name = ZINC20611691
REMARK  6 active torsions:
REMARK  status: ('A' for Active; 'I' for Inactive)
REMARK    1  A    between atoms: C_1  and  C_2
REMARK    2  A    between atoms: C_2  and  C_3
REMARK    3  A    between atoms: C_2  and  C_4
REMARK    4  A    between atoms: C_4  and  C_5
REMARK    5  A    between atoms: N_13  and  C_16
REMARK    6  A    between atoms: C_16  and  C_17
REMARK                            x       y       z     vdW  Elec       q    Type
REMARK                         _______ _______ _______ _____ _____    ______ ____
ROOT
ATOM      1  C   UNL     1      -1.394  -2.039  -0.151  0.00  0.00    +0.068 C 
ATOM      2  C   UNL     1      -2.834  -2.577  -0.017  0.00  0.00    +0.107 C 
ATOM      3  C   UNL     1      -2.905  -3.779  -1.000  0.00  0.00    +0.122 C 
ATOM      4  C   UNL     1      -3.913  -3.325  -2.032  0.00  0.00    +0.229 C 
ATOM      5  O   UNL     1      -4.277  -3.974  -2.989  0.00  0.00    -0.275 OA
ATOM      6  N   UNL     1      -4.341  -2.095  -1.725  0.00  0.00    -0.237 N 
ATOM      7  C   UNL     1      -3.800  -1.571  -0.601  0.00  0.00    +0.227 C 
ATOM      8  O   UNL     1      -4.041  -0.479  -0.134  0.00  0.00    -0.275 OA
ATOM      9  C   UNL     1      -1.506  -3.850  -1.623  0.00  0.00    +0.136 C 
ATOM     10  N   UNL     1      -0.940  -2.486  -1.495  0.00  0.00    -0.295 NA
ATOM     11  C   UNL     1      -1.563  -4.276  -3.063  0.00  0.00    +0.003 A 
ATOM     12  C   UNL     1      -2.175  -3.757  -4.181  0.00  0.00    +0.008 A 
ATOM     13  C   UNL     1      -2.040  -4.393  -5.403  0.00  0.00    +0.000 A 
ATOM     14  C   UNL     1      -1.288  -5.550  -5.497  0.00  0.00    +0.002 A 
ATOM     15  C   UNL     1      -0.672  -6.073  -4.379  0.00  0.00    +0.023 A 
ATOM     16  C   UNL     1      -0.804  -5.440  -3.145  0.00  0.00    +0.039 A 
ATOM     17  N   UNL     1      -0.287  -5.769  -1.890  0.00  0.00    -0.283 N 
ATOM     18  C   UNL     1      -0.653  -4.886  -0.942  0.00  0.00    +0.243 C 
ATOM     19  O   UNL     1      -0.354  -4.919   0.233  0.00  0.00    -0.273 OA
ATOM     20  H   UNL     1      -1.287  -1.872  -2.217  0.00  0.00    +0.123 HD
ATOM     21  H   UNL     1       0.272  -6.544  -1.722  0.00  0.00    +0.155 HD
ENDROOT
BRANCH   1  22
ATOM     22  C   UNL     1      -1.386  -0.511  -0.068  0.00  0.00    +0.022 C 
BRANCH  22  24
ATOM     23  C   UNL     1       0.060   1.524  -0.158  0.00  0.00    +0.007 C 
ATOM     24  C   UNL     1       0.057  -0.005  -0.116  0.00  0.00    -0.016 C 
ATOM     25  C   UNL     1       0.806  -0.482   1.130  0.00  0.00    +0.007 C 
ENDBRANCH  22  24
ENDBRANCH   1  22
BRANCH   6  26
ATOM     26  C   UNL     1      -5.323  -1.371  -2.537  0.00  0.00    +0.153 C 
BRANCH  26  27
ATOM     27  C   UNL     1      -6.712  -1.812  -2.155  0.00  0.00    -0.011 A 
ATOM     28  C   UNL     1      -7.347  -2.804  -2.878  0.00  0.00    +0.006 A 
ATOM     29  C   UNL     1      -8.621  -3.208  -2.528  0.00  0.00    +0.000 A 
ATOM     30  C   UNL     1      -9.262  -2.619  -1.454  0.00  0.00    +0.001 A 
ATOM     31  C   UNL     1      -8.629  -1.627  -0.730  0.00  0.00    +0.020 A 
ATOM     32  C   UNL     1      -7.351  -1.226  -1.077  0.00  0.00    +0.046 A 
ATOM     33 CL   UNL     1      -6.553   0.015  -0.164  0.00  0.00    -0.083 Cl
ENDBRANCH  26  27
ENDBRANCH   6  26
TORSDOF 4
