REMARK  Name = ZINC06599479
REMARK  12 active torsions:
REMARK  status: ('A' for Active; 'I' for Inactive)
REMARK    1  A    between atoms: C_1  and  C_2
REMARK    2  A    between atoms: C_2  and  O_3
REMARK    3  A    between atoms: O_3  and  C_4
REMARK    4  A    between atoms: C_4  and  C_6
REMARK    5  A    between atoms: C_7  and  C_31
REMARK    6  A    between atoms: C_8  and  C_30
REMARK    7  A    between atoms: C_10  and  N_11
REMARK    8  A    between atoms: C_12  and  C_14
REMARK    9  A    between atoms: C_14  and  C_16
REMARK   10  A    between atoms: C_14  and  S_17
REMARK   11  A    between atoms: S_17  and  C_18
REMARK   12  A    between atoms: C_21  and  C_23
REMARK                            x       y       z     vdW  Elec       q    Type
REMARK                         _______ _______ _______ _____ _____    ______ ____
ROOT
ATOM      1  N   UNL     1      -1.222  -2.367   2.488  0.00  0.00    -0.278 N 
ATOM      2  C   UNL     1      -1.240  -3.239   3.515  0.00  0.00    +0.231 C 
ATOM      3  O   UNL     1      -1.290  -4.431   3.297  0.00  0.00    -0.274 OA
ATOM      4  H   UNL     1      -1.182  -1.413   2.662  0.00  0.00    +0.155 HD
ENDROOT
BRANCH   1   9
ATOM      5  C   UNL     1      -1.248  -2.096   0.003  0.00  0.00    +0.091 A 
ATOM      6  C   UNL     1      -1.289  -2.846  -1.230  0.00  0.00    -0.025 A 
ATOM      7  C   UNL     1      -1.340  -4.187  -1.132  0.00  0.00    -0.008 A 
ATOM      8  S   UNL     1      -1.334  -4.470   0.626  0.00  0.00    -0.078 S 
ATOM      9  C   UNL     1      -1.259  -2.832   1.183  0.00  0.00    +0.086 A 
ATOM     10  C   UNL     1      -1.390  -5.204  -2.242  0.00  0.00    +0.052 C 
ATOM     11  C   UNL     1      -1.275  -2.157  -2.570  0.00  0.00    +0.045 C 
BRANCH   5  12
ATOM     12  C   UNL     1      -1.191  -0.633   0.010  0.00  0.00    +0.342 C 
ATOM     13  O   UNL     1      -2.220   0.016   0.023  0.00  0.00    -0.245 OA
BRANCH  12  14
ATOM     14  O   UNL     1       0.002  -0.004   0.002  0.00  0.00    -0.461 OA
BRANCH  14  16
ATOM     15  C   UNL     1       1.418   1.977  -0.001  0.00  0.00    +0.048 C 
ATOM     16  C   UNL     1      -0.018   1.448   0.010  0.00  0.00    +0.229 C 
ENDBRANCH  14  16
ENDBRANCH  12  14
ENDBRANCH   5  12
ENDBRANCH   1   9
BRANCH   2  17
ATOM     17  C   UNL     1      -1.199  -2.734   4.934  0.00  0.00    +0.139 C 
ATOM     18  C   UNL     1       0.242  -2.382   5.309  0.00  0.00    +0.029 C 
BRANCH  17  19
ATOM     19  S   UNL     1      -1.817  -4.018   6.050  0.00  0.00    -0.053 S 
BRANCH  19  20
ATOM     20  C   UNL     1      -1.804  -3.132   7.573  0.00  0.00    +0.278 A 
ATOM     21  N   UNL     1      -1.424  -1.887   7.745  0.00  0.00    -0.101 NA
ATOM     22  N   UNL     1      -1.549  -1.567   8.985  0.00  0.00    -0.106 NA
ATOM     23  C   UNL     1      -2.005  -2.597   9.656  0.00  0.00    +0.249 A 
ATOM     24  O   UNL     1      -2.175  -3.609   8.777  0.00  0.00    -0.411 OA
BRANCH  23  25
ATOM     25  C   UNL     1      -2.281  -2.643  11.106  0.00  0.00    +0.039 A 
ATOM     26  C   UNL     1      -2.772  -3.812  11.690  0.00  0.00    +0.014 A 
ATOM     27  C   UNL     1      -3.024  -3.850  13.045  0.00  0.00    +0.016 A 
ATOM     28  C   UNL     1      -2.800  -2.728  13.826  0.00  0.00    +0.018 A 
ATOM     29  C   UNL     1      -2.317  -1.564  13.252  0.00  0.00    +0.016 A 
ATOM     30  C   UNL     1      -2.057  -1.515  11.898  0.00  0.00    +0.014 A 
ATOM     31 BR   UNL     1      -3.154  -2.787  15.682  0.00  0.00    -0.050 Br
ENDBRANCH  23  25
ENDBRANCH  19  20
ENDBRANCH  17  19
ENDBRANCH   2  17
TORSDOF 8
