REMARK  Name = ZINC02120961
REMARK  15 active torsions:
REMARK  status: ('A' for Active; 'I' for Inactive)
REMARK    1  A    between atoms: C_1  and  C_2
REMARK    2  A    between atoms: C_2  and  C_3
REMARK    3  A    between atoms: C_3  and  C_4
REMARK    4  A    between atoms: C_4  and  N_81
REMARK    5  A    between atoms: C_5  and  C_6
REMARK    6  A    between atoms: C_5  and  N_81
REMARK    7  A    between atoms: C_6  and  C_7
REMARK    8  A    between atoms: C_7  and  C_8
REMARK    9  A    between atoms: C_9  and  C_10
REMARK   10  A    between atoms: C_9  and  N_81
REMARK   11  A    between atoms: C_10  and  C_11
REMARK   12  A    between atoms: C_11  and  N_12
REMARK   13  A    between atoms: C_32  and  C_34
REMARK   14  A    between atoms: C_39  and  O_40
REMARK   15  A    between atoms: O_40  and  C_41
REMARK                            x       y       z     vdW  Elec       q    Type
REMARK                         _______ _______ _______ _____ _____    ______ ____
ROOT
ATOM      1  N   UNL     1      -2.872   8.211  -0.989  0.00  0.00    -0.291 N 
ATOM      2  C   UNL     1      -2.014   7.039  -0.984  0.00  0.00    +0.203 C 
ATOM      3  C   UNL     1      -2.662   5.871  -0.315  0.00  0.00    +0.234 C 
ATOM      4  O   UNL     1      -2.044   4.828  -0.273  0.00  0.00    -0.274 OA
ATOM      5  N   UNL     1      -3.875   5.898   0.242  0.00  0.00    -0.276 N 
ATOM      6  C   UNL     1      -4.686   7.112   0.332  0.00  0.00    +0.167 C 
ATOM      7  C   UNL     1      -4.069   8.256  -0.406  0.00  0.00    +0.237 C 
ATOM      8  O   UNL     1      -4.697   9.290  -0.478  0.00  0.00    -0.274 OA
ATOM      9  C   UNL     1      -4.868   7.488   1.809  0.00  0.00    +0.069 C 
ATOM     10  C   UNL     1      -5.228   6.247   2.585  0.00  0.00    -0.015 A 
ATOM     11  C   UNL     1      -5.822   6.152   3.903  0.00  0.00    +0.003 A 
ATOM     12  C   UNL     1      -6.234   7.117   4.828  0.00  0.00    +0.010 A 
ATOM     13  C   UNL     1      -6.768   6.657   6.007  0.00  0.00    +0.001 A 
ATOM     14  C   UNL     1      -6.897   5.305   6.279  0.00  0.00    +0.002 A 
ATOM     15  C   UNL     1      -6.496   4.330   5.382  0.00  0.00    +0.026 A 
ATOM     16  C   UNL     1      -5.950   4.767   4.177  0.00  0.00    +0.047 A 
ATOM     17  N   UNL     1      -5.465   4.092   3.094  0.00  0.00    -0.356 N 
ATOM     18  H   UNL     1      -5.428   3.127   3.008  0.00  0.00    +0.166 HD
ATOM     19  C   UNL     1      -5.037   4.984   2.147  0.00  0.00    +0.046 A 
ATOM     20  C   UNL     1      -4.436   4.650   0.800  0.00  0.00    +0.157 C 
ENDROOT
BRANCH  20  21
ATOM     21  C   UNL     1      -3.343   3.626   0.967  0.00  0.00    +0.020 A 
ATOM     22  C   UNL     1      -2.567   3.623   2.111  0.00  0.00    +0.009 A 
ATOM     23  C   UNL     1      -1.564   2.685   2.265  0.00  0.00    +0.001 A 
ATOM     24  C   UNL     1      -1.334   1.747   1.275  0.00  0.00    +0.004 A 
ATOM     25  C   UNL     1      -2.106   1.746   0.130  0.00  0.00    +0.046 A 
ATOM     26  C   UNL     1      -3.109   2.691  -0.030  0.00  0.00    +0.125 A 
BRANCH  26  27
ATOM     27  O   UNL     1      -3.867   2.695  -1.158  0.00  0.00    -0.495 OA
ATOM     28  C   UNL     1      -3.575   1.698  -2.140  0.00  0.00    +0.277 C 
ENDBRANCH  26  27
ENDBRANCH  20  21
BRANCH   1  29
ATOM     29  C   UNL     1      -2.394   9.414  -1.675  0.00  0.00    +0.106 C 
BRANCH  29  30
ATOM     30  C   UNL     1      -2.841   9.379  -3.138  0.00  0.00    +0.000 C 
BRANCH  30  31
ATOM     31  C   UNL     1      -2.341  10.635  -3.854  0.00  0.00    -0.077 C 
BRANCH  31  32
ATOM     32  N   UNL     1      -2.762  10.576  -5.269  0.00  0.00    +0.380 N 
ATOM     33  H   UNL     1      -2.476   9.674  -5.665  0.00  0.00    -0.082 HD
BRANCH  32  34
ATOM     34  C   UNL     1      -4.232  10.697  -5.364  0.00  0.00    -0.079 C 
BRANCH  34  35
ATOM     35  C   UNL     1      -4.708  11.991  -4.700  0.00  0.00    -0.019 C 
BRANCH  35  37
ATOM     36  C   UNL     1      -6.706  13.391  -4.159  0.00  0.00    +0.004 C 
ATOM     37  C   UNL     1      -6.230  12.098  -4.824  0.00  0.00    -0.005 C 
ENDBRANCH  35  37
ENDBRANCH  34  35
ENDBRANCH  32  34
BRANCH  32  38
ATOM     38  C   UNL     1      -2.116  11.663  -6.035  0.00  0.00    -0.079 C 
BRANCH  38  39
ATOM     39  C   UNL     1      -2.354  11.425  -7.527  0.00  0.00    -0.019 C 
BRANCH  39  40
ATOM     40  C   UNL     1      -1.607  12.485  -8.339  0.00  0.00    -0.005 C 
ATOM     41  C   UNL     1      -1.846  12.247  -9.831  0.00  0.00    +0.004 C 
ENDBRANCH  39  40
ENDBRANCH  38  39
ENDBRANCH  32  38
ENDBRANCH  31  32
ENDBRANCH  30  31
ENDBRANCH  29  30
ENDBRANCH   1  29
TORSDOF 12
