REMARK  Name = ZINC20884327
REMARK  9 active torsions:
REMARK  status: ('A' for Active; 'I' for Inactive)
REMARK    1  A    between atoms: C_1  and  C_2
REMARK    2  A    between atoms: C_2  and  C_3
REMARK    3  A    between atoms: C_2  and  O_4
REMARK    4  A    between atoms: O_4  and  C_5
REMARK    5  A    between atoms: C_8  and  C_13
REMARK    6  A    between atoms: C_10  and  O_11
REMARK    7  A    between atoms: O_11  and  C_12
REMARK    8  A    between atoms: C_18  and  C_28
REMARK    9  A    between atoms: C_33  and  O_34
REMARK                            x       y       z     vdW  Elec       q    Type
REMARK                         _______ _______ _______ _____ _____    ______ ____
ROOT
ATOM      1  C   UNL     1       0.098  -0.503  -0.009  0.00  0.00    +0.032 C 
ATOM      2  C   UNL     1       1.036  -1.122   1.025  0.00  0.00    +0.059 C 
ATOM      3  C   UNL     1       2.382  -0.417   0.990  0.00  0.00    +0.017 C 
ATOM      4  C   UNL     1       2.458   0.890   0.689  0.00  0.00    +0.037 C 
ATOM      5  C   UNL     1       3.721   1.717   0.641  0.00  0.00    +0.139 C 
ATOM      6  N   UNL     1       4.944   0.945   0.691  0.00  0.00    -0.331 N 
ATOM      7  C   UNL     1       5.278   0.196   1.818  0.00  0.00    +0.049 A 
ATOM      8  C   UNL     1       6.386   0.505   2.591  0.00  0.00    +0.025 A 
ATOM      9  C   UNL     1       6.651  -0.239   3.727  0.00  0.00    +0.002 A 
ATOM     10  C   UNL     1       5.819  -1.281   4.092  0.00  0.00    +0.002 A 
ATOM     11  C   UNL     1       4.720  -1.603   3.313  0.00  0.00    +0.025 A 
ATOM     12  C   UNL     1       4.466  -0.873   2.165  0.00  0.00    +0.052 A 
ATOM     13  N   UNL     1       3.445  -1.210   1.282  0.00  0.00    -0.316 N 
ATOM     14  C   UNL     1       1.286   1.619   0.379  0.00  0.00    +0.163 C 
ATOM     15  O   UNL     1       1.381   2.806   0.134  0.00  0.00    -0.292 OA
ATOM     16  C   UNL     1      -0.070   0.980   0.341  0.00  0.00    +0.088 C 
ATOM     17  H   UNL     1       5.628   0.942  -0.171  0.00  0.00    +0.147 HD
ATOM     18  H   UNL     1       3.541  -2.197   0.808  0.00  0.00    +0.152 HD
ENDROOT
BRANCH   5  19
ATOM     19  C   UNL     1       3.711   2.673   1.806  0.00  0.00    +0.020 A 
ATOM     20  C   UNL     1       2.859   2.456   2.871  0.00  0.00    +0.029 A 
ATOM     21  C   UNL     1       2.850   3.333   3.941  0.00  0.00    +0.042 A 
ATOM     22  C   UNL     1       3.694   4.429   3.946  0.00  0.00    +0.023 A 
ATOM     23  C   UNL     1       4.547   4.650   2.882  0.00  0.00    +0.047 A 
ATOM     24  C   UNL     1       4.562   3.768   1.812  0.00  0.00    +0.122 A 
ATOM     25 CL   UNL     1       1.778   3.058   5.279  0.00  0.00    -0.084 Cl
BRANCH  24  26
ATOM     26  O   UNL     1       5.405   3.980   0.767  0.00  0.00    -0.506 OA
ATOM     27  H   UNL     1       6.080   4.849   0.772  0.00  0.00    +0.292 HD
ENDBRANCH  24  26
ENDBRANCH   5  19
BRANCH   1  31
ATOM     28  C   UNL     1      -3.702  -2.460   0.125  0.00  0.00    +0.162 A 
ATOM     29  C   UNL     1      -3.196  -1.844   1.259  0.00  0.00    +0.050 A 
ATOM     30  C   UNL     1      -1.968  -1.212   1.212  0.00  0.00    +0.008 A 
ATOM     31  C   UNL     1      -1.241  -1.193   0.036  0.00  0.00    -0.040 A 
ATOM     32  C   UNL     1      -1.742  -1.801  -1.100  0.00  0.00    +0.053 A 
ATOM     33  C   UNL     1      -2.971  -2.440  -1.058  0.00  0.00    +0.162 A 
BRANCH  33  34
ATOM     34  O   UNL     1      -3.464  -3.043  -2.174  0.00  0.00    -0.491 OA
ATOM     35  C   UNL     1      -2.659  -2.983  -3.353  0.00  0.00    +0.277 C 
ENDBRANCH  33  34
BRANCH  28  36
ATOM     36  O   UNL     1      -4.911  -3.082   0.170  0.00  0.00    -0.486 OA
BRANCH  36  38
ATOM     37  C   UNL     1      -7.148  -3.150   1.081  0.00  0.00    +0.051 C 
ATOM     38  C   UNL     1      -5.660  -2.958   1.380  0.00  0.00    +0.167 C 
ATOM     39  C   UNL     1      -5.199  -4.024   2.376  0.00  0.00    +0.051 C 
ENDBRANCH  36  38
ENDBRANCH  28  36
ENDBRANCH   1  31
TORSDOF 6
