REMARK  Name = ZINC33810263
REMARK  10 active torsions:
REMARK  status: ('A' for Active; 'I' for Inactive)
REMARK    1  A    between atoms: C_1  and  C_2
REMARK    2  A    between atoms: C_5  and  C_8
REMARK    3  A    between atoms: C_8  and  S_9
REMARK    4  A    between atoms: S_9  and  C_10
REMARK    5  A    between atoms: C_17  and  C_27
REMARK    6  A    between atoms: C_29  and  O_36
REMARK    7  A    between atoms: C_30  and  O_35
REMARK    8  A    between atoms: C_31  and  O_33
REMARK    9  A    between atoms: O_33  and  C_34
REMARK   10  A    between atoms: O_36  and  C_37
REMARK                            x       y       z     vdW  Elec       q    Type
REMARK                         _______ _______ _______ _____ _____    ______ ____
ROOT
ATOM      1  C   UNL     1       4.745   2.710   4.974  0.00  0.00    +0.171 A 
ATOM      2  N   UNL     1       4.310   2.957   3.707  0.00  0.00    -0.208 NA
ATOM      3  C   UNL     1       3.610   1.999   3.022  0.00  0.00    +0.135 A 
ATOM      4  C   UNL     1       3.358   0.803   3.619  0.00  0.00    +0.069 A 
ATOM      5  C   UNL     1       3.823   0.588   4.935  0.00  0.00    +0.258 A 
ATOM      6  O   UNL     1       3.607  -0.476   5.497  0.00  0.00    -0.267 OA
ATOM      7  N   UNL     1       4.504   1.557   5.564  0.00  0.00    -0.302 N 
ATOM      8  C   UNL     1       2.601  -0.274   2.900  0.00  0.00    +0.093 C 
ATOM      9  C   UNL     1       1.846   0.283   1.720  0.00  0.00    +0.024 C 
ATOM     10  C   UNL     1       2.163   1.487   1.198  0.00  0.00    +0.017 C 
ATOM     11  N   UNL     1       3.167   2.241   1.742  0.00  0.00    -0.302 N 
ATOM     12  C   UNL     1       1.426   2.032  -0.001  0.00  0.00    +0.051 C 
ATOM     13  C   UNL     1      -0.019   1.528   0.010  0.00  0.00    +0.014 C 
ATOM     14  C   UNL     1       0.002  -0.004   0.002  0.00  0.00    +0.080 C 
ATOM     15  C   UNL     1       0.804  -0.490   1.178  0.00  0.00    +0.162 C 
ATOM     16  O   UNL     1       0.548  -1.572   1.668  0.00  0.00    -0.292 OA
ATOM     17  H   UNL     1       3.620   3.046   1.146  0.00  0.00    +0.153 HD
ATOM     18  H   UNL     1       4.864   1.378   6.588  0.00  0.00    +0.171 HD
ENDROOT
BRANCH   8  19
ATOM     19  C   UNL     1       3.572  -1.320   2.416  0.00  0.00    -0.028 A 
ATOM     20  C   UNL     1       4.555  -0.979   1.506  0.00  0.00    +0.054 A 
ATOM     21  C   UNL     1       5.454  -1.938   1.062  0.00  0.00    +0.165 A 
ATOM     22  C   UNL     1       5.358  -3.245   1.525  0.00  0.00    +0.201 A 
ATOM     23  C   UNL     1       4.364  -3.584   2.435  0.00  0.00    +0.165 A 
ATOM     24  C   UNL     1       3.473  -2.619   2.878  0.00  0.00    +0.054 A 
BRANCH  23  25
ATOM     25  O   UNL     1       4.266  -4.862   2.891  0.00  0.00    -0.491 OA
ATOM     26  C   UNL     1       3.221  -5.139   3.825  0.00  0.00    +0.277 C 
ENDBRANCH  23  25
BRANCH  22  27
ATOM     27  O   UNL     1       6.234  -4.189   1.087  0.00  0.00    -0.501 OA
ATOM     28  H   UNL     1       6.157  -5.223   1.454  0.00  0.00    +0.292 HD
ENDBRANCH  22  27
BRANCH  21  29
ATOM     29  O   UNL     1       6.424  -1.600   0.171  0.00  0.00    -0.491 OA
ATOM     30  C   UNL     1       6.463  -0.239  -0.261  0.00  0.00    +0.277 C 
ENDBRANCH  21  29
ENDBRANCH   8  19
BRANCH   1  31
ATOM     31  S   UNL     1       5.645   3.954   5.839  0.00  0.00    -0.083 S 
BRANCH  31  32
ATOM     32  C   UNL     1       5.945   3.094   7.403  0.00  0.00    +0.112 C 
BRANCH  32  37
ATOM     33  C   UNL     1       8.932   6.541  10.952  0.00  0.00    +0.044 C 
ATOM     34  C   UNL     1       8.153   5.642  10.027  0.00  0.00    -0.050 A 
ATOM     35  C   UNL     1       6.771   5.668  10.039  0.00  0.00    +0.003 A 
ATOM     36  C   UNL     1       6.057   4.843   9.190  0.00  0.00    +0.005 A 
ATOM     37  C   UNL     1       6.724   3.993   8.329  0.00  0.00    -0.037 A 
ATOM     38  C   UNL     1       8.106   3.964   8.320  0.00  0.00    +0.005 A 
ATOM     39  C   UNL     1       8.821   4.791   9.165  0.00  0.00    +0.003 A 
ENDBRANCH  32  37
ENDBRANCH  31  32
ENDBRANCH   1  31
TORSDOF 7
