REMARK  Name = ZINC11412799
REMARK  13 active torsions:
REMARK  status: ('A' for Active; 'I' for Inactive)
REMARK    1  A    between atoms: C_1  and  C_2
REMARK    2  A    between atoms: C_3  and  C_33
REMARK    3  A    between atoms: C_4  and  C_32
REMARK    4  A    between atoms: C_7  and  C_8
REMARK    5  A    between atoms: C_8  and  C_10
REMARK    6  A    between atoms: C_10  and  C_12
REMARK    7  A    between atoms: C_10  and  O_13
REMARK    8  A    between atoms: O_13  and  C_14
REMARK    9  A    between atoms: C_14  and  C_16
REMARK   10  A    between atoms: C_20  and  S_22
REMARK   11  A    between atoms: S_22  and  N_25
REMARK   12  A    between atoms: C_33  and  O_35
REMARK   13  A    between atoms: O_35  and  C_36
REMARK                            x       y       z     vdW  Elec       q    Type
REMARK                         _______ _______ _______ _____ _____    ______ ____
ROOT
ATOM      1  C   UNL     1       0.949   1.885   2.938  0.00  0.00    +0.340 C 
ATOM      2  O   UNL     1       1.206   2.944   2.401  0.00  0.00    -0.245 OA
ENDROOT
BRANCH   1   3
ATOM      3  C   UNL     1       1.706   1.460   4.132  0.00  0.00    +0.061 A 
ATOM      4  C   UNL     1       1.408   0.246   4.755  0.00  0.00    +0.018 A 
ATOM      5  C   UNL     1       2.123  -0.149   5.865  0.00  0.00    +0.041 A 
ATOM      6  C   UNL     1       3.126   0.663   6.372  0.00  0.00    +0.150 A 
ATOM      7  C   UNL     1       3.421   1.873   5.762  0.00  0.00    +0.141 A 
ATOM      8  C   UNL     1       2.717   2.274   4.646  0.00  0.00    +0.046 A 
ATOM      9  F   UNL     1       3.819   0.275   7.465  0.00  0.00    -0.203 F 
BRANCH   7  10
ATOM     10  S   UNL     1       4.698   2.898   6.412  0.00  0.00    +0.064 S 
ATOM     11  O   UNL     1       5.830   2.062   6.607  0.00  0.00    -0.153 OA
ATOM     12  O   UNL     1       4.740   4.061   5.596  0.00  0.00    -0.153 OA
BRANCH  10  13
ATOM     13  N   UNL     1       4.210   3.392   7.916  0.00  0.00    -0.176 NA
ATOM     14  C   UNL     1       3.442   4.633   8.083  0.00  0.00    +0.109 C 
ATOM     15  C   UNL     1       2.159   4.312   8.866  0.00  0.00    +0.017 C 
ATOM     16  C   UNL     1       2.530   3.621  10.180  0.00  0.00    +0.003 C 
ATOM     17  C   UNL     1       3.253   2.306   9.880  0.00  0.00    +0.017 C 
ATOM     18  C   UNL     1       4.543   2.601   9.108  0.00  0.00    +0.109 C 
ENDBRANCH  10  13
ENDBRANCH   7  10
ENDBRANCH   1   3
BRANCH   1  19
ATOM     19  O   UNL     1      -0.027   1.098   2.443  0.00  0.00    -0.450 OA
BRANCH  19  20
ATOM     20  C   UNL     1      -0.729   1.579   1.267  0.00  0.00    +0.246 C 
ATOM     21  C   UNL     1      -0.013   1.086   0.008  0.00  0.00    +0.061 C 
BRANCH  20  22
ATOM     22  C   UNL     1      -2.143   1.058   1.278  0.00  0.00    +0.219 C 
ATOM     23  O   UNL     1      -2.448   0.146   2.019  0.00  0.00    -0.287 OA
BRANCH  22  30
ATOM     24  C   UNL     1      -5.114   0.159   1.117  0.00  0.00    +0.047 C 
ATOM     25  C   UNL     1      -4.437   1.252   0.332  0.00  0.00    -0.008 A 
ATOM     26  C   UNL     1      -5.035   2.085  -0.637  0.00  0.00    +0.083 A 
ATOM     27  C   UNL     1      -4.052   2.942  -1.102  0.00  0.00    +0.028 A 
ATOM     28  N   UNL     1      -2.906   2.670  -0.461  0.00  0.00    -0.355 N 
ATOM     29  H   UNL     1      -2.063   3.129  -0.598  0.00  0.00    +0.166 HD
ATOM     30  C   UNL     1      -3.115   1.631   0.423  0.00  0.00    +0.090 A 
ATOM     31  C   UNL     1      -4.240   4.009  -2.150  0.00  0.00    +0.064 C 
BRANCH  26  32
ATOM     32  C   UNL     1      -6.441   2.050  -1.073  0.00  0.00    +0.341 C 
ATOM     33  O   UNL     1      -7.271   2.729  -0.502  0.00  0.00    -0.245 OA
BRANCH  32  34
ATOM     34  O   UNL     1      -6.807   1.264  -2.105  0.00  0.00    -0.464 OA
ATOM     35  C   UNL     1      -8.210   1.280  -2.480  0.00  0.00    +0.280 C 
ENDBRANCH  32  34
ENDBRANCH  26  32
ENDBRANCH  22  30
ENDBRANCH  20  22
ENDBRANCH  19  20
ENDBRANCH   1  19
TORSDOF 9
