REMARK  Name = ZINC36357223
REMARK  7 active torsions:
REMARK  status: ('A' for Active; 'I' for Inactive)
REMARK    1  A    between atoms: C_6  and  N_7
REMARK    2  A    between atoms: C_8  and  C_10
REMARK    3  A    between atoms: C_16  and  C_18
REMARK    4  A    between atoms: C_21  and  C_25
REMARK    5  A    between atoms: C_25  and  C_27
REMARK    6  A    between atoms: C_25  and  N_30
REMARK    7  A    between atoms: C_34  and  C_36
REMARK                            x       y       z     vdW  Elec       q    Type
REMARK                         _______ _______ _______ _____ _____    ______ ____
ROOT
ATOM      1  C   UNL     1      -0.129   1.575   0.100  0.00  0.00    +0.025 A 
ATOM      2  C   UNL     1       1.032   2.316   0.079  0.00  0.00    +0.028 A 
ATOM      3  C   UNL     1       2.264   1.683   0.211  0.00  0.00    +0.047 A 
ATOM      4  C   UNL     1       2.312   0.285   0.366  0.00  0.00    +0.004 A 
ATOM      5  C   UNL     1       1.130  -0.456   0.387  0.00  0.00    +0.033 A 
ATOM      6  C   UNL     1      -0.084   0.191   0.254  0.00  0.00    +0.034 A 
ATOM      7  C   UNL     1       3.732  -0.061   0.476  0.00  0.00    -0.025 A 
ATOM      8  C   UNL     1       4.424   1.085   0.387  0.00  0.00    +0.086 A 
ATOM      9  N   UNL     1       3.565   2.138   0.228  0.00  0.00    -0.360 N 
ATOM     10  H   UNL     1       3.832   3.067   0.141  0.00  0.00    +0.165 HD
ENDROOT
BRANCH   6  11
ATOM     11  N   UNL     1      -1.275  -0.548   0.273  0.00  0.00    -0.285 N 
ATOM     12  C   UNL     1      -2.327  -0.150  -0.470  0.00  0.00    +0.221 C 
ATOM     13  O   UNL     1      -2.214   0.791  -1.227  0.00  0.00    -0.275 OA
ATOM     14  H   UNL     1      -1.342  -1.345   0.821  0.00  0.00    +0.155 HD
BRANCH  12  15
ATOM     15  C   UNL     1      -3.644  -0.873  -0.359  0.00  0.00    +0.093 C 
ATOM     16  C   UNL     1      -4.792   0.139  -0.394  0.00  0.00    +0.040 C 
ATOM     17  C   UNL     1      -4.918   0.731  -1.767  0.00  0.00    -0.030 C 
ATOM     18  C   UNL     1      -4.393   0.213  -2.831  0.00  0.00    -0.030 C 
ATOM     19  C   UNL     1      -3.576  -1.046  -2.838  0.00  0.00    +0.042 C 
ATOM     20  C   UNL     1      -3.805  -1.836  -1.543  0.00  0.00    +0.118 C 
BRANCH  20  21
ATOM     21  C   UNL     1      -2.793  -2.947  -1.433  0.00  0.00    +0.360 C 
ATOM     22  O   UNL     1      -3.111  -4.091  -1.713  0.00  0.00    -0.246 OA
ATOM     23  O   UNL     1      -1.657  -2.703  -1.064  0.00  0.00    -0.246 OA
ENDBRANCH  20  21
ENDBRANCH  12  15
ENDBRANCH   6  11
BRANCH   7  24
ATOM     24  C   UNL     1       4.305  -1.443   0.656  0.00  0.00    +0.081 C 
BRANCH  24  25
ATOM     25  N   UNL     1       5.621  -1.346   1.302  0.00  0.00    +0.399 N 
ATOM     26  C   UNL     1       6.179  -2.701   1.500  0.00  0.00    -0.076 C 
ATOM     27  C   UNL     1       6.930  -2.626   2.853  0.00  0.00    -0.020 C 
ATOM     28  C   UNL     1       6.000  -1.697   3.676  0.00  0.00    -0.008 C 
ATOM     29  C   UNL     1       5.481  -0.699   2.620  0.00  0.00    +0.020 C 
ATOM     30  H   UNL     1       6.246  -0.805   0.723  0.00  0.00    -0.079 HD
BRANCH  29  31
ATOM     31  C   UNL     1       6.301   0.564   2.660  0.00  0.00    +0.197 C 
ATOM     32  O   UNL     1       6.944   0.901   1.689  0.00  0.00    -0.278 OA
ATOM     33  N   UNL     1       6.320   1.320   3.776  0.00  0.00    -0.331 N 
ATOM     34  H   UNL     1       5.806   1.050   4.553  0.00  0.00    +0.145 HD
ATOM     35  H   UNL     1       6.848   2.133   3.802  0.00  0.00    +0.145 HD
ENDBRANCH  29  31
ENDBRANCH  24  25
BRANCH  24  36
ATOM     36  C   UNL     1       4.454  -2.105  -0.689  0.00  0.00    +0.347 C 
ATOM     37  O   UNL     1       5.489  -1.978  -1.320  0.00  0.00    -0.248 OA
ATOM     38  O   UNL     1       3.538  -2.766  -1.148  0.00  0.00    -0.248 OA
ENDBRANCH  24  36
ENDBRANCH   7  24
TORSDOF 7
