REMARK  Name = ZINC19521487
REMARK  7 active torsions:
REMARK  status: ('A' for Active; 'I' for Inactive)
REMARK    1  A    between atoms: C_1  and  C_2
REMARK    2  A    between atoms: C_2  and  C_3
REMARK    3  A    between atoms: C_4  and  C_27
REMARK    4  A    between atoms: C_6  and  C_11
REMARK    5  A    between atoms: C_11  and  N_13
REMARK    6  A    between atoms: C_17  and  C_19
REMARK    7  A    between atoms: C_19  and  C_20
REMARK                            x       y       z     vdW  Elec       q    Type
REMARK                         _______ _______ _______ _____ _____    ______ ____
ROOT
ATOM      1  N   UNL     1      -3.659   3.075  -0.048  0.00  0.00    -0.152 NA
ATOM      2  C   UNL     1      -4.862   3.763  -0.137  0.00  0.00    +0.163 A 
ATOM      3  N   UNL     1      -5.074   5.065  -0.139  0.00  0.00    -0.342 N 
ATOM      4  C   UNL     1      -6.293   5.559  -0.235  0.00  0.00    +0.095 A 
ATOM      5  C   UNL     1      -7.335   4.696  -0.322  0.00  0.00    +0.013 A 
ATOM      6  S   UNL     1      -6.474   3.131  -0.266  0.00  0.00    -0.057 S 
ATOM      7  H   UNL     1      -4.225   5.761  -0.060  0.00  0.00    +0.167 HD
ENDROOT
BRANCH   1   8
ATOM      8  C   UNL     1      -2.499   3.755   0.046  0.00  0.00    +0.275 C 
ATOM      9  O   UNL     1      -2.511   4.967   0.148  0.00  0.00    -0.268 OA
BRANCH   8  13
ATOM     10  C   UNL     1       1.159   1.649  -0.011  0.00  0.00    +0.022 A 
ATOM     11  C   UNL     1       1.182   3.006  -0.017  0.00  0.00    -0.030 A 
ATOM     12  C   UNL     1      -0.012   3.727   0.001  0.00  0.00    +0.023 A 
ATOM     13  C   UNL     1      -1.219   3.031   0.025  0.00  0.00    +0.103 A 
ATOM     14  C   UNL     1      -1.192   1.613   0.025  0.00  0.00    +0.261 A 
ATOM     15  O   UNL     1      -2.234   0.981   0.041  0.00  0.00    -0.267 OA
ATOM     16  N   UNL     1      -0.010   0.967   0.012  0.00  0.00    -0.325 N 
ATOM     17  H   UNL     1      -0.005  -0.134   0.020  0.00  0.00    +0.169 HD
ATOM     18  C   UNL     1       2.500   3.736  -0.043  0.00  0.00    +0.045 C 
BRANCH  10  20
ATOM     19  C   UNL     1       2.862   0.527   1.399  0.00  0.00    +0.010 C 
ATOM     20  C   UNL     1       2.460   0.888  -0.032  0.00  0.00    +0.050 C 
ENDBRANCH  10  20
ENDBRANCH   8  13
ENDBRANCH   1   8
BRANCH   5  21
ATOM     21  C   UNL     1      -8.810   4.978  -0.435  0.00  0.00    +0.080 C 
BRANCH  21  22
ATOM     22  C   UNL     1      -9.192   5.082  -1.889  0.00  0.00    -0.024 A 
ATOM     23  C   UNL     1      -9.784   4.008  -2.527  0.00  0.00    +0.005 A 
ATOM     24  C   UNL     1     -10.134   4.103  -3.861  0.00  0.00    +0.000 A 
ATOM     25  C   UNL     1      -9.893   5.272  -4.558  0.00  0.00    +0.001 A 
ATOM     26  C   UNL     1      -9.301   6.347  -3.921  0.00  0.00    +0.020 A 
ATOM     27  C   UNL     1      -8.955   6.254  -2.584  0.00  0.00    +0.044 A 
ATOM     28 CL   UNL     1      -8.219   7.606  -1.782  0.00  0.00    -0.083 Cl
ENDBRANCH  21  22
ENDBRANCH   5  21
TORSDOF 5
