REMARK  Name = ZINC16919439
REMARK  13 active torsions:
REMARK  status: ('A' for Active; 'I' for Inactive)
REMARK    1  A    between atoms: C_1  and  C_2
REMARK    2  A    between atoms: C_2  and  C_3
REMARK    3  A    between atoms: C_3  and  C_5
REMARK    4  A    between atoms: C_3  and  O_7
REMARK    5  A    between atoms: O_7  and  C_8
REMARK    6  A    between atoms: C_11  and  C_17
REMARK    7  A    between atoms: C_13  and  O_14
REMARK    8  A    between atoms: O_14  and  C_15
REMARK    9  A    between atoms: C_15  and  C_16
REMARK   10  A    between atoms: N_21  and  C_31
REMARK   11  A    between atoms: N_23  and  C_24
REMARK   12  A    between atoms: C_27  and  C_29
REMARK   13  A    between atoms: C_31  and  C_32
REMARK                            x       y       z     vdW  Elec       q    Type
REMARK                         _______ _______ _______ _____ _____    ______ ____
ROOT
ATOM      1  C   UNL     1       0.349  -0.448   2.536  0.00  0.00    +0.163 A 
ATOM      2  C   UNL     1       0.512   0.905   2.800  0.00  0.00    +0.050 A 
ATOM      3  C   UNL     1       1.607   1.580   2.309  0.00  0.00    +0.012 A 
ATOM      4  C   UNL     1       2.561   0.900   1.541  0.00  0.00    -0.020 A 
ATOM      5  C   UNL     1       2.395  -0.464   1.274  0.00  0.00    +0.057 A 
ATOM      6  C   UNL     1       1.293  -1.132   1.771  0.00  0.00    +0.162 A 
ENDROOT
BRANCH   4   7
ATOM      7  C   UNL     1       3.729   1.617   1.015  0.00  0.00    +0.028 C 
ATOM      8  C   UNL     1       3.600   2.893   0.570  0.00  0.00    +0.078 C 
ATOM      9  C   UNL     1       2.378   3.697   0.374  0.00  0.00    +0.259 C 
ATOM     10  O   UNL     1       1.274   3.246   0.617  0.00  0.00    -0.269 OA
ATOM     11  N   UNL     1       2.538   4.931  -0.072  0.00  0.00    -0.246 N 
ATOM     12  C   UNL     1       3.794   5.421  -0.348  0.00  0.00    +0.171 C 
ATOM     13  N   UNL     1       4.127   6.613  -0.800  0.00  0.00    -0.198 NA
ATOM     14  S   UNL     1       4.862   4.049   0.056  0.00  0.00    -0.049 S 
BRANCH  13  15
ATOM     15  C   UNL     1       3.161   7.495  -1.165  0.00  0.00    +0.217 A 
ATOM     16  N   UNL     1       2.480   8.375  -0.431  0.00  0.00    -0.121 NA
ATOM     17  N   UNL     1       1.606   9.127  -0.942  0.00  0.00    -0.145 NA
ATOM     18  C   UNL     1       1.311   9.091  -2.226  0.00  0.00    +0.101 A 
ATOM     19  S   UNL     1       2.442   7.816  -2.774  0.00  0.00    -0.031 S 
ATOM     20  C   UNL     1       0.310   9.899  -3.011  0.00  0.00    +0.075 C 
ENDBRANCH  13  15
BRANCH  11  21
ATOM     21  C   UNL     1       1.365   5.784  -0.281  0.00  0.00    +0.112 C 
ATOM     22  C   UNL     1       1.082   6.584   0.992  0.00  0.00    +0.025 C 
ENDBRANCH  11  21
ENDBRANCH   4   7
BRANCH   1  23
ATOM     23  O   UNL     1      -0.734  -1.108   3.023  0.00  0.00    -0.474 OA
BRANCH  23  24
ATOM     24  C   UNL     1      -1.601  -0.378   3.893  0.00  0.00    +0.285 C 
BRANCH  24  25
ATOM     25  C   UNL     1      -2.083  -1.283   4.998  0.00  0.00    +0.396 C 
ATOM     26  O   UNL     1      -1.720  -2.435   5.036  0.00  0.00    -0.242 OA
ATOM     27  O   UNL     1      -2.914  -0.810   5.939  0.00  0.00    -0.242 OA
ENDBRANCH  24  25
BRANCH  24  29
ATOM     28  C   UNL     1      -2.325   1.155   2.058  0.00  0.00    +0.008 C 
ATOM     29  C   UNL     1      -2.802   0.140   3.099  0.00  0.00    +0.053 C 
ENDBRANCH  24  29
ENDBRANCH  23  24
ENDBRANCH   1  23
BRANCH   6  30
ATOM     30  O   UNL     1       1.129  -2.458   1.515  0.00  0.00    -0.489 OA
BRANCH  30  31
ATOM     31  C   UNL     1       2.135  -3.095   0.725  0.00  0.00    +0.226 C 
ATOM     32  C   UNL     1       1.782  -4.572   0.543  0.00  0.00    +0.048 C 
ENDBRANCH  30  31
ENDBRANCH   6  30
TORSDOF 9
