REMARK  Name = ZINC09714695
REMARK  6 active torsions:
REMARK  status: ('A' for Active; 'I' for Inactive)
REMARK    1  A    between atoms: C_4  and  S_7
REMARK    2  A    between atoms: S_7  and  N_10
REMARK    3  A    between atoms: N_10  and  C_11
REMARK    4  A    between atoms: C_16  and  C_17
REMARK    5  A    between atoms: N_19  and  C_20
REMARK    6  A    between atoms: C_28  and  C_29
REMARK                            x       y       z     vdW  Elec       q    Type
REMARK                         _______ _______ _______ _____ _____    ______ ____
ROOT
ATOM      1  C   UNL     1       3.650  -1.336  -4.435  0.00  0.00    +0.250 C 
ATOM      2  O   UNL     1       3.722  -2.396  -3.842  0.00  0.00    -0.270 OA
ATOM      3  N   UNL     1       2.934  -1.248  -5.573  0.00  0.00    -0.278 N 
ATOM      4  H   UNL     1       2.924  -0.419  -6.077  0.00  0.00    +0.155 HD
ENDROOT
BRANCH   3   5
ATOM      5  C   UNL     1       2.210  -2.344  -6.025  0.00  0.00    +0.092 A 
ATOM      6  C   UNL     1       1.663  -3.438  -5.213  0.00  0.00    +0.042 A 
ATOM      7  C   UNL     1       1.673  -3.734  -3.850  0.00  0.00    +0.013 A 
ATOM      8  C   UNL     1       1.054  -4.866  -3.397  0.00  0.00    +0.001 A 
ATOM      9  C   UNL     1       0.415  -5.720  -4.285  0.00  0.00    +0.004 A 
ATOM     10  C   UNL     1       0.394  -5.445  -5.635  0.00  0.00    +0.047 A 
ATOM     11  C   UNL     1       1.018  -4.300  -6.118  0.00  0.00    +0.138 A 
ATOM     12  O   UNL     1       1.159  -3.781  -7.354  0.00  0.00    -0.448 OA
ATOM     13  C   UNL     1       1.856  -2.623  -7.317  0.00  0.00    +0.211 A 
BRANCH  13  14
ATOM     14  C   UNL     1       2.183  -1.798  -8.478  0.00  0.00    +0.279 C 
ATOM     15  O   UNL     1       2.901  -0.822  -8.348  0.00  0.00    -0.267 OA
ATOM     16  N   UNL     1       1.691  -2.116  -9.691  0.00  0.00    -0.323 N 
ATOM     17  H   UNL     1       1.120  -2.893  -9.794  0.00  0.00    +0.145 HD
ATOM     18  H   UNL     1       1.909  -1.568 -10.462  0.00  0.00    +0.145 HD
ENDBRANCH  13  14
ENDBRANCH   3   5
BRANCH   1  24
ATOM     19  C   UNL     1       5.092  -0.235  -2.723  0.00  0.00    +0.060 A 
ATOM     20  C   UNL     1       5.748   0.891  -2.240  0.00  0.00    +0.025 A 
ATOM     21  C   UNL     1       5.660   2.087  -2.921  0.00  0.00    +0.002 A 
ATOM     22  C   UNL     1       4.919   2.178  -4.088  0.00  0.00    +0.001 A 
ATOM     23  C   UNL     1       4.261   1.073  -4.583  0.00  0.00    +0.015 A 
ATOM     24  C   UNL     1       4.345  -0.148  -3.908  0.00  0.00    +0.059 A 
BRANCH  19  25
ATOM     25  N   UNL     1       5.180  -1.441  -2.040  0.00  0.00    -0.216 N 
ATOM     26  H   UNL     1       5.215  -2.276  -2.532  0.00  0.00    +0.174 HD
BRANCH  25  27
ATOM     27  S   UNL     1       5.226  -1.454  -0.384  0.00  0.00    +0.072 S 
ATOM     28  O   UNL     1       6.278  -0.579  -0.000  0.00  0.00    -0.150 OA
ATOM     29  O   UNL     1       5.185  -2.817   0.013  0.00  0.00    -0.150 OA
BRANCH  27  33
ATOM     30  C   UNL     1       1.378   0.434   1.074  0.00  0.00    +0.000 A 
ATOM     31  C   UNL     1       2.491   1.221   0.846  0.00  0.00    +0.002 A 
ATOM     32  C   UNL     1       3.666   0.645   0.400  0.00  0.00    +0.029 A 
ATOM     33  C   UNL     1       3.728  -0.719   0.183  0.00  0.00    +0.108 A 
ATOM     34  C   UNL     1       2.615  -1.506   0.412  0.00  0.00    +0.029 A 
ATOM     35  C   UNL     1       1.440  -0.930   0.858  0.00  0.00    +0.002 A 
ENDBRANCH  27  33
ENDBRANCH  25  27
ENDBRANCH  19  25
ENDBRANCH   1  24
TORSDOF 6
