REMARK  Name = ZINC63658874
REMARK  9 active torsions:
REMARK  status: ('A' for Active; 'I' for Inactive)
REMARK    1  A    between atoms: C_1  and  C_2
REMARK    2  A    between atoms: C_4  and  C_13
REMARK    3  A    between atoms: C_13  and  C_14
REMARK    4  A    between atoms: C_14  and  N_15
REMARK    5  A    between atoms: N_15  and  C_16
REMARK    6  A    between atoms: N_15  and  C_23
REMARK    7  A    between atoms: C_16  and  C_17
REMARK    8  A    between atoms: C_23  and  N_25
REMARK    9  A    between atoms: N_25  and  C_26
REMARK                            x       y       z     vdW  Elec       q    Type
REMARK                         _______ _______ _______ _____ _____    ______ ____
ROOT
ATOM      1  N   UNL     1      -5.008  -1.011  -1.457  0.00  0.00    -0.306 N 
ENDROOT
BRANCH   1   2
ATOM      2  C   UNL     1      -5.824   0.051  -1.313  0.00  0.00    +0.137 C 
ATOM      3  S   UNL     1      -5.848   0.920   0.162  0.00  0.00    -0.018 S 
BRANCH   2   4
ATOM      4  N   UNL     1      -6.622   0.430  -2.332  0.00  0.00    -0.297 N 
ATOM      5  H   UNL     1      -6.551  -0.010  -3.193  0.00  0.00    +0.154 HD
BRANCH   4   6
ATOM      6  C   UNL     1      -7.553   1.459  -2.146  0.00  0.00    +0.033 A 
ATOM      7  C   UNL     1      -7.737   2.417  -3.135  0.00  0.00    +0.025 A 
ATOM      8  C   UNL     1      -8.657   3.430  -2.950  0.00  0.00    +0.022 A 
ATOM      9  C   UNL     1      -9.393   3.493  -1.779  0.00  0.00    +0.041 A 
ATOM     10  C   UNL     1      -9.210   2.541  -0.792  0.00  0.00    +0.022 A 
ATOM     11  C   UNL     1      -8.296   1.522  -0.975  0.00  0.00    +0.025 A 
ATOM     12 CL   UNL     1     -10.547   4.770  -1.549  0.00  0.00    -0.084 Cl
ENDBRANCH   4   6
ENDBRANCH   2   4
ENDBRANCH   1   2
BRANCH   1  13
ATOM     13  C   UNL     1      -4.141  -1.423  -0.350  0.00  0.00    +0.111 C 
BRANCH  13  14
ATOM     14  C   UNL     1      -2.797  -0.700  -0.458  0.00  0.00    +0.052 C 
BRANCH  14  17
ATOM     15  C   UNL     1      -0.478   0.859   1.184  0.00  0.00    +0.035 C 
ATOM     16  C   UNL     1      -0.494  -0.653   0.953  0.00  0.00    +0.103 C 
ATOM     17  C   UNL     1      -1.905  -1.124   0.680  0.00  0.00    -0.037 C 
ATOM     18  C   UNL     1      -2.205  -2.001   1.664  0.00  0.00    +0.001 A 
ATOM     19  C   UNL     1      -3.405  -2.794   1.958  0.00  0.00    +0.030 A 
ATOM     20  C   UNL     1      -3.407  -3.604   3.042  0.00  0.00    +0.042 A 
ATOM     21  C   UNL     1      -2.294  -3.704   3.890  0.00  0.00    +0.022 A 
ATOM     22  C   UNL     1      -1.156  -3.008   3.684  0.00  0.00    +0.027 A 
ATOM     23  C   UNL     1      -1.044  -2.126   2.574  0.00  0.00    +0.043 A 
ATOM     24  N   UNL     1      -0.063  -1.354   2.168  0.00  0.00    -0.378 N 
ATOM     25 CL   UNL     1      -4.824  -4.543   3.393  0.00  0.00    -0.084 Cl
ATOM     26  H   UNL     1       0.802  -1.262   2.597  0.00  0.00    +0.160 HD
ENDBRANCH  14  17
ENDBRANCH  13  14
ENDBRANCH   1  13
BRANCH   1  27
ATOM     27  C   UNL     1      -4.988  -1.754  -2.719  0.00  0.00    +0.162 C 
BRANCH  27  28
ATOM     28  C   UNL     1      -6.007  -2.863  -2.666  0.00  0.00    +0.058 A 
ATOM     29  C   UNL     1      -7.269  -2.658  -3.192  0.00  0.00    +0.025 A 
ATOM     30  C   UNL     1      -8.199  -3.684  -3.138  0.00  0.00    +0.003 A 
ATOM     31  C   UNL     1      -7.824  -4.884  -2.554  0.00  0.00    +0.020 A 
ATOM     32  C   UNL     1      -6.545  -5.017  -2.048  0.00  0.00    +0.111 A 
ATOM     33  N   UNL     1      -5.684  -4.020  -2.122  0.00  0.00    -0.258 NA
ENDBRANCH  27  28
ENDBRANCH   1  27
TORSDOF 8
