REMARK  Name = ZINC39541421
REMARK  10 active torsions:
REMARK  status: ('A' for Active; 'I' for Inactive)
REMARK    1  A    between atoms: C_1  and  C_2
REMARK    2  A    between atoms: C_2  and  C_3
REMARK    3  A    between atoms: C_3  and  C_4
REMARK    4  A    between atoms: C_6  and  C_24
REMARK    5  A    between atoms: C_11  and  C_23
REMARK    6  A    between atoms: N_12  and  C_13
REMARK    7  A    between atoms: C_13  and  C_14
REMARK    8  A    between atoms: N_26  and  C_27
REMARK    9  A    between atoms: C_27  and  C_28
REMARK   10  A    between atoms: C_28  and  C_29
REMARK                            x       y       z     vdW  Elec       q    Type
REMARK                         _______ _______ _______ _____ _____    ______ ____
ROOT
ATOM      1  C   UNL     1       0.763  -2.041   1.233  0.00  0.00    +0.093 C 
ATOM      2  C   UNL     1       1.407  -2.557   2.526  0.00  0.00    +0.165 C 
ATOM      3  C   UNL     1       2.881  -2.240   2.500  0.00  0.00    +0.171 C 
ATOM      4  O   UNL     1       3.483  -2.084   3.544  0.00  0.00    -0.292 OA
ATOM      5  C   UNL     1       3.561  -2.124   1.282  0.00  0.00    +0.065 C 
ATOM      6  C   UNL     1       2.910  -2.272   0.103  0.00  0.00    +0.007 C 
ATOM      7  N   UNL     1       1.565  -2.520   0.098  0.00  0.00    -0.325 N 
ATOM      8  C   UNL     1       3.664  -2.161  -1.197  0.00  0.00    +0.060 C 
ENDROOT
BRANCH   2   9
ATOM      9  C   UNL     1       1.211  -4.048   2.626  0.00  0.00    +0.225 C 
ATOM     10  O   UNL     1       0.616  -4.642   1.752  0.00  0.00    -0.275 OA
ATOM     11  N   UNL     1       1.698  -4.721   3.688  0.00  0.00    -0.314 N 
ATOM     12  H   UNL     1       2.174  -4.246   4.387  0.00  0.00    +0.149 HD
BRANCH  11  13
ATOM     13  C   UNL     1       1.508  -6.171   3.785  0.00  0.00    +0.112 C 
BRANCH  13  14
ATOM     14  C   UNL     1       2.151  -6.683   5.075  0.00  0.00    +0.093 C 
BRANCH  14  15
ATOM     15  C   UNL     1       1.955  -8.174   5.176  0.00  0.00    +0.110 A 
ATOM     16  N   UNL     1       0.805  -8.781   5.118  0.00  0.00    -0.232 NA
ATOM     17  C   UNL     1       0.989 -10.120   5.242  0.00  0.00    +0.089 A 
ATOM     18  C   UNL     1       0.122 -11.215   5.249  0.00  0.00    +0.030 A 
ATOM     19  C   UNL     1       0.621 -12.479   5.395  0.00  0.00    +0.002 A 
ATOM     20  C   UNL     1       1.985 -12.688   5.537  0.00  0.00    +0.002 A 
ATOM     21  C   UNL     1       2.860 -11.623   5.534  0.00  0.00    +0.028 A 
ATOM     22  C   UNL     1       2.371 -10.332   5.386  0.00  0.00    +0.066 A 
ATOM     23  N   UNL     1       2.955  -9.082   5.335  0.00  0.00    -0.342 N 
ATOM     24  H   UNL     1       3.903  -8.888   5.402  0.00  0.00    +0.167 HD
ENDBRANCH  14  15
ENDBRANCH  13  14
ENDBRANCH  11  13
ENDBRANCH   2   9
BRANCH   1  25
ATOM     25  C   UNL     1       0.742  -0.511   1.242  0.00  0.00    +0.023 C 
BRANCH  25  27
ATOM     26  C   UNL     1      -0.019   1.526   0.010  0.00  0.00    +0.004 C 
ATOM     27  C   UNL     1       0.002  -0.004   0.002  0.00  0.00    -0.002 C 
ENDBRANCH  25  27
ENDBRANCH   1  25
BRANCH   7  28
ATOM     28  C   UNL     1       0.940  -3.247  -1.010  0.00  0.00    +0.140 C 
BRANCH  28  29
ATOM     29  C   UNL     1       0.500  -2.268  -2.068  0.00  0.00    -0.027 A 
ATOM     30  C   UNL     1      -0.766  -1.715  -2.012  0.00  0.00    +0.009 A 
ATOM     31  C   UNL     1      -1.174  -0.816  -2.980  0.00  0.00    +0.050 A 
ATOM     32  C   UNL     1      -0.315  -0.467  -4.009  0.00  0.00    +0.166 A 
ATOM     33  C   UNL     1       0.961  -1.024  -4.065  0.00  0.00    +0.167 A 
ATOM     34  C   UNL     1       1.365  -1.920  -3.089  0.00  0.00    +0.054 A 
ATOM     35  O   UNL     1       1.606  -0.527  -5.160  0.00  0.00    -0.453 OA
ATOM     36  C   UNL     1       0.573   0.024  -5.998  0.00  0.00    +0.466 C 
ATOM     37  O   UNL     1      -0.468   0.379  -5.069  0.00  0.00    -0.453 OA
ENDBRANCH  28  29
ENDBRANCH   7  28
TORSDOF 8
