REMARK  Name = ZINC11996353
REMARK  8 active torsions:
REMARK  status: ('A' for Active; 'I' for Inactive)
REMARK    1  A    between atoms: C_1  and  C_2
REMARK    2  A    between atoms: C_5  and  C_34
REMARK    3  A    between atoms: C_6  and  C_8
REMARK    4  A    between atoms: C_8  and  N_68
REMARK    5  A    between atoms: C_11  and  C_14
REMARK    6  A    between atoms: C_14  and  C_28
REMARK    7  A    between atoms: N_17  and  C_21
REMARK    8  A    between atoms: C_21  and  C_22
REMARK                            x       y       z     vdW  Elec       q    Type
REMARK                         _______ _______ _______ _____ _____    ______ ____
ROOT
ATOM      1  C   UNL     1       0.443  -2.138   8.123  0.00  0.00    +0.157 C 
ATOM      2  C   UNL     1       1.387  -2.193   9.308  0.00  0.00    +0.253 C 
ATOM      3  O   UNL     1       2.579  -2.413   9.285  0.00  0.00    -0.272 OA
ATOM      4  N   UNL     1       0.625  -1.949  10.393  0.00  0.00    -0.221 N 
ATOM      5  C   UNL     1      -0.656  -1.749  10.061  0.00  0.00    +0.310 C 
ATOM      6  O   UNL     1      -1.533  -1.511  10.867  0.00  0.00    -0.252 OA
ATOM      7  N   UNL     1      -0.864  -1.841   8.735  0.00  0.00    -0.280 N 
ATOM      8  H   UNL     1      -1.709  -1.732   8.272  0.00  0.00    +0.152 HD
ENDROOT
BRANCH   1  11
ATOM      9  C   UNL     1       0.186   0.271   5.131  0.00  0.00    -0.078 C 
ATOM     10  C   UNL     1      -0.199  -0.886   6.056  0.00  0.00    -0.012 C 
ATOM     11  C   UNL     1       0.853  -1.021   7.161  0.00  0.00    +0.024 C 
ATOM     12  C   UNL     1       0.953   0.302   7.924  0.00  0.00    -0.012 C 
ATOM     13  C   UNL     1       1.304   1.425   6.946  0.00  0.00    -0.078 C 
ATOM     14  N   UNL     1       0.241   1.519   5.923  0.00  0.00    +0.382 N 
ATOM     15  H   UNL     1      -0.662   1.656   6.392  0.00  0.00    -0.081 HD
BRANCH  14  16
ATOM     16  C   UNL     1       0.498   2.670   5.032  0.00  0.00    -0.043 C 
BRANCH  16  22
ATOM     17  C   UNL     1      -0.300   1.536   0.224  0.00  0.00    +0.044 C 
ATOM     18  C   UNL     1      -0.810   2.050   1.545  0.00  0.00    -0.050 A 
ATOM     19  C   UNL     1      -2.126   2.456   1.668  0.00  0.00    +0.003 A 
ATOM     20  C   UNL     1      -2.595   2.923   2.882  0.00  0.00    +0.004 A 
ATOM     21  C   UNL     1      -1.745   2.994   3.970  0.00  0.00    -0.049 A 
ATOM     22  C   UNL     1      -0.428   2.593   3.846  0.00  0.00    -0.061 A 
ATOM     23  C   UNL     1       0.039   2.121   2.633  0.00  0.00    +0.005 A 
ATOM     24  C   UNL     1      -2.255   3.508   5.292  0.00  0.00    +0.044 C 
ENDBRANCH  16  22
ENDBRANCH  14  16
ENDBRANCH   1  11
BRANCH   1  25
ATOM     25  C   UNL     1       0.409  -3.465   7.410  0.00  0.00    +0.074 A 
ATOM     26  C   UNL     1      -0.084  -4.579   8.063  0.00  0.00    +0.026 A 
ATOM     27  C   UNL     1      -0.112  -5.795   7.397  0.00  0.00    +0.003 A 
ATOM     28  C   UNL     1       0.360  -5.845   6.094  0.00  0.00    +0.020 A 
ATOM     29  C   UNL     1       0.839  -4.689   5.506  0.00  0.00    +0.111 A 
ATOM     30  N   UNL     1       0.845  -3.549   6.168  0.00  0.00    -0.257 NA
ENDBRANCH   1  25
BRANCH   4  31
ATOM     31  C   UNL     1       1.135  -1.909  11.765  0.00  0.00    +0.149 C 
BRANCH  31  32
ATOM     32  C   UNL     1       1.571  -0.482  12.105  0.00  0.00    +0.136 C 
ATOM     33  C   UNL     1       2.216  -0.452  13.508  0.00  0.00    +0.035 C 
ATOM     34  C   UNL     1       1.674   0.882  14.091  0.00  0.00    +0.031 C 
ATOM     35  C   UNL     1       0.263   0.930  13.454  0.00  0.00    +0.160 C 
ATOM     36  O   UNL     1       0.427   0.380  12.137  0.00  0.00    -0.375 OA
ENDBRANCH  31  32
ENDBRANCH   4  31
TORSDOF 6
