REMARK  Name = ZINC09059705
REMARK  11 active torsions:
REMARK  status: ('A' for Active; 'I' for Inactive)
REMARK    1  A    between atoms: C_1  and  C_2
REMARK    2  A    between atoms: C_12  and  C_13
REMARK    3  A    between atoms: C_13  and  C_14
REMARK    4  A    between atoms: C_14  and  C_15
REMARK    5  A    between atoms: N_17  and  C_18
REMARK    6  A    between atoms: C_18  and  C_19
REMARK    7  A    between atoms: C_19  and  C_20
REMARK    8  A    between atoms: C_28  and  C_29
REMARK    9  A    between atoms: C_29  and  C_30
REMARK   10  A    between atoms: C_29  and  C_31
REMARK   11  A    between atoms: C_29  and  C_32
REMARK                            x       y       z     vdW  Elec       q    Type
REMARK                         _______ _______ _______ _____ _____    ______ ____
ROOT
ATOM      1  C   UNL     1      -0.018   1.503   0.010  0.00  0.00    +0.045 C 
ATOM      2  C   UNL     1       0.002  -0.004   0.002  0.00  0.00    -0.030 A 
ATOM      3  C   UNL     1       0.006  -0.750  -1.260  0.00  0.00    +0.022 A 
ATOM      4  C   UNL     1      -0.008  -0.081  -2.484  0.00  0.00    +0.023 A 
ATOM      5  C   UNL     1      -0.003  -0.817  -3.661  0.00  0.00    +0.025 A 
ATOM      6  C   UNL     1       0.016  -2.226  -3.622  0.00  0.00    +0.139 A 
ATOM      7  C   UNL     1       0.031  -2.884  -2.401  0.00  0.00    +0.093 A 
ATOM      8  C   UNL     1       0.026  -2.160  -1.222  0.00  0.00    +0.143 A 
ATOM      9  O   UNL     1       0.040  -2.796  -0.029  0.00  0.00    -0.422 OA
ATOM     10  C   UNL     1       0.036  -2.118   1.129  0.00  0.00    +0.341 A 
ATOM     11  O   UNL     1       0.049  -2.736   2.178  0.00  0.00    -0.245 OA
ATOM     12  C   UNL     1       0.023  -0.707   1.163  0.00  0.00    +0.041 A 
ATOM     13  O   UNL     1       0.017  -2.658  -4.900  0.00  0.00    -0.463 OA
ATOM     14  C   UNL     1      -0.001  -1.623  -5.758  0.00  0.00    +0.200 A 
ATOM     15  C   UNL     1      -0.014  -0.464  -5.087  0.00  0.00    +0.003 A 
ENDROOT
BRANCH  15  16
ATOM     16  C   UNL     1      -0.035   0.923  -5.676  0.00  0.00    -0.009 C 
ATOM     17  C   UNL     1      -0.041   0.828  -7.204  0.00  0.00    +0.015 C 
ATOM     18  C   UNL     1      -1.292   1.658  -5.206  0.00  0.00    +0.015 C 
ATOM     19  C   UNL     1       1.206   1.690  -5.218  0.00  0.00    +0.015 C 
ENDBRANCH  15  16
BRANCH  12  20
ATOM     20  C   UNL     1       0.025   0.017   2.485  0.00  0.00    +0.052 C 
BRANCH  20  21
ATOM     21  C   UNL     1      -1.408   0.132   3.006  0.00  0.00    +0.100 C 
BRANCH  21  22
ATOM     22  C   UNL     1      -1.406   0.855   4.328  0.00  0.00    +0.213 C 
ATOM     23  O   UNL     1      -0.360   1.241   4.806  0.00  0.00    -0.276 OA
ATOM     24  N   UNL     1      -2.565   1.074   4.979  0.00  0.00    -0.315 N 
ATOM     25  H   UNL     1      -3.402   0.766   4.596  0.00  0.00    +0.149 HD
BRANCH  24  26
ATOM     26  C   UNL     1      -2.563   1.778   6.264  0.00  0.00    +0.110 C 
BRANCH  26  27
ATOM     27  C   UNL     1      -3.996   1.893   6.785  0.00  0.00    +0.073 C 
BRANCH  27  28
ATOM     28  C   UNL     1      -3.994   2.617   8.107  0.00  0.00    +0.035 A 
ATOM     29  C   UNL     1      -3.781   2.072   9.320  0.00  0.00    +0.105 A 
ATOM     30  N   UNL     1      -3.862   3.050  10.234  0.00  0.00    -0.352 N 
ATOM     31  C   UNL     1      -4.117   4.180   9.634  0.00  0.00    +0.171 A 
ATOM     32  N   UNL     1      -4.201   3.955   8.305  0.00  0.00    -0.350 N 
ATOM     33  H   UNL     1      -4.377   4.618   7.619  0.00  0.00    +0.166 HD
ATOM     34  H   UNL     1      -3.750   2.935  11.191  0.00  0.00    +0.166 HD
ENDBRANCH  27  28
ENDBRANCH  26  27
ENDBRANCH  24  26
ENDBRANCH  21  22
ENDBRANCH  20  21
ENDBRANCH  12  20
TORSDOF 7
