REMARK  Name = ZINC39531450
REMARK  12 active torsions:
REMARK  status: ('A' for Active; 'I' for Inactive)
REMARK    1  A    between atoms: C_1  and  C_2
REMARK    2  A    between atoms: C_2  and  O_3
REMARK    3  A    between atoms: O_3  and  N_4
REMARK    4  A    between atoms: N_4  and  C_5
REMARK    5  A    between atoms: C_5  and  C_6
REMARK    6  A    between atoms: C_6  and  C_8
REMARK    7  A    between atoms: C_6  and  N_21
REMARK    8  A    between atoms: C_11  and  C_14
REMARK    9  A    between atoms: C_14  and  C_15
REMARK   10  A    between atoms: C_25  and  S_28
REMARK   11  A    between atoms: S_28  and  O_31
REMARK   12  A    between atoms: O_31  and  C_32
REMARK                            x       y       z     vdW  Elec       q    Type
REMARK                         _______ _______ _______ _____ _____    ______ ____
ROOT
ATOM      1  C   UNL     1       1.552  -3.876   2.397  0.00  0.00    +0.103 C 
ENDROOT
BRANCH   1   2
ATOM      2  N   UNL     1       0.199  -4.410   2.189  0.00  0.00    -0.296 NA
ATOM      3  C   UNL     1       0.182  -5.873   2.326  0.00  0.00    +0.066 C 
ATOM      4  C   UNL     1      -1.252  -6.382   2.163  0.00  0.00    -0.064 C 
ATOM      5  N   UNL     1      -1.762  -5.991   0.842  0.00  0.00    +0.398 N 
ATOM      6  C   UNL     1      -1.762  -4.527   0.729  0.00  0.00    +0.130 C 
ATOM      7  C   UNL     1      -0.333  -4.002   0.881  0.00  0.00    +0.095 C 
ATOM      8  H   UNL     1      -1.171  -6.383   0.124  0.00  0.00    -0.083 HD
ATOM      9  H   UNL     1      -2.703  -6.337   0.729  0.00  0.00    -0.083 HD
BRANCH   6  10
ATOM     10  S   UNL     1      -2.413  -4.046  -0.895  0.00  0.00    +0.109 S 
ATOM     11  O   UNL     1      -2.588  -2.637  -0.954  0.00  0.00    -0.138 OA
ATOM     12  O   UNL     1      -1.716  -4.733  -1.925  0.00  0.00    -0.138 OA
BRANCH  10  13
ATOM     13  O   UNL     1      -3.825  -4.614  -0.935  0.00  0.00    -0.347 OA
BRANCH  13  14
ATOM     14  C   UNL     1      -4.720  -3.922  -0.182  0.00  0.00    +0.156 A 
ATOM     15  C   UNL     1      -4.920  -4.262   1.148  0.00  0.00    +0.048 A 
ATOM     16  C   UNL     1      -5.831  -3.557   1.910  0.00  0.00    +0.004 A 
ATOM     17  C   UNL     1      -6.544  -2.514   1.349  0.00  0.00    +0.000 A 
ATOM     18  C   UNL     1      -6.347  -2.174   0.023  0.00  0.00    +0.004 A 
ATOM     19  C   UNL     1      -5.433  -2.872  -0.742  0.00  0.00    +0.048 A 
ENDBRANCH  13  14
ENDBRANCH  10  13
ENDBRANCH   6  10
ENDBRANCH   1   2
BRANCH   1  20
ATOM     20  C   UNL     1       2.032  -4.249   3.776  0.00  0.00    -0.029 A 
ATOM     21  C   UNL     1       1.159  -4.207   4.847  0.00  0.00    +0.005 A 
ATOM     22  C   UNL     1       1.599  -4.548   6.112  0.00  0.00    +0.004 A 
ATOM     23  C   UNL     1       2.913  -4.932   6.306  0.00  0.00    -0.043 A 
ATOM     24  C   UNL     1       3.786  -4.974   5.235  0.00  0.00    +0.004 A 
ATOM     25  C   UNL     1       3.344  -4.637   3.969  0.00  0.00    +0.005 A 
BRANCH  23  26
ATOM     26  C   UNL     1       3.393  -5.303   7.685  0.00  0.00    +0.070 C 
BRANCH  26  27
ATOM     27  C   UNL     1       3.194  -6.780   7.906  0.00  0.00    -0.043 A 
ATOM     28  C   UNL     1       2.007  -7.245   8.440  0.00  0.00    +0.004 A 
ATOM     29  C   UNL     1       1.823  -8.600   8.643  0.00  0.00    +0.000 A 
ATOM     30  C   UNL     1       2.827  -9.491   8.311  0.00  0.00    +0.000 A 
ATOM     31  C   UNL     1       4.014  -9.026   7.775  0.00  0.00    +0.000 A 
ATOM     32  C   UNL     1       4.196  -7.671   7.569  0.00  0.00    +0.004 A 
ENDBRANCH  26  27
ENDBRANCH  23  26
ENDBRANCH   1  20
BRANCH   1  33
ATOM     33  C   UNL     1       1.526  -2.353   2.260  0.00  0.00    +0.134 C 
BRANCH  33  34
ATOM     34  N   UNL     1       2.891  -1.826   2.390  0.00  0.00    -0.199 NA
ATOM     35  H   UNL     1       3.489  -2.189   1.662  0.00  0.00    +0.154 HD
BRANCH  34  36
ATOM     36  O   UNL     1       2.891  -0.363   2.388  0.00  0.00    -0.300 OA
BRANCH  36  38
ATOM     37  C   UNL     1       4.071   1.743   2.498  0.00  0.00    +0.036 C 
ATOM     38  C   UNL     1       4.191   0.218   2.511  0.00  0.00    +0.182 C 
ENDBRANCH  36  38
ENDBRANCH  34  36
ENDBRANCH  33  34
ENDBRANCH   1  33
TORSDOF 11
