REMARK  Name = ZINC39894269
REMARK  10 active torsions:
REMARK  status: ('A' for Active; 'I' for Inactive)
REMARK    1  A    between atoms: C_1  and  C_2
REMARK    2  A    between atoms: C_2  and  C_3
REMARK    3  A    between atoms: C_3  and  C_4
REMARK    4  A    between atoms: C_4  and  N_5
REMARK    5  A    between atoms: C_9  and  N_10
REMARK    6  A    between atoms: N_10  and  C_11
REMARK    7  A    between atoms: C_14  and  N_21
REMARK    8  A    between atoms: C_15  and  C_17
REMARK    9  A    between atoms: C_24  and  C_30
REMARK   10  A    between atoms: C_25  and  C_28
REMARK                            x       y       z     vdW  Elec       q    Type
REMARK                         _______ _______ _______ _____ _____    ______ ____
ROOT
ATOM      1  N   UNL     1       1.477  -2.853  -2.357  0.00  0.00    -0.234 N 
ATOM      2  C   UNL     1       0.670  -2.873  -3.433  0.00  0.00    +0.255 C 
ATOM      3  O   UNL     1      -0.453  -2.411  -3.357  0.00  0.00    -0.269 OA
ATOM      4  C   UNL     1       1.139  -3.447  -4.702  0.00  0.00    +0.055 C 
ATOM      5  C   UNL     1       0.306  -3.467  -5.816  0.00  0.00    +0.085 C 
ATOM      6  C   UNL     1       2.446  -3.979  -4.775  0.00  0.00    -0.015 C 
ATOM      7  C   UNL     1       3.246  -3.941  -3.643  0.00  0.00    +0.118 C 
ATOM      8  C   UNL     1       2.725  -3.350  -2.409  0.00  0.00    +0.264 C 
ATOM      9  O   UNL     1       3.429  -3.312  -1.416  0.00  0.00    -0.269 OA
ATOM     10  C   UNL     1       2.960  -4.577  -6.059  0.00  0.00    +0.046 C 
ENDROOT
BRANCH   5  11
ATOM     11  N   UNL     1       0.807  -3.784  -7.025  0.00  0.00    -0.320 N 
ATOM     12  H   UNL     1       1.763  -3.905  -7.137  0.00  0.00    +0.152 HD
BRANCH  11  13
ATOM     13  C   UNL     1      -0.050  -3.940  -8.117  0.00  0.00    +0.032 A 
ATOM     14  C   UNL     1      -1.419  -3.762  -7.959  0.00  0.00    +0.025 A 
ATOM     15  C   UNL     1      -2.263  -3.916  -9.041  0.00  0.00    +0.035 A 
ATOM     16  C   UNL     1      -1.748  -4.248 -10.280  0.00  0.00    +0.138 A 
ATOM     17  C   UNL     1      -0.386  -4.427 -10.441  0.00  0.00    +0.087 A 
ATOM     18  C   UNL     1       0.465  -4.268  -9.365  0.00  0.00    +0.038 A 
BRANCH  17  19
ATOM     19  C   UNL     1       0.171  -4.790 -11.794  0.00  0.00    +0.420 C 
ATOM     20  F   UNL     1       1.561  -4.916 -11.707  0.00  0.00    -0.166 F 
ATOM     21  F   UNL     1      -0.382  -6.003 -12.216  0.00  0.00    -0.166 F 
ATOM     22  F   UNL     1      -0.150  -3.786 -12.714  0.00  0.00    -0.166 F 
ENDBRANCH  17  19
BRANCH  16  23
ATOM     23  N   UNL     1      -2.656  -4.413 -11.438  0.00  0.00    +0.057 N 
ATOM     24  O   UNL     1      -3.847  -4.257 -11.299  0.00  0.00    -0.126 OA
ATOM     25  O   UNL     1      -2.207  -4.704 -12.522  0.00  0.00    -0.126 OA
ENDBRANCH  16  23
ENDBRANCH  11  13
ENDBRANCH   5  11
BRANCH   7  26
ATOM     26  C   UNL     1       4.576  -4.472  -3.682  0.00  0.00    +0.105 C 
ATOM     27  N   UNL     1       5.630  -4.893  -3.713  0.00  0.00    -0.191 NA
ENDBRANCH   7  26
BRANCH   1  28
ATOM     28  C   UNL     1       0.987  -2.274  -1.104  0.00  0.00    +0.117 C 
BRANCH  28  29
ATOM     29  C   UNL     1       1.314  -0.780  -1.071  0.00  0.00    +0.019 C 
BRANCH  29  31
ATOM     30  C   UNL     1       1.129   1.319   0.272  0.00  0.00    +0.004 C 
ATOM     31  C   UNL     1       0.802  -0.175   0.238  0.00  0.00    -0.002 C 
ENDBRANCH  29  31
ENDBRANCH  28  29
ENDBRANCH   1  28
TORSDOF 8
