REMARK  Name = ZINC59366254
REMARK  6 active torsions:
REMARK  status: ('A' for Active; 'I' for Inactive)
REMARK    1  A    between atoms: C_10  and  N_11
REMARK    2  A    between atoms: N_11  and  C_12
REMARK    3  A    between atoms: C_12  and  N_14
REMARK    4  A    between atoms: C_15  and  C_17
REMARK    5  A    between atoms: C_20  and  C_22
REMARK    6  A    between atoms: C_27  and  N_28
REMARK                            x       y       z     vdW  Elec       q    Type
REMARK                         _______ _______ _______ _____ _____    ______ ____
ROOT
ATOM      1  N   UNL     1       7.198   0.138   0.136  0.00  0.00    -0.261 N 
ATOM      2  C   UNL     1       8.373  -0.516   0.223  0.00  0.00    +0.285 C 
ATOM      3  O   UNL     1       8.395  -1.732   0.217  0.00  0.00    -0.266 OA
ATOM      4  H   UNL     1       7.181   1.108   0.141  0.00  0.00    +0.157 HD
ENDROOT
BRANCH   2   5
ATOM      5  C   UNL     1       9.624   0.238   0.325  0.00  0.00    +0.190 A 
ATOM      6  C   UNL     1      10.889  -0.301   0.414  0.00  0.00    +0.055 A 
ATOM      7  C   UNL     1      11.781   0.772   0.492  0.00  0.00    +0.051 A 
ATOM      8  C   UNL     1      11.037   1.917   0.449  0.00  0.00    +0.138 A 
ATOM      9  O   UNL     1       9.740   1.583   0.343  0.00  0.00    -0.450 OA
BRANCH   8  10
ATOM     10  C   UNL     1      11.570   3.293   0.504  0.00  0.00    +0.047 A 
ATOM     11  C   UNL     1      12.480   3.654   1.500  0.00  0.00    +0.014 A 
ATOM     12  C   UNL     1      12.974   4.940   1.546  0.00  0.00    +0.001 A 
ATOM     13  C   UNL     1      12.570   5.873   0.607  0.00  0.00    +0.002 A 
ATOM     14  C   UNL     1      11.670   5.523  -0.383  0.00  0.00    +0.033 A 
ATOM     15  C   UNL     1      11.171   4.238  -0.444  0.00  0.00    +0.137 A 
BRANCH  15  16
ATOM     16  N   UNL     1      10.212   3.863  -1.507  0.00  0.00    +0.057 N 
ATOM     17  O   UNL     1       9.868   4.683  -2.327  0.00  0.00    -0.126 OA
ATOM     18  O   UNL     1       9.773   2.738  -1.556  0.00  0.00    -0.126 OA
ENDBRANCH  15  16
ENDBRANCH   8  10
ENDBRANCH   2   5
BRANCH   1  19
ATOM     19  C   UNL     1       6.046  -0.556   0.042  0.00  0.00    +0.141 C 
ATOM     20  S   UNL     1       6.077  -2.268   0.034  0.00  0.00    -0.018 S 
BRANCH  19  21
ATOM     21  N   UNL     1       4.871   0.098  -0.045  0.00  0.00    -0.296 N 
ATOM     22  H   UNL     1       4.858   1.065  -0.120  0.00  0.00    +0.154 HD
BRANCH  21  32
ATOM     23  C   UNL     1       0.589   0.278  -2.710  0.00  0.00    +0.001 A 
ATOM     24  C   UNL     1       1.777   1.004  -2.745  0.00  0.00    +0.001 A 
ATOM     25  C   UNL     1       2.792   0.728  -1.880  0.00  0.00    +0.010 A 
ATOM     26  C   UNL     1       2.642  -0.302  -0.939  0.00  0.00    +0.003 A 
ATOM     27  C   UNL     1       1.434  -1.041  -0.902  0.00  0.00    -0.016 A 
ATOM     28  C   UNL     1       0.408  -0.728  -1.811  0.00  0.00    +0.008 A 
ATOM     29  C   UNL     1       1.282  -2.072   0.040  0.00  0.00    +0.008 A 
ATOM     30  C   UNL     1       2.292  -2.354   0.909  0.00  0.00    +0.002 A 
ATOM     31  C   UNL     1       3.483  -1.635   0.883  0.00  0.00    +0.024 A 
ATOM     32  C   UNL     1       3.672  -0.617  -0.027  0.00  0.00    +0.040 A 
ENDBRANCH  21  32
ENDBRANCH  19  21
ENDBRANCH   1  19
TORSDOF 6
