REMARK  Name = ZINC10355032
REMARK  8 active torsions:
REMARK  status: ('A' for Active; 'I' for Inactive)
REMARK    1  A    between atoms: C_1  and  C_2
REMARK    2  A    between atoms: C_8  and  C_10
REMARK    3  A    between atoms: C_11  and  C_33
REMARK    4  A    between atoms: N_12  and  C_25
REMARK    5  A    between atoms: C_16  and  C_18
REMARK    6  A    between atoms: C_21  and  O_24
REMARK    7  A    between atoms: C_30  and  O_31
REMARK    8  A    between atoms: O_31  and  C_32
REMARK                            x       y       z     vdW  Elec       q    Type
REMARK                         _______ _______ _______ _____ _____    ______ ____
ROOT
ATOM      1  C   UNL     1       1.430  -0.450  -0.053  0.00  0.00    +0.056 C 
ATOM      2  C   UNL     1       2.397   0.469   0.159  0.00  0.00    +0.025 C 
ATOM      3  N   UNL     1       2.089   1.789   0.332  0.00  0.00    -0.252 N 
ATOM      4  C   UNL     1       0.839   2.269   0.308  0.00  0.00    +0.142 C 
ATOM      5  S   UNL     1       0.592   3.948   0.539  0.00  0.00    -0.018 S 
ATOM      6  N   UNL     1      -0.231   1.474   0.107  0.00  0.00    -0.315 N 
ATOM      7  C   UNL     1      -0.006   0.033  -0.091  0.00  0.00    +0.139 C 
ATOM      8  C   UNL     1       3.838   0.032   0.204  0.00  0.00    +0.062 C 
ATOM      9  H   UNL     1      -1.127   1.844   0.089  0.00  0.00    +0.149 HD
ENDROOT
BRANCH   1  17
ATOM     10  C   UNL     1       2.550  -7.190  -0.880  0.00  0.00    +0.089 C 
ATOM     11  C   UNL     1       2.607  -5.769  -1.379  0.00  0.00    +0.136 A 
ATOM     12  C   UNL     1       2.225  -4.660  -0.707  0.00  0.00    +0.091 A 
ATOM     13  C   UNL     1       2.485  -3.601  -1.617  0.00  0.00    +0.168 A 
ATOM     14  N   UNL     1       2.969  -4.158  -2.696  0.00  0.00    -0.063 NA
ATOM     15  O   UNL     1       3.047  -5.359  -2.578  0.00  0.00    -0.358 OA
ATOM     16  N   UNL     1       2.262  -2.241  -1.405  0.00  0.00    -0.264 N 
ATOM     17  C   UNL     1       1.748  -1.818  -0.233  0.00  0.00    +0.249 C 
ATOM     18  O   UNL     1       1.557  -2.611   0.670  0.00  0.00    -0.270 OA
ATOM     19  H   UNL     1       2.477  -1.600  -2.100  0.00  0.00    +0.157 HD
ENDBRANCH   1  17
BRANCH   7  20
ATOM     20  C   UNL     1      -0.589  -0.349  -1.427  0.00  0.00    -0.022 A 
ATOM     21  C   UNL     1      -0.342   0.437  -2.538  0.00  0.00    +0.009 A 
ATOM     22  C   UNL     1      -0.871   0.086  -3.765  0.00  0.00    +0.046 A 
ATOM     23  C   UNL     1      -1.659  -1.050  -3.880  0.00  0.00    +0.117 A 
ATOM     24  C   UNL     1      -1.909  -1.834  -2.763  0.00  0.00    +0.046 A 
ATOM     25  C   UNL     1      -1.374  -1.482  -1.539  0.00  0.00    +0.009 A 
BRANCH  23  26
ATOM     26  O   UNL     1      -2.184  -1.395  -5.085  0.00  0.00    -0.507 OA
ATOM     27  H   UNL     1      -3.056  -1.014  -5.258  0.00  0.00    +0.292 HD
ENDBRANCH  23  26
ENDBRANCH   7  20
BRANCH   3  28
ATOM     28  C   UNL     1       3.140   2.692   0.548  0.00  0.00    +0.082 A 
ATOM     29  C   UNL     1       3.756   3.312  -0.529  0.00  0.00    +0.027 A 
ATOM     30  C   UNL     1       4.788   4.205  -0.314  0.00  0.00    +0.002 A 
ATOM     31  C   UNL     1       5.217   4.474   0.973  0.00  0.00    +0.004 A 
ATOM     32  C   UNL     1       4.612   3.856   2.051  0.00  0.00    +0.047 A 
ATOM     33  C   UNL     1       3.573   2.963   1.844  0.00  0.00    +0.142 A 
BRANCH  33  34
ATOM     34  O   UNL     1       2.977   2.353   2.903  0.00  0.00    -0.493 OA
ATOM     35  C   UNL     1       3.473   2.680   4.203  0.00  0.00    +0.277 C 
ENDBRANCH  33  34
ENDBRANCH   3  28
TORSDOF 5
