REMARK  Name = ZINC41359256
REMARK  9 active torsions:
REMARK  status: ('A' for Active; 'I' for Inactive)
REMARK    1  A    between atoms: C_1  and  O_2
REMARK    2  A    between atoms: O_2  and  C_3
REMARK    3  A    between atoms: C_6  and  C_9
REMARK    4  A    between atoms: C_11  and  O_12
REMARK    5  A    between atoms: C_21  and  C_23
REMARK    6  A    between atoms: C_23  and  C_24
REMARK    7  A    between atoms: C_24  and  C_25
REMARK    8  A    between atoms: C_27  and  O_30
REMARK    9  A    between atoms: O_30  and  C_31
REMARK                            x       y       z     vdW  Elec       q    Type
REMARK                         _______ _______ _______ _____ _____    ______ ____
ROOT
ATOM      1  C   UNL     1       2.195  -2.622   4.547  0.00  0.00    +0.139 A 
ATOM      2  C   UNL     1       2.379  -3.991   4.511  0.00  0.00    +0.093 A 
ATOM      3  C   UNL     1       3.176  -4.607   5.475  0.00  0.00    +0.131 A 
ATOM      4  C   UNL     1       3.777  -3.796   6.471  0.00  0.00    +0.059 A 
ATOM      5  C   UNL     1       4.590  -4.363   7.465  0.00  0.00    +0.017 A 
ATOM      6  C   UNL     1       5.158  -3.569   8.412  0.00  0.00    +0.024 A 
ATOM      7  C   UNL     1       4.937  -2.182   8.401  0.00  0.00    +0.037 A 
ATOM      8  C   UNL     1       4.131  -1.604   7.418  0.00  0.00    +0.070 A 
ATOM      9  C   UNL     1       3.549  -2.404   6.451  0.00  0.00    +0.141 A 
ATOM     10  O   UNL     1       2.772  -1.862   5.490  0.00  0.00    -0.455 OA
ATOM     11  N   UNL     1       5.512  -1.396   9.354  0.00  0.00    -0.285 N 
ATOM     12  C   UNL     1       6.509  -1.863  10.079  0.00  0.00    +0.218 C 
ATOM     13  O   UNL     1       6.997  -2.948   9.818  0.00  0.00    -0.275 OA
ATOM     14  H   UNL     1       5.188  -0.494   9.498  0.00  0.00    +0.155 HD
ENDROOT
BRANCH   1  18
ATOM     15  C   UNL     1      -0.235  -0.779   1.595  0.00  0.00    +0.120 A 
ATOM     16  C   UNL     1       0.368  -0.004   2.579  0.00  0.00    +0.046 A 
ATOM     17  C   UNL     1       1.157  -0.597   3.538  0.00  0.00    +0.015 A 
ATOM     18  C   UNL     1       1.351  -1.983   3.523  0.00  0.00    +0.018 A 
ATOM     19  C   UNL     1       0.741  -2.759   2.531  0.00  0.00    +0.015 A 
ATOM     20  C   UNL     1      -0.050  -2.157   1.579  0.00  0.00    +0.046 A 
BRANCH  15  22
ATOM     21  C   UNL     1      -1.160   1.230   0.727  0.00  0.00    +0.277 C 
ATOM     22  O   UNL     1      -1.012  -0.190   0.651  0.00  0.00    -0.495 OA
ENDBRANCH  15  22
ENDBRANCH   1  18
BRANCH   3  23
ATOM     23  O   UNL     1       3.371  -5.944   5.461  0.00  0.00    -0.506 OA
ATOM     24  H   UNL     1       2.916  -6.400   4.740  0.00  0.00    +0.292 HD
ENDBRANCH   3  23
BRANCH  12  25
ATOM     25  C   UNL     1       7.045  -1.054  11.232  0.00  0.00    +0.104 C 
BRANCH  25  26
ATOM     26  C   UNL     1       8.190  -1.817  11.902  0.00  0.00    +0.086 C 
BRANCH  26  27
ATOM     27  C   UNL     1       8.726  -1.008  13.055  0.00  0.00    +0.141 A 
ATOM     28  C   UNL     1       8.298  -1.069  14.328  0.00  0.00    +0.114 A 
ATOM     29  C   UNL     1       9.058  -0.155  15.091  0.00  0.00    +0.255 A 
ATOM     30  N   UNL     1       9.909   0.428  14.288  0.00  0.00    -0.040 NA
ATOM     31  O   UNL     1       9.717  -0.105  12.990  0.00  0.00    -0.356 OA
BRANCH  29  32
ATOM     32  O   UNL     1       8.928   0.077  16.421  0.00  0.00    -0.478 OA
ATOM     33  C   UNL     1       9.802   1.049  16.999  0.00  0.00    +0.279 C 
ENDBRANCH  29  32
ENDBRANCH  26  27
ENDBRANCH  25  26
ENDBRANCH  12  25
TORSDOF 7
