REMARK  Name = ZINC08861246
REMARK  6 active torsions:
REMARK  status: ('A' for Active; 'I' for Inactive)
REMARK    1  A    between atoms: C_2  and  C_3
REMARK    2  A    between atoms: C_3  and  N_4
REMARK    3  A    between atoms: C_5  and  C_30
REMARK    4  A    between atoms: C_8  and  S_9
REMARK    5  A    between atoms: S_9  and  C_10
REMARK    6  A    between atoms: C_11  and  C_23
REMARK                            x       y       z     vdW  Elec       q    Type
REMARK                         _______ _______ _______ _____ _____    ______ ____
ROOT
ATOM      1  C   UNL     1      -5.736   4.629   0.578  0.00  0.00    +0.088 A 
ATOM      2  C   UNL     1      -5.969   3.745  -0.463  0.00  0.00    +0.012 A 
ATOM      3  C   UNL     1      -7.256   3.829  -1.172  0.00  0.00    +0.007 A 
ATOM      4  C   UNL     1      -7.554   2.965  -2.228  0.00  0.00    +0.012 A 
ATOM      5  C   UNL     1      -8.755   3.070  -2.871  0.00  0.00    +0.021 A 
ATOM      6  C   UNL     1      -9.682   4.029  -2.484  0.00  0.00    +0.043 A 
ATOM      7  C   UNL     1      -9.407   4.891  -1.442  0.00  0.00    +0.046 A 
ATOM      8  C   UNL     1      -8.190   4.802  -0.775  0.00  0.00    +0.051 A 
ATOM      9  N   UNL     1      -7.893   5.656   0.269  0.00  0.00    -0.321 N 
ATOM     10  H   UNL     1      -8.623   6.417   0.581  0.00  0.00    +0.169 HD
ATOM     11  C   UNL     1      -6.722   5.583   0.924  0.00  0.00    +0.264 A 
ATOM     12  O   UNL     1      -6.504   6.358   1.839  0.00  0.00    -0.267 OA
ATOM     13 CL   UNL     1     -11.201   4.143  -3.316  0.00  0.00    -0.083 Cl
ENDROOT
BRANCH   2  14
ATOM     14  C   UNL     1      -4.954   2.742  -0.849  0.00  0.00    +0.002 A 
ATOM     15  C   UNL     1      -4.802   1.574  -0.100  0.00  0.00    +0.010 A 
ATOM     16  C   UNL     1      -3.856   0.640  -0.468  0.00  0.00    +0.001 A 
ATOM     17  C   UNL     1      -3.051   0.863  -1.571  0.00  0.00    +0.001 A 
ATOM     18  C   UNL     1      -3.192   2.020  -2.316  0.00  0.00    +0.020 A 
ATOM     19  C   UNL     1      -4.138   2.961  -1.962  0.00  0.00    +0.049 A 
ATOM     20 CL   UNL     1      -4.313   4.413  -2.897  0.00  0.00    -0.083 Cl
ENDBRANCH   2  14
BRANCH   1  21
ATOM     21  S   UNL     1      -4.215   4.569   1.465  0.00  0.00    -0.044 S 
BRANCH  21  26
ATOM     22  N   UNL     1      -4.053   3.918   4.181  0.00  0.00    -0.298 N 
ATOM     23  C   UNL     1      -4.933   3.509   5.156  0.00  0.00    +0.167 A 
ATOM     24  N   UNL     1      -6.117   3.424   4.596  0.00  0.00    -0.128 NA
ATOM     25  N   UNL     1      -6.042   3.755   3.357  0.00  0.00    -0.122 NA
ATOM     26  C   UNL     1      -4.802   4.063   3.047  0.00  0.00    +0.197 A 
BRANCH  23  27
ATOM     27  C   UNL     1      -4.605   3.215   6.567  0.00  0.00    +0.037 A 
ATOM     28  C   UNL     1      -3.284   2.955   6.952  0.00  0.00    +0.014 A 
ATOM     29  C   UNL     1      -3.030   2.692   8.286  0.00  0.00    +0.020 A 
ATOM     30  C   UNL     1      -4.078   2.693   9.189  0.00  0.00    +0.111 A 
ATOM     31  N   UNL     1      -5.313   2.942   8.797  0.00  0.00    -0.263 NA
ATOM     32  C   UNL     1      -5.606   3.198   7.539  0.00  0.00    +0.122 A 
ENDBRANCH  23  27
BRANCH  22  33
ATOM     33  C   UNL     1      -2.614   4.148   4.327  0.00  0.00    +0.152 C 
BRANCH  33  35
ATOM     34  C   UNL     1      -0.930   2.912   3.064  0.00  0.00    +0.005 C 
ATOM     35  C   UNL     1      -1.865   2.887   3.980  0.00  0.00    -0.013 C 
ENDBRANCH  33  35
ENDBRANCH  22  33
ENDBRANCH  21  26
ENDBRANCH   1  21
TORSDOF 6
