REMARK  Name = ZINC06077660
REMARK  13 active torsions:
REMARK  status: ('A' for Active; 'I' for Inactive)
REMARK    1  A    between atoms: C_1  and  C_2
REMARK    2  A    between atoms: C_2  and  C_3
REMARK    3  A    between atoms: C_3  and  C_4
REMARK    4  A    between atoms: C_3  and  C_5
REMARK    5  A    between atoms: C_3  and  N_6
REMARK    6  A    between atoms: C_7  and  C_11
REMARK    7  A    between atoms: C_11  and  C_13
REMARK    8  A    between atoms: C_11  and  N_77
REMARK    9  A    between atoms: C_16  and  C_26
REMARK   10  A    between atoms: C_19  and  C_25
REMARK   11  A    between atoms: N_29  and  C_32
REMARK   12  A    between atoms: C_36  and  C_39
REMARK   13  A    between atoms: C_37  and  C_38
REMARK                            x       y       z     vdW  Elec       q    Type
REMARK                         _______ _______ _______ _____ _____    ______ ____
ROOT
ATOM      1  C   UNL     1      -0.016   1.073   0.005  0.00  0.00    +0.039 C 
ENDROOT
BRANCH   1   2
ATOM      2  C   UNL     1       1.329   1.740  -0.123  0.00  0.00    +0.011 A 
ATOM      3  C   UNL     1       1.763   2.578   0.851  0.00  0.00    +0.018 A 
ATOM      4  C   UNL     1       3.076   3.207   0.699  0.00  0.00    +0.002 A 
ATOM      5  C   UNL     1       3.579   4.077   1.672  0.00  0.00    -0.041 A 
ATOM      6  C   UNL     1       4.806   4.651   1.498  0.00  0.00    +0.004 A 
ATOM      7  C   UNL     1       5.559   4.380   0.363  0.00  0.00    +0.005 A 
ATOM      8  C   UNL     1       5.083   3.528  -0.609  0.00  0.00    -0.026 A 
ATOM      9  C   UNL     1       3.836   2.930  -0.453  0.00  0.00    +0.052 A 
ATOM     10  N   UNL     1       3.336   2.073  -1.410  0.00  0.00    -0.322 N 
ATOM     11  H   UNL     1       3.877   1.877  -2.228  0.00  0.00    +0.169 HD
ATOM     12  C   UNL     1       2.130   1.496  -1.259  0.00  0.00    +0.251 A 
ATOM     13  O   UNL     1       1.720   0.743  -2.125  0.00  0.00    -0.268 OA
ATOM     14  C   UNL     1       5.910   3.243  -1.836  0.00  0.00    +0.046 C 
ATOM     15  C   UNL     1       2.770   4.379   2.908  0.00  0.00    +0.044 C 
ENDBRANCH   1   2
BRANCH   1  21
ATOM     16  C   UNL     1      -0.967   2.930  -1.225  0.00  0.00    -0.058 C 
ATOM     17  C   UNL     1      -1.795   3.299  -2.458  0.00  0.00    +0.086 C 
ATOM     18  N   UNL     1      -3.128   2.689  -2.351  0.00  0.00    -0.333 N 
ATOM     19  C   UNL     1      -3.028   1.227  -2.252  0.00  0.00    +0.086 C 
ATOM     20  C   UNL     1      -2.200   0.857  -1.018  0.00  0.00    -0.058 C 
ATOM     21  N   UNL     1      -0.856   1.458  -1.149  0.00  0.00    +0.391 N 
ATOM     22  H   UNL     1      -0.418   1.111  -2.011  0.00  0.00    -0.080 HD
BRANCH  18  23
ATOM     23  C   UNL     1      -3.937   3.064  -3.425  0.00  0.00    +0.033 A 
ATOM     24  C   UNL     1      -3.597   2.687  -4.718  0.00  0.00    +0.023 A 
ATOM     25  C   UNL     1      -4.400   3.058  -5.778  0.00  0.00    +0.002 A 
ATOM     26  C   UNL     1      -5.542   3.806  -5.554  0.00  0.00    +0.004 A 
ATOM     27  C   UNL     1      -5.883   4.184  -4.269  0.00  0.00    -0.046 A 
ATOM     28  C   UNL     1      -5.088   3.810  -3.203  0.00  0.00    -0.027 A 
ATOM     29  C   UNL     1      -5.464   4.217  -1.802  0.00  0.00    +0.046 C 
ATOM     30  C   UNL     1      -7.128   4.999  -4.029  0.00  0.00    +0.044 C 
ENDBRANCH  18  23
ENDBRANCH   1  21
BRANCH   1  32
ATOM     31  N   UNL     1      -0.842   0.739   2.394  0.00  0.00    -0.225 N 
ATOM     32  C   UNL     1      -0.666   1.497   1.296  0.00  0.00    +0.143 A 
ATOM     33  N   UNL     1      -1.166   2.677   1.569  0.00  0.00    -0.115 NA
ATOM     34  N   UNL     1      -1.632   2.644   2.770  0.00  0.00    -0.023 NA
ATOM     35  N   UNL     1      -1.435   1.475   3.273  0.00  0.00    -0.043 NA
BRANCH  31  36
ATOM     36  C   UNL     1      -0.437  -0.659   2.561  0.00  0.00    +0.061 C 
ATOM     37  C   UNL     1      -1.207  -1.535   1.571  0.00  0.00    +0.036 C 
ATOM     38  C   UNL     1       1.065  -0.790   2.296  0.00  0.00    +0.036 C 
BRANCH  36  40
ATOM     39  C   UNL     1      -0.321  -2.572   4.163  0.00  0.00    +0.006 C 
ATOM     40  C   UNL     1      -0.744  -1.112   3.990  0.00  0.00    +0.026 C 
ENDBRANCH  36  40
ENDBRANCH  31  36
ENDBRANCH   1  32
TORSDOF 6
