REMARK  Name = ZINC65405684
REMARK  5 active torsions:
REMARK  status: ('A' for Active; 'I' for Inactive)
REMARK    1  A    between atoms: C_1  and  C_2
REMARK    2  A    between atoms: C_6  and  C_8
REMARK    3  A    between atoms: C_10  and  C_24
REMARK    4  A    between atoms: N_14  and  C_15
REMARK    5  A    between atoms: C_15  and  C_16
REMARK                            x       y       z     vdW  Elec       q    Type
REMARK                         _______ _______ _______ _____ _____    ______ ____
ROOT
ATOM      1  C   UNL     1       1.260   1.749  -2.774  0.00  0.00    +0.128 C 
ATOM      2  C   UNL     1       2.038   2.982  -2.276  0.00  0.00    +0.108 C 
ATOM      3  N   UNL     1       2.603   3.615  -3.491  0.00  0.00    -0.295 NA
ATOM      4  C   UNL     1       2.669   2.515  -4.486  0.00  0.00    +0.170 C 
ATOM      5  N   UNL     1       1.421   1.742  -4.248  0.00  0.00    -0.271 NA
ATOM      6  H   UNL     1       2.010   4.364  -3.818  0.00  0.00    +0.124 HD
ENDROOT
BRANCH   1  12
ATOM      7  C   UNL     1      -0.013   1.086   0.008  0.00  0.00    +0.065 C 
ATOM      8  C   UNL     1      -0.742   1.585  -1.213  0.00  0.00    +0.035 A 
ATOM      9  N   UNL     1      -2.083   1.840  -1.315  0.00  0.00    -0.350 N 
ATOM     10  C   UNL     1      -2.313   2.269  -2.575  0.00  0.00    +0.171 A 
ATOM     11  N   UNL     1      -1.181   2.282  -3.225  0.00  0.00    -0.348 N 
ATOM     12  C   UNL     1      -0.198   1.872  -2.411  0.00  0.00    +0.055 A 
ATOM     13  H   UNL     1      -2.744   1.732  -0.614  0.00  0.00    +0.166 HD
ATOM     14  H   UNL     1      -1.069   2.550  -4.151  0.00  0.00    +0.166 HD
ENDBRANCH   1  12
BRANCH   2  15
ATOM     15  C   UNL     1       1.107   3.937  -1.574  0.00  0.00    -0.029 A 
ATOM     16  C   UNL     1       0.306   4.789  -2.311  0.00  0.00    +0.005 A 
ATOM     17  C   UNL     1      -0.548   5.665  -1.667  0.00  0.00    +0.000 A 
ATOM     18  C   UNL     1      -0.601   5.688  -0.286  0.00  0.00    +0.000 A 
ATOM     19  C   UNL     1       0.199   4.835   0.451  0.00  0.00    +0.000 A 
ATOM     20  C   UNL     1       1.050   3.957  -0.193  0.00  0.00    +0.005 A 
ENDBRANCH   2  15
BRANCH   5  21
ATOM     21  C   UNL     1       1.544   0.370  -4.757  0.00  0.00    +0.182 C 
BRANCH  21  22
ATOM     22  C   UNL     1       1.460   0.383  -6.262  0.00  0.00    +0.233 C 
ATOM     23  O   UNL     1       1.312   1.432  -6.852  0.00  0.00    -0.274 OA
ATOM     24  N   UNL     1       1.549  -0.772  -6.952  0.00  0.00    -0.264 N 
ATOM     25  C   UNL     1       1.472  -0.760  -8.339  0.00  0.00    +0.164 A 
ATOM     26  N   UNL     1       1.320   0.273  -9.141  0.00  0.00    -0.233 NA
ATOM     27  C   UNL     1       1.264   0.117 -10.450  0.00  0.00    +0.120 A 
ATOM     28  C   UNL     1       1.370  -1.148 -10.926  0.00  0.00    +0.068 A 
ATOM     29  S   UNL     1       1.556  -2.061  -9.403  0.00  0.00    -0.061 S 
ATOM     30  H   UNL     1       1.668  -1.611  -6.480  0.00  0.00    +0.157 HD
ENDBRANCH  21  22
ENDBRANCH   5  21
TORSDOF 4
