REMARK  Name = ZINC59935490
REMARK  8 active torsions:
REMARK  status: ('A' for Active; 'I' for Inactive)
REMARK    1  A    between atoms: C_4  and  O_28
REMARK    2  A    between atoms: C_5  and  C_7
REMARK    3  A    between atoms: C_8  and  C_9
REMARK    4  A    between atoms: N_11  and  C_12
REMARK    5  A    between atoms: C_16  and  C_18
REMARK    6  A    between atoms: C_18  and  N_19
REMARK    7  A    between atoms: C_23  and  C_25
REMARK    8  A    between atoms: O_28  and  C_29
REMARK                            x       y       z     vdW  Elec       q    Type
REMARK                         _______ _______ _______ _____ _____    ______ ____
ROOT
ATOM      1  C   UNL     1      -1.057  -6.404  -0.116  0.00  0.00    +0.034 A 
ATOM      2  C   UNL     1       0.130  -7.126  -0.120  0.00  0.00    +0.023 A 
ATOM      3  C   UNL     1       0.098  -8.503  -0.218  0.00  0.00    +0.002 A 
ATOM      4  C   UNL     1      -1.114  -9.163  -0.311  0.00  0.00    +0.002 A 
ATOM      5  C   UNL     1      -2.297  -8.448  -0.307  0.00  0.00    -0.062 A 
ATOM      6  C   UNL     1      -2.272  -7.071  -0.203  0.00  0.00    +0.025 A 
ENDROOT
BRANCH   1   9
ATOM      7  C   UNL     1      -0.038  -4.312  -0.608  0.00  0.00    +0.241 C 
ATOM      8  O   UNL     1       0.878  -4.900  -1.155  0.00  0.00    -0.270 OA
ATOM      9  N   UNL     1      -1.028  -5.009  -0.018  0.00  0.00    -0.282 N 
ATOM     10  H   UNL     1      -1.722  -4.544   0.476  0.00  0.00    +0.155 HD
BRANCH   7  12
ATOM     11  C   UNL     1       0.931  -2.152  -1.183  0.00  0.00    +0.016 C 
ATOM     12  C   UNL     1      -0.062  -2.851  -0.592  0.00  0.00    +0.068 C 
BRANCH  11  17
ATOM     13  C   UNL     1      -0.160   1.374  -0.530  0.00  0.00    +0.001 A 
ATOM     14  C   UNL     1       0.859   2.090  -1.137  0.00  0.00    +0.004 A 
ATOM     15  C   UNL     1       1.902   1.433  -1.759  0.00  0.00    +0.046 A 
ATOM     16  C   UNL     1       1.936   0.047  -1.781  0.00  0.00    +0.134 A 
ATOM     17  C   UNL     1       0.906  -0.683  -1.167  0.00  0.00    +0.017 A 
ATOM     18  C   UNL     1      -0.144  -0.004  -0.540  0.00  0.00    +0.011 A 
BRANCH  16  19
ATOM     19  O   UNL     1       2.960  -0.600  -2.393  0.00  0.00    -0.434 OA
BRANCH  19  20
ATOM     20  C   UNL     1       3.971   0.210  -2.996  0.00  0.00    +0.541 C 
ATOM     21  F   UNL     1       3.395   1.018  -3.982  0.00  0.00    -0.166 F 
ATOM     22  F   UNL     1       4.566   1.016  -2.020  0.00  0.00    -0.166 F 
ENDBRANCH  19  20
ENDBRANCH  16  19
ENDBRANCH  11  17
ENDBRANCH   7  12
ENDBRANCH   1   9
BRANCH   5  23
ATOM     23  C   UNL     1      -3.615  -9.171  -0.409  0.00  0.00    -0.042 C 
BRANCH  23  24
ATOM     24  N   UNL     1      -4.097  -9.504   0.939  0.00  0.00    +0.390 N 
ATOM     25  C   UNL     1      -4.480  -8.266   1.665  0.00  0.00    -0.077 C 
ATOM     26  C   UNL     1      -5.448  -8.782   2.759  0.00  0.00    -0.020 C 
ATOM     27  C   UNL     1      -6.229  -9.899   2.030  0.00  0.00    -0.008 C 
ATOM     28  C   UNL     1      -5.328 -10.319   0.854  0.00  0.00    +0.019 C 
ATOM     29  H   UNL     1      -3.384 -10.002   1.450  0.00  0.00    -0.080 HD
BRANCH  28  30
ATOM     30  C   UNL     1      -4.984 -11.781   0.967  0.00  0.00    +0.197 C 
ATOM     31  O   UNL     1      -3.829 -12.124   1.105  0.00  0.00    -0.278 OA
ATOM     32  N   UNL     1      -5.960 -12.709   0.914  0.00  0.00    -0.331 N 
ATOM     33  H   UNL     1      -6.884 -12.435   0.804  0.00  0.00    +0.145 HD
ATOM     34  H   UNL     1      -5.739 -13.651   0.987  0.00  0.00    +0.145 HD
ENDBRANCH  28  30
ENDBRANCH  23  24
ENDBRANCH   5  23
TORSDOF 8
