REMARK  Name = ZINC09232912
REMARK  1 active torsions:
REMARK  status: ('A' for Active; 'I' for Inactive)
REMARK    1  A    between atoms: N_20  and  C_23
REMARK                            x       y       z     vdW  Elec       q    Type
REMARK                         _______ _______ _______ _____ _____    ______ ____
ROOT
ATOM      1  C   UNL     1       1.166   2.099   0.002  0.00  0.00    +0.040 A 
ATOM      2  C   UNL     1      -0.017   1.388   0.010  0.00  0.00    +0.026 A 
ATOM      3  C   UNL     1       0.002  -0.004   0.002  0.00  0.00    +0.036 A 
ATOM      4  C   UNL     1       1.228  -0.662  -0.013  0.00  0.00    -0.024 A 
ATOM      5  C   UNL     1       2.407   0.049  -0.021  0.00  0.00    +0.043 A 
ATOM      6  C   UNL     1       2.380   1.435  -0.013  0.00  0.00    +0.124 A 
ATOM      7  F   UNL     1       3.536   2.135  -0.019  0.00  0.00    -0.205 F 
ATOM      8  C   UNL     1       0.908  -2.131  -0.018  0.00  0.00    +0.053 C 
ATOM      9  C   UNL     1       1.512  -2.839   1.200  0.00  0.00    +0.089 C 
ATOM     10  C   UNL     1       1.913  -4.236   0.679  0.00  0.00    +0.074 C 
ATOM     11  C   UNL     1       1.549  -4.240  -0.817  0.00  0.00    -0.054 C 
ATOM     12  C   UNL     1       2.876  -2.382  -1.400  0.00  0.00    -0.076 C 
ATOM     13  C   UNL     1       3.573  -3.598  -2.045  0.00  0.00    -0.020 C 
ATOM     14  C   UNL     1       2.713  -4.813  -1.646  0.00  0.00    -0.016 C 
ATOM     15  C   UNL     1       3.417  -4.206   0.830  0.00  0.00    +0.228 C 
ATOM     16  O   UNL     1       4.170  -5.109   0.531  0.00  0.00    -0.275 OA
ATOM     17  N   UNL     1       3.789  -3.027   1.343  0.00  0.00    -0.209 N 
ATOM     18  C   UNL     1       2.779  -2.186   1.591  0.00  0.00    +0.229 C 
ATOM     19  O   UNL     1       2.893  -1.072   2.055  0.00  0.00    -0.275 OA
ATOM     20  C   UNL     1      -0.595  -2.202  -0.004  0.00  0.00    +0.212 C 
ATOM     21  O   UNL     1      -1.272  -3.208  -0.003  0.00  0.00    -0.277 OA
ATOM     22  N   UNL     1      -1.043  -0.932   0.007  0.00  0.00    -0.286 N 
ATOM     23  H   UNL     1      -1.982  -0.689   0.018  0.00  0.00    +0.155 HD
ATOM     24  N   UNL     1       1.491  -2.838  -1.162  0.00  0.00    +0.395 N 
ATOM     25  H   UNL     1       0.919  -2.690  -2.002  0.00  0.00    -0.079 HD
ENDROOT
BRANCH  17  26
ATOM     26  C   UNL     1       5.128  -2.702   1.602  0.00  0.00    +0.064 A 
ATOM     27  C   UNL     1       5.899  -2.095   0.620  0.00  0.00    +0.045 A 
ATOM     28  C   UNL     1       7.217  -1.771   0.879  0.00  0.00    +0.043 A 
ATOM     29  C   UNL     1       7.772  -2.060   2.113  0.00  0.00    +0.021 A 
ATOM     30  C   UNL     1       7.009  -2.669   3.092  0.00  0.00    +0.023 A 
ATOM     31  C   UNL     1       5.689  -2.991   2.840  0.00  0.00    +0.063 A 
ATOM     32 CL   UNL     1       4.731  -3.756   4.069  0.00  0.00    -0.082 Cl
ATOM     33 CL   UNL     1       8.179  -1.005  -0.347  0.00  0.00    -0.083 Cl
ENDBRANCH  17  26
TORSDOF 1
