REMARK  Name = ZINC35379185
REMARK  7 active torsions:
REMARK  status: ('A' for Active; 'I' for Inactive)
REMARK    1  A    between atoms: C_1  and  C_2
REMARK    2  A    between atoms: C_7  and  N_8
REMARK    3  A    between atoms: C_9  and  C_11
REMARK    4  A    between atoms: N_16  and  S_18
REMARK    5  A    between atoms: S_18  and  C_21
REMARK    6  A    between atoms: C_26  and  C_27
REMARK    7  A    between atoms: C_31  and  C_34
REMARK                            x       y       z     vdW  Elec       q    Type
REMARK                         _______ _______ _______ _____ _____    ______ ____
ROOT
ATOM      1  C   UNL     1      -0.167   0.056   4.883  0.00  0.00    +0.091 C 
ATOM      2  C   UNL     1      -1.431   0.918   4.871  0.00  0.00    +0.015 C 
ATOM      3  C   UNL     1      -1.527   1.703   6.181  0.00  0.00    +0.018 C 
ATOM      4  C   UNL     1      -1.622   0.722   7.354  0.00  0.00    +0.109 C 
ATOM      5  N   UNL     1      -0.484  -0.205   7.288  0.00  0.00    -0.176 NA
ATOM      6  C   UNL     1      -0.245  -0.944   6.040  0.00  0.00    +0.122 C 
ENDROOT
BRANCH   1   8
ATOM      7  N   UNL     1       0.026  -0.013   2.417  0.00  0.00    -0.285 N 
ATOM      8  C   UNL     1      -0.056  -0.692   3.579  0.00  0.00    +0.222 C 
ATOM      9  O   UNL     1      -0.040  -1.905   3.575  0.00  0.00    -0.275 OA
ATOM     10  H   UNL     1       0.079   0.956   2.425  0.00  0.00    +0.155 HD
BRANCH   7  17
ATOM     11  C   UNL     1      -1.265   1.183   0.182  0.00  0.00    +0.046 C 
ATOM     12  C   UNL     1      -0.584  -0.158   0.085  0.00  0.00    -0.027 A 
ATOM     13  C   UNL     1      -0.570  -0.840  -1.116  0.00  0.00    +0.043 A 
ATOM     14  C   UNL     1       0.055  -2.072  -1.206  0.00  0.00    +0.124 A 
ATOM     15  C   UNL     1       0.667  -2.623  -0.093  0.00  0.00    +0.040 A 
ATOM     16  C   UNL     1       0.655  -1.944   1.110  0.00  0.00    +0.026 A 
ATOM     17  C   UNL     1       0.034  -0.706   1.200  0.00  0.00    +0.036 A 
ATOM     18  F   UNL     1       0.068  -2.738  -2.382  0.00  0.00    -0.205 F 
ENDBRANCH   7  17
ENDBRANCH   1   8
BRANCH   5  19
ATOM     19  S   UNL     1       0.511  -0.414   8.595  0.00  0.00    +0.061 S 
ATOM     20  O   UNL     1       1.755  -0.877   8.088  0.00  0.00    -0.153 OA
ATOM     21  O   UNL     1       0.400   0.764   9.382  0.00  0.00    -0.153 OA
BRANCH  19  22
ATOM     22  C   UNL     1      -0.161  -1.728   9.557  0.00  0.00    +0.112 A 
ATOM     23  C   UNL     1       0.550  -2.905   9.707  0.00  0.00    +0.076 A 
ATOM     24  C   UNL     1       0.022  -3.937  10.463  0.00  0.00    +0.145 A 
ATOM     25  C   UNL     1      -1.223  -3.786  11.071  0.00  0.00    +0.076 A 
ATOM     26  C   UNL     1      -1.929  -2.604  10.919  0.00  0.00    +0.032 A 
ATOM     27  C   UNL     1      -1.393  -1.575  10.165  0.00  0.00    -0.022 A 
ATOM     28  C   UNL     1      -2.157  -0.287  10.002  0.00  0.00    +0.046 C 
ATOM     29  N   UNL     1      -1.747  -4.840  11.834  0.00  0.00    -0.280 N 
ATOM     30  C   UNL     1      -0.923  -5.837  12.224  0.00  0.00    +0.258 C 
ATOM     31  O   UNL     1      -1.360  -6.774  12.858  0.00  0.00    -0.271 OA
ATOM     32  C   UNL     1       0.541  -5.780  11.869  0.00  0.00    +0.256 C 
ATOM     33  O   UNL     1       0.707  -5.101  10.621  0.00  0.00    -0.478 OA
ATOM     34  C   UNL     1       1.301  -5.027  12.963  0.00  0.00    +0.062 C 
ATOM     35  H   UNL     1      -2.686  -4.853  12.077  0.00  0.00    +0.155 HD
ENDBRANCH  19  22
ENDBRANCH   5  19
TORSDOF 4
