REMARK  Name = ZINC63627834
REMARK  12 active torsions:
REMARK  status: ('A' for Active; 'I' for Inactive)
REMARK    1  A    between atoms: C_1  and  C_2
REMARK    2  A    between atoms: C_2  and  O_3
REMARK    3  A    between atoms: O_3  and  C_4
REMARK    4  A    between atoms: C_6  and  C_16
REMARK    5  A    between atoms: C_8  and  O_13
REMARK    6  A    between atoms: C_9  and  O_10
REMARK    7  A    between atoms: O_10  and  C_11
REMARK    8  A    between atoms: C_11  and  C_12
REMARK    9  A    between atoms: O_13  and  C_14
REMARK   10  A    between atoms: C_14  and  C_15
REMARK   11  A    between atoms: N_18  and  C_19
REMARK   12  A    between atoms: C_22  and  C_25
REMARK                            x       y       z     vdW  Elec       q    Type
REMARK                         _______ _______ _______ _____ _____    ______ ____
ROOT
ATOM      1  C   UNL     1       0.625  -4.948  -0.021  0.00  0.00    +0.248 C 
ATOM      2  O   UNL     1       1.743  -4.469  -0.033  0.00  0.00    -0.270 OA
ATOM      3  N   UNL     1       0.465  -6.286  -0.024  0.00  0.00    -0.281 N 
ATOM      4  H   UNL     1      -0.423  -6.668   0.054  0.00  0.00    +0.155 HD
ENDROOT
BRANCH   1   7
ATOM      5  C   UNL     1      -1.499  -1.850   0.018  0.00  0.00    +0.166 A 
ATOM      6  C   UNL     1      -0.391  -2.676   0.001  0.00  0.00    +0.062 A 
ATOM      7  C   UNL     1      -0.556  -4.063  -0.002  0.00  0.00    +0.044 A 
ATOM      8  C   UNL     1      -1.841  -4.612   0.012  0.00  0.00    +0.062 A 
ATOM      9  C   UNL     1      -2.945  -3.781   0.029  0.00  0.00    +0.166 A 
ATOM     10  C   UNL     1      -2.778  -2.399   0.037  0.00  0.00    +0.204 A 
BRANCH   5  11
ATOM     11  O   UNL     1      -1.339  -0.499   0.022  0.00  0.00    -0.488 OA
BRANCH  11  13
ATOM     12  C   UNL     1      -0.020   1.526   0.010  0.00  0.00    +0.048 C 
ATOM     13  C   UNL     1       0.001  -0.004   0.002  0.00  0.00    +0.226 C 
ENDBRANCH  11  13
ENDBRANCH   5  11
BRANCH  10  14
ATOM     14  O   UNL     1      -3.866  -1.584   0.059  0.00  0.00    -0.485 OA
BRANCH  14  15
ATOM     15  C   UNL     1      -4.406  -1.190  -1.204  0.00  0.00    +0.226 C 
ATOM     16  C   UNL     1      -5.617  -0.281  -0.979  0.00  0.00    +0.048 C 
ENDBRANCH  14  15
ENDBRANCH  10  14
BRANCH   9  17
ATOM     17  O   UNL     1      -4.196  -4.314   0.041  0.00  0.00    -0.488 OA
BRANCH  17  18
ATOM     18  C   UNL     1      -4.294  -5.740   0.036  0.00  0.00    +0.226 C 
ATOM     19  C   UNL     1      -5.768  -6.150   0.052  0.00  0.00    +0.048 C 
ENDBRANCH  17  18
ENDBRANCH   9  17
ENDBRANCH   1   7
BRANCH   3  20
ATOM     20  C   UNL     1       1.579  -7.123  -0.139  0.00  0.00    +0.034 A 
ATOM     21  C   UNL     1       1.484  -8.316  -0.845  0.00  0.00    +0.023 A 
ATOM     22  C   UNL     1       2.586  -9.140  -0.957  0.00  0.00    +0.008 A 
ATOM     23  C   UNL     1       3.784  -8.780  -0.367  0.00  0.00    -0.021 A 
ATOM     24  C   UNL     1       3.882  -7.594   0.337  0.00  0.00    +0.008 A 
ATOM     25  C   UNL     1       2.785  -6.762   0.447  0.00  0.00    +0.023 A 
BRANCH  23  26
ATOM     26  C   UNL     1       4.984  -9.683  -0.491  0.00  0.00    +0.133 C 
ATOM     27  C   UNL     1       5.939  -9.141  -1.531  0.00  0.00    +0.012 C 
ATOM     28  C   UNL     1       7.099  -8.893  -0.881  0.00  0.00    -0.004 A 
ATOM     29  C   UNL     1       8.395  -8.366  -1.326  0.00  0.00    +0.010 A 
ATOM     30  C   UNL     1       9.392  -8.228  -0.423  0.00  0.00    +0.001 A 
ATOM     31  C   UNL     1       9.219  -8.575   0.924  0.00  0.00    +0.002 A 
ATOM     32  C   UNL     1       8.059  -9.066   1.408  0.00  0.00    +0.026 A 
ATOM     33  C   UNL     1       6.943  -9.253   0.546  0.00  0.00    +0.043 A 
ATOM     34  N   UNL     1       5.732  -9.706   0.771  0.00  0.00    -0.374 N 
ATOM     35  H   UNL     1       5.388 -10.006   1.627  0.00  0.00    +0.161 HD
ENDBRANCH  23  26
ENDBRANCH   3  20
TORSDOF 9
