REMARK  Name = ZINC04199115
REMARK  17 active torsions:
REMARK  status: ('A' for Active; 'I' for Inactive)
REMARK    1  A    between atoms: C_1  and  C_2
REMARK    2  A    between atoms: C_2  and  C_29
REMARK    3  A    between atoms: C_3  and  C_4
REMARK    4  A    between atoms: C_4  and  C_5
REMARK    5  A    between atoms: C_5  and  C_6
REMARK    6  A    between atoms: C_6  and  C_28
REMARK    7  A    between atoms: C_7  and  C_8
REMARK    8  A    between atoms: C_8  and  C_9
REMARK    9  A    between atoms: C_9  and  C_10
REMARK   10  A    between atoms: C_10  and  C_27
REMARK   11  A    between atoms: C_11  and  C_25
REMARK   12  A    between atoms: C_11  and  O_26
REMARK   13  A    between atoms: N_12  and  C_16
REMARK   14  A    between atoms: C_18  and  C_23
REMARK   15  A    between atoms: C_18  and  C_24
REMARK   16  A    between atoms: C_19  and  C_21
REMARK   17  A    between atoms: C_19  and  C_22
REMARK                            x       y       z     vdW  Elec       q    Type
REMARK                         _______ _______ _______ _____ _____    ______ ____
ROOT
ATOM      1  C   UNL     1       2.460   3.838   1.779  0.00  0.00    +0.158 C 
ATOM      2  C   UNL     1       3.938   4.230   1.594  0.00  0.00    +0.175 C 
ATOM      3  N   UNL     1       4.348   4.692   2.929  0.00  0.00    -0.233 N 
ATOM      4  C   UNL     1       3.302   4.594   3.762  0.00  0.00    +0.406 C 
ATOM      5  O   UNL     1       3.357   4.908   4.934  0.00  0.00    -0.226 OA
ATOM      6  O   UNL     1       2.194   4.117   3.184  0.00  0.00    -0.439 OA
ATOM      7  C   UNL     1       4.070   5.360   0.571  0.00  0.00    +0.068 C 
ATOM      8  C   UNL     1       1.559   4.690   0.883  0.00  0.00    +0.060 C 
ENDROOT
BRANCH   3   9
ATOM      9  C   UNL     1       5.684   5.182   3.291  0.00  0.00    +0.080 C 
ATOM     10  C   UNL     1       6.257   4.306   4.404  0.00  0.00    +0.010 C 
ATOM     11  C   UNL     1       7.635   4.809   4.827  0.00  0.00    -0.072 C 
ATOM     12  C   UNL     1       6.953   7.141   4.194  0.00  0.00    -0.072 C 
ATOM     13  C   UNL     1       5.569   6.614   3.816  0.00  0.00    +0.010 C 
ATOM     14  C   UNL     1       7.756   7.442   2.925  0.00  0.00    -0.010 C 
ATOM     15  C   UNL     1       6.753   8.479   4.940  0.00  0.00    -0.010 C 
ATOM     16  C   UNL     1       8.673   4.403   3.774  0.00  0.00    -0.010 C 
ATOM     17  C   UNL     1       8.010   4.087   6.140  0.00  0.00    -0.010 C 
ATOM     18  N   UNL     1       7.707   6.264   5.130  0.00  0.00    +0.386 N 
ATOM     19  H   UNL     1       8.694   6.545   5.105  0.00  0.00    -0.084 HD
ATOM     20  H   UNL     1       7.334   6.411   6.075  0.00  0.00    -0.084 HD
ENDBRANCH   3   9
BRANCH   2  21
ATOM     21  O   UNL     1       4.712   3.097   1.196  0.00  0.00    -0.368 OA
ATOM     22  H   UNL     1       5.651   3.288   1.065  0.00  0.00    +0.212 HD
ENDBRANCH   2  21
BRANCH   1  23
ATOM     23  C   UNL     1       2.258   2.351   1.480  0.00  0.00    +0.056 C 
BRANCH  23  24
ATOM     24  C   UNL     1       0.780   1.993   1.646  0.00  0.00    +0.031 C 
BRANCH  24  26
ATOM     25  C   UNL     1       0.044  -0.254   2.254  0.00  0.00    -0.076 C 
ATOM     26  C   UNL     1       0.581   0.528   1.352  0.00  0.00    -0.028 C 
ATOM     27  C   UNL     1      -0.488   0.330   3.538  0.00  0.00    +0.039 C 
BRANCH  25  28
ATOM     28  C   UNL     1      -0.043  -1.739   2.010  0.00  0.00    +0.034 C 
BRANCH  28  29
ATOM     29  C   UNL     1       1.159  -2.433   2.652  0.00  0.00    +0.031 C 
BRANCH  29  32
ATOM     30  C   UNL     1       3.192  -3.748   1.207  0.00  0.00    +0.038 C 
ATOM     31  C   UNL     1       2.047  -4.537   1.788  0.00  0.00    -0.080 C 
ATOM     32  C   UNL     1       1.073  -3.917   2.408  0.00  0.00    -0.028 C 
ATOM     33  C   UNL     1       2.022  -6.038   1.657  0.00  0.00    +0.038 C 
ENDBRANCH  29  32
ENDBRANCH  28  29
ENDBRANCH  25  28
ENDBRANCH  24  26
ENDBRANCH  23  24
ENDBRANCH   1  23
TORSDOF 8
