REMARK  Name = ZINC39675490
REMARK  10 active torsions:
REMARK  status: ('A' for Active; 'I' for Inactive)
REMARK    1  A    between atoms: C_1  and  C_2
REMARK    2  A    between atoms: C_6  and  C_7
REMARK    3  A    between atoms: C_11  and  C_20
REMARK    4  A    between atoms: N_22  and  C_23
REMARK    5  A    between atoms: C_23  and  C_25
REMARK    6  A    between atoms: C_23  and  C_26
REMARK    7  A    between atoms: C_26  and  C_27
REMARK    8  A    between atoms: C_27  and  C_28
REMARK    9  A    between atoms: C_31  and  O_34
REMARK   10  A    between atoms: O_34  and  C_35
REMARK                            x       y       z     vdW  Elec       q    Type
REMARK                         _______ _______ _______ _____ _____    ______ ____
ROOT
ATOM      1  C   UNL     1       0.031  -0.285   2.559  0.00  0.00    +0.254 C 
ATOM      2  O   UNL     1       0.119   0.904   2.802  0.00  0.00    -0.269 OA
ATOM      3  N   UNL     1      -0.050  -1.175   3.568  0.00  0.00    -0.296 N 
ATOM      4  C   UNL     1      -0.040  -2.654   3.478  0.00  0.00    +0.121 C 
ATOM      5  C   UNL     1       0.813  -3.113   4.682  0.00  0.00    +0.100 C 
ATOM      6  C   UNL     1       0.723  -1.955   5.690  0.00  0.00    -0.004 C 
ATOM      7  C   UNL     1      -0.162  -0.894   5.020  0.00  0.00    +0.115 C 
ATOM      8  C   UNL     1       0.083  -2.435   6.990  0.00  0.00    -0.010 C 
ATOM      9  C   UNL     1       0.058  -1.281   7.997  0.00  0.00    -0.082 C 
ATOM     10  N   UNL     1       1.428  -0.816   8.245  0.00  0.00    +0.379 N 
ATOM     11  C   UNL     1       2.003  -0.271   7.010  0.00  0.00    -0.082 C 
ATOM     12  C   UNL     1       2.111  -1.382   5.961  0.00  0.00    -0.010 C 
ATOM     13  H   UNL     1       1.415  -0.098   8.954  0.00  0.00    -0.086 HD
ATOM     14  H   UNL     1       1.992  -1.590   8.565  0.00  0.00    -0.086 HD
ENDROOT
BRANCH   1  20
ATOM     15  C   UNL     1      -0.012   1.501   0.007  0.00  0.00    +0.045 C 
ATOM     16  C   UNL     1      -0.007  -0.006  -0.001  0.00  0.00    -0.031 A 
ATOM     17  C   UNL     1      -0.016  -0.730  -1.169  0.00  0.00    +0.011 A 
ATOM     18  C   UNL     1      -0.010  -2.084  -1.104  0.00  0.00    +0.046 A 
ATOM     19  S   UNL     1       0.007  -2.418   0.542  0.00  0.00    -0.092 S 
ATOM     20  C   UNL     1       0.013  -0.750   1.169  0.00  0.00    +0.077 A 
ENDBRANCH   1  20
BRANCH   5  21
ATOM     21  C   UNL     1       0.245  -4.375   5.277  0.00  0.00    +0.218 C 
ATOM     22  O   UNL     1      -0.932  -4.635   5.138  0.00  0.00    -0.275 OA
ATOM     23  N   UNL     1       1.044  -5.216   5.963  0.00  0.00    -0.312 N 
ATOM     24  H   UNL     1       1.985  -5.009   6.073  0.00  0.00    +0.149 HD
BRANCH  23  25
ATOM     25  C   UNL     1       0.491  -6.444   6.541  0.00  0.00    +0.070 C 
ATOM     26  C   UNL     1       0.484  -7.548   5.482  0.00  0.00    +0.028 C 
BRANCH  25  27
ATOM     27  C   UNL     1       1.352  -6.880   7.728  0.00  0.00    +0.026 C 
BRANCH  27  28
ATOM     28  C   UNL     1       1.259  -5.832   8.838  0.00  0.00    +0.037 C 
BRANCH  28  29
ATOM     29  C   UNL     1       2.107  -6.263  10.008  0.00  0.00    -0.047 A 
ATOM     30  C   UNL     1       1.558  -7.043  11.008  0.00  0.00    +0.007 A 
ATOM     31  C   UNL     1       2.333  -7.439  12.081  0.00  0.00    +0.046 A 
ATOM     32  C   UNL     1       3.663  -7.052  12.154  0.00  0.00    +0.120 A 
ATOM     33  C   UNL     1       4.212  -6.269  11.149  0.00  0.00    +0.046 A 
ATOM     34  C   UNL     1       3.434  -5.881  10.075  0.00  0.00    +0.007 A 
BRANCH  32  35
ATOM     35  O   UNL     1       4.428  -7.440  13.209  0.00  0.00    -0.495 OA
ATOM     36  C   UNL     1       5.789  -7.005  13.218  0.00  0.00    +0.277 C 
ENDBRANCH  32  35
ENDBRANCH  28  29
ENDBRANCH  27  28
ENDBRANCH  25  27
ENDBRANCH  23  25
ENDBRANCH   5  21
TORSDOF 7
