REMARK  Name = ZINC40826347
REMARK  9 active torsions:
REMARK  status: ('A' for Active; 'I' for Inactive)
REMARK    1  A    between atoms: C_1  and  C_2
REMARK    2  A    between atoms: C_5  and  O_32
REMARK    3  A    between atoms: C_6  and  N_8
REMARK    4  A    between atoms: C_9  and  C_11
REMARK    5  A    between atoms: C_12  and  C_31
REMARK    6  A    between atoms: N_20  and  N_21
REMARK    7  A    between atoms: C_22  and  C_24
REMARK    8  A    between atoms: C_29  and  O_30
REMARK    9  A    between atoms: O_32  and  C_33
REMARK                            x       y       z     vdW  Elec       q    Type
REMARK                         _______ _______ _______ _____ _____    ______ ____
ROOT
ATOM      1  C   UNL     1       0.276  -2.873   4.825  0.00  0.00    +0.193 A 
ATOM      2  C   UNL     1       0.378  -2.322   6.072  0.00  0.00    +0.009 A 
ATOM      3  C   UNL     1       0.477  -3.393   6.967  0.00  0.00    +0.042 A 
ATOM      4  C   UNL     1       0.434  -4.553   6.230  0.00  0.00    +0.115 A 
ATOM      5  O   UNL     1       0.306  -4.220   4.947  0.00  0.00    -0.454 OA
ATOM      6  C   UNL     1       0.521  -5.924   6.851  0.00  0.00    +0.075 C 
ATOM      7  C   UNL     1       1.158  -5.814   8.239  0.00  0.00    +0.014 C 
ATOM      8  C   UNL     1       0.422  -4.775   9.090  0.00  0.00    +0.058 C 
ATOM      9  C   UNL     1       0.606  -3.411   8.441  0.00  0.00    +0.070 C 
ATOM     10  N   UNL     1       0.859  -2.341   9.131  0.00  0.00    -0.184 NA
ATOM     11  C   UNL     1       0.382  -0.854   6.414  0.00  0.00    +0.048 C 
ENDROOT
BRANCH   1  13
ATOM     12  N   UNL     1       0.051  -2.794   2.398  0.00  0.00    -0.276 N 
ATOM     13  C   UNL     1       0.150  -2.130   3.567  0.00  0.00    +0.284 C 
ATOM     14  O   UNL     1       0.133  -0.913   3.578  0.00  0.00    -0.266 OA
ATOM     15  H   UNL     1      -0.001  -3.763   2.394  0.00  0.00    +0.155 HD
BRANCH  12  21
ATOM     16  C   UNL     1      -1.308   1.189  -0.143  0.00  0.00    +0.044 C 
ATOM     17  C   UNL     1      -0.627  -0.154  -0.071  0.00  0.00    -0.048 A 
ATOM     18  C   UNL     1      -0.029  -0.685  -1.199  0.00  0.00    +0.007 A 
ATOM     19  C   UNL     1       0.598  -1.916  -1.138  0.00  0.00    +0.048 A 
ATOM     20  C   UNL     1       0.627  -2.621   0.054  0.00  0.00    +0.141 A 
ATOM     21  C   UNL     1       0.025  -2.086   1.190  0.00  0.00    +0.076 A 
ATOM     22  C   UNL     1      -0.597  -0.848   1.124  0.00  0.00    +0.030 A 
BRANCH  20  23
ATOM     23  O   UNL     1       1.243  -3.832   0.115  0.00  0.00    -0.493 OA
ATOM     24  C   UNL     1       1.839  -4.318  -1.090  0.00  0.00    +0.277 C 
ENDBRANCH  20  23
ENDBRANCH  12  21
ENDBRANCH   1  13
BRANCH  10  25
ATOM     25  N   UNL     1       0.970  -2.416  10.525  0.00  0.00    -0.203 N 
ATOM     26  C   UNL     1       1.233  -1.304  11.241  0.00  0.00    +0.267 C 
ATOM     27  O   UNL     1       1.373  -0.236  10.676  0.00  0.00    -0.268 OA
ATOM     28  H   UNL     1       0.859  -3.267  10.976  0.00  0.00    +0.178 HD
BRANCH  26  29
ATOM     29  C   UNL     1       1.350  -1.383  12.709  0.00  0.00    +0.080 A 
ATOM     30  C   UNL     1       1.196  -2.609  13.361  0.00  0.00    +0.017 A 
ATOM     31  C   UNL     1       1.307  -2.676  14.733  0.00  0.00    +0.001 A 
ATOM     32  C   UNL     1       1.571  -1.533  15.470  0.00  0.00    +0.004 A 
ATOM     33  C   UNL     1       1.726  -0.315  14.838  0.00  0.00    +0.046 A 
ATOM     34  C   UNL     1       1.623  -0.230  13.457  0.00  0.00    +0.129 A 
BRANCH  34  35
ATOM     35  O   UNL     1       1.780   0.965  12.835  0.00  0.00    -0.506 OA
ATOM     36  H   UNL     1       0.959   1.466  12.732  0.00  0.00    +0.292 HD
ENDBRANCH  34  35
ENDBRANCH  26  29
ENDBRANCH  10  25
TORSDOF 6
