REMARK  Name = ZINC16195854
REMARK  12 active torsions:
REMARK  status: ('A' for Active; 'I' for Inactive)
REMARK    1  A    between atoms: C_1  and  O_2
REMARK    2  A    between atoms: O_2  and  C_3
REMARK    3  A    between atoms: C_5  and  C_19
REMARK    4  A    between atoms: C_8  and  O_9
REMARK    5  A    between atoms: O_9  and  C_10
REMARK    6  A    between atoms: C_10  and  C_11
REMARK    7  A    between atoms: C_19  and  N_54
REMARK    8  A    between atoms: C_20  and  C_21
REMARK    9  A    between atoms: C_20  and  N_54
REMARK   10  A    between atoms: C_21  and  N_22
REMARK   11  A    between atoms: N_22  and  C_23
REMARK   12  A    between atoms: C_26  and  N_29
REMARK                            x       y       z     vdW  Elec       q    Type
REMARK                         _______ _______ _______ _____ _____    ______ ____
ROOT
ATOM      1  C   UNL     1      -0.787   2.893   1.346  0.00  0.00    +0.163 A 
ATOM      2  C   UNL     1      -0.259   3.751   0.395  0.00  0.00    +0.051 A 
ATOM      3  C   UNL     1      -0.368   5.119   0.561  0.00  0.00    -0.060 A 
ATOM      4  C   UNL     1      -1.002   5.635   1.675  0.00  0.00    +0.021 A 
ATOM      5  C   UNL     1      -1.531   4.784   2.629  0.00  0.00    +0.063 A 
ATOM      6  C   UNL     1      -1.431   3.411   2.465  0.00  0.00    +0.176 A 
ATOM      7 BR   UNL     1      -2.398   5.494   4.153  0.00  0.00    -0.046 Br
ENDROOT
BRANCH   1   9
ATOM      8  C   UNL     1      -0.013   1.086   0.008  0.00  0.00    +0.277 C 
ATOM      9  O   UNL     1      -0.682   1.547   1.184  0.00  0.00    -0.491 OA
ENDBRANCH   1   9
BRANCH   6  10
ATOM     10  O   UNL     1      -1.956   2.573   3.399  0.00  0.00    -0.483 OA
BRANCH  10  11
ATOM     11  C   UNL     1      -1.101   2.184   4.476  0.00  0.00    +0.267 C 
BRANCH  11  12
ATOM     12  C   UNL     1      -1.849   1.262   5.403  0.00  0.00    +0.025 A 
ATOM     13  C   UNL     1      -3.164   0.929   5.136  0.00  0.00    +0.010 A 
ATOM     14  C   UNL     1      -3.849   0.079   5.983  0.00  0.00    +0.001 A 
ATOM     15  C   UNL     1      -3.223  -0.432   7.106  0.00  0.00    +0.003 A 
ATOM     16  C   UNL     1      -1.911  -0.097   7.378  0.00  0.00    +0.039 A 
ATOM     17  C   UNL     1      -1.222   0.751   6.527  0.00  0.00    +0.130 A 
ATOM     18  F   UNL     1       0.061   1.079   6.792  0.00  0.00    -0.205 F 
ENDBRANCH  11  12
ENDBRANCH  10  11
ENDBRANCH   6  10
BRANCH   3  19
ATOM     19  C   UNL     1       0.207   6.050  -0.475  0.00  0.00    -0.047 C 
BRANCH  19  20
ATOM     20  N   UNL     1      -0.823   6.335  -1.492  0.00  0.00    +0.383 N 
ATOM     21  H   UNL     1      -1.633   6.774  -1.040  0.00  0.00    -0.085 HD
ATOM     22  H   UNL     1      -1.113   5.456  -1.936  0.00  0.00    -0.085 HD
BRANCH  20  23
ATOM     23  C   UNL     1      -0.287   7.246  -2.522  0.00  0.00    -0.063 C 
BRANCH  23  24
ATOM     24  C   UNL     1      -1.375   7.524  -3.561  0.00  0.00    +0.082 C 
BRANCH  24  25
ATOM     25  N   UNL     1      -0.851   8.428  -4.587  0.00  0.00    -0.346 N 
ATOM     26  H   UNL     1       0.062   8.749  -4.530  0.00  0.00    +0.146 HD
BRANCH  25  27
ATOM     27  C   UNL     1      -1.667   8.828  -5.649  0.00  0.00    +0.027 A 
ATOM     28  C   UNL     1      -2.973   8.364  -5.735  0.00  0.00    +0.025 A 
ATOM     29  C   UNL     1      -3.779   8.766  -6.783  0.00  0.00    +0.034 A 
ATOM     30  C   UNL     1      -3.282   9.620  -7.750  0.00  0.00    +0.126 A 
ATOM     31  C   UNL     1      -1.980  10.079  -7.670  0.00  0.00    +0.034 A 
ATOM     32  C   UNL     1      -1.171   9.685  -6.622  0.00  0.00    +0.025 A 
BRANCH  30  33
ATOM     33  N   UNL     1      -4.146  10.044  -8.875  0.00  0.00    +0.056 N 
ATOM     34  O   UNL     1      -3.711  10.796  -9.728  0.00  0.00    -0.126 OA
ATOM     35  O   UNL     1      -5.293   9.640  -8.947  0.00  0.00    -0.126 OA
ENDBRANCH  30  33
ENDBRANCH  25  27
ENDBRANCH  24  25
ENDBRANCH  23  24
ENDBRANCH  20  23
ENDBRANCH  19  20
ENDBRANCH   3  19
TORSDOF 11
