REMARK  Name = ZINC63478904
REMARK  15 active torsions:
REMARK  status: ('A' for Active; 'I' for Inactive)
REMARK    1  A    between atoms: C_1  and  C_2
REMARK    2  A    between atoms: C_2  and  O_3
REMARK    3  A    between atoms: O_3  and  C_4
REMARK    4  A    between atoms: C_7  and  O_33
REMARK    5  A    between atoms: C_8  and  N_10
REMARK    6  A    between atoms: C_11  and  C_13
REMARK    7  A    between atoms: C_13  and  N_14
REMARK    8  A    between atoms: N_14  and  C_15
REMARK    9  A    between atoms: N_14  and  S_22
REMARK   10  A    between atoms: C_18  and  C_21
REMARK   11  A    between atoms: S_22  and  C_25
REMARK   12  A    between atoms: C_26  and  C_32
REMARK   13  A    between atoms: C_29  and  C_31
REMARK   14  A    between atoms: O_33  and  C_34
REMARK   15  A    between atoms: C_34  and  C_35
REMARK                            x       y       z     vdW  Elec       q    Type
REMARK                         _______ _______ _______ _____ _____    ______ ____
ROOT
ATOM      1  N   UNL     1      -7.671  -3.061   0.343  0.00  0.00    -0.194 N 
ENDROOT
BRANCH   1   2
ATOM      2  C   UNL     1      -8.178  -2.462  -0.812  0.00  0.00    +0.052 A 
ATOM      3  C   UNL     1      -8.678  -1.167  -0.761  0.00  0.00    +0.025 A 
ATOM      4  C   UNL     1      -9.179  -0.576  -1.905  0.00  0.00    +0.005 A 
ATOM      5  C   UNL     1      -9.182  -1.273  -3.099  0.00  0.00    -0.050 A 
ATOM      6  C   UNL     1      -8.685  -2.562  -3.153  0.00  0.00    +0.005 A 
ATOM      7  C   UNL     1      -8.178  -3.156  -2.014  0.00  0.00    +0.025 A 
ATOM      8  C   UNL     1      -9.730  -0.626  -4.345  0.00  0.00    +0.044 C 
ENDBRANCH   1   2
BRANCH   1   9
ATOM      9  S   UNL     1      -8.193  -2.563   1.833  0.00  0.00    +0.075 S 
ATOM     10  O   UNL     1      -9.531  -2.113   1.665  0.00  0.00    -0.150 OA
ATOM     11  O   UNL     1      -7.845  -3.591   2.751  0.00  0.00    -0.150 OA
BRANCH   9  12
ATOM     12  C   UNL     1      -7.238  -1.149   2.275  0.00  0.00    +0.134 C 
ATOM     13  C   UNL     1      -6.237  -1.075   3.154  0.00  0.00    +0.085 C 
ATOM     14  N   UNL     1      -5.749   0.183   3.221  0.00  0.00    -0.157 NA
ATOM     15  N   UNL     1      -6.311   0.990   2.476  0.00  0.00    -0.178 NA
ATOM     16  C   UNL     1      -7.359   0.266   1.738  0.00  0.00    +0.176 C 
ATOM     17  C   UNL     1      -8.739   0.848   2.051  0.00  0.00    +0.041 C 
ATOM     18  C   UNL     1      -5.721  -2.237   3.963  0.00  0.00    +0.069 C 
ENDBRANCH   9  12
ENDBRANCH   1   9
BRANCH   1  19
ATOM     19  C   UNL     1      -6.676  -4.132   0.236  0.00  0.00    +0.227 C 
BRANCH  19  21
ATOM     20  N   UNL     1      -4.221  -4.329   0.008  0.00  0.00    -0.281 N 
ATOM     21  C   UNL     1      -5.300  -3.529   0.119  0.00  0.00    +0.236 C 
ATOM     22  O   UNL     1      -5.163  -2.323   0.124  0.00  0.00    -0.274 OA
ATOM     23  H   UNL     1      -4.334  -5.289  -0.061  0.00  0.00    +0.155 HD
BRANCH  20  28
ATOM     24  C   UNL     1      -1.443  -1.995  -0.624  0.00  0.00    +0.122 A 
ATOM     25  C   UNL     1      -0.388  -2.676  -0.034  0.00  0.00    +0.049 A 
ATOM     26  C   UNL     1      -0.603  -3.901   0.569  0.00  0.00    +0.051 A 
ATOM     27  C   UNL     1      -1.873  -4.453   0.585  0.00  0.00    +0.142 A 
ATOM     28  C   UNL     1      -2.935  -3.772  -0.006  0.00  0.00    +0.079 A 
ATOM     29  C   UNL     1      -2.718  -2.540  -0.606  0.00  0.00    +0.072 A 
BRANCH  24  30
ATOM     30  O   UNL     1      -1.228  -0.790  -1.216  0.00  0.00    -0.492 OA
BRANCH  30  32
ATOM     31  C   UNL     1       0.154   1.068  -1.905  0.00  0.00    +0.048 C 
ATOM     32  C   UNL     1       0.109  -0.288  -1.198  0.00  0.00    +0.225 C 
ENDBRANCH  30  32
ENDBRANCH  24  30
BRANCH  27  33
ATOM     33  O   UNL     1      -2.084  -5.659   1.178  0.00  0.00    -0.490 OA
BRANCH  33  34
ATOM     34  C   UNL     1      -0.950  -6.301   1.764  0.00  0.00    +0.226 C 
ATOM     35  C   UNL     1      -1.379  -7.635   2.377  0.00  0.00    +0.048 C 
ENDBRANCH  33  34
ENDBRANCH  27  33
ENDBRANCH  20  28
ENDBRANCH  19  21
ENDBRANCH   1  19
TORSDOF 10
