REMARK  Name = ZINC00550849
REMARK  7 active torsions:
REMARK  status: ('A' for Active; 'I' for Inactive)
REMARK    1  A    between atoms: C_1  and  C_2
REMARK    2  A    between atoms: C_2  and  C_3
REMARK    3  A    between atoms: C_2  and  C_4
REMARK    4  A    between atoms: C_2  and  C_5
REMARK    5  A    between atoms: C_12  and  N_25
REMARK    6  A    between atoms: C_13  and  C_23
REMARK    7  A    between atoms: C_14  and  C_16
REMARK                            x       y       z     vdW  Elec       q    Type
REMARK                         _______ _______ _______ _____ _____    ______ ____
ROOT
ATOM      1  C   UNL     1       0.807  -0.537  -1.391  0.00  0.00    +0.049 A 
ATOM      2  C   UNL     1       0.962  -1.844  -1.650  0.00  0.00    +0.046 A 
ATOM      3  C   UNL     1       1.753  -1.970  -2.813  0.00  0.00    +0.244 A 
ATOM      4  N   UNL     1       2.054  -0.773  -3.227  0.00  0.00    -0.135 NA
ATOM      5  N   UNL     1       1.465   0.152  -2.351  0.00  0.00    -0.277 N 
ATOM      6  H   UNL     1       1.522   1.118  -2.421  0.00  0.00    +0.189 HD
ATOM      7  O   UNL     1       2.089  -3.183  -3.328  0.00  0.00    -0.422 OA
ATOM      8  C   UNL     1       1.878  -4.266  -2.555  0.00  0.00    +0.200 C 
ATOM      9  C   UNL     1       1.132  -4.270  -1.430  0.00  0.00    +0.094 C 
ATOM     10  C   UNL     1       0.434  -3.042  -0.903  0.00  0.00    +0.078 C 
ENDROOT
BRANCH  10  11
ATOM     11  C   UNL     1      -1.074  -3.169  -1.131  0.00  0.00    +0.024 C 
ATOM     12  C   UNL     1      -1.341  -3.463  -2.609  0.00  0.00    +0.009 C 
ATOM     13  C   UNL     1      -2.818  -3.842  -2.769  0.00  0.00    +0.005 C 
ATOM     14  C   UNL     1      -3.053  -5.183  -2.071  0.00  0.00    +0.027 C 
ATOM     15  C   UNL     1      -2.478  -5.152  -0.685  0.00  0.00    -0.031 C 
ATOM     16  C   UNL     1      -1.614  -4.280  -0.280  0.00  0.00    -0.027 C 
ENDBRANCH  10  11
BRANCH   1  18
ATOM     17  C   UNL     1      -1.355   0.479  -0.725  0.00  0.00    +0.017 C 
ATOM     18  C   UNL     1       0.034   0.057  -0.241  0.00  0.00    +0.004 C 
ATOM     19  C   UNL     1       0.779   1.279   0.298  0.00  0.00    +0.017 C 
ATOM     20  C   UNL     1      -0.108  -0.986   0.870  0.00  0.00    +0.017 C 
ENDBRANCH   1  18
BRANCH   8  21
ATOM     21  N   UNL     1       2.462  -5.448  -2.938  0.00  0.00    -0.328 N 
ATOM     22  H   UNL     1       3.005  -5.483  -3.741  0.00  0.00    +0.145 HD
ATOM     23  H   UNL     1       2.332  -6.248  -2.405  0.00  0.00    +0.145 HD
ENDBRANCH   8  21
BRANCH   9  24
ATOM     24  C   UNL     1       0.998  -5.497  -0.704  0.00  0.00    +0.100 C 
ATOM     25  N   UNL     1       0.891  -6.470  -0.128  0.00  0.00    -0.191 NA
ENDBRANCH   9  24
TORSDOF 4
