REMARK  Name = ZINC39608742
REMARK  6 active torsions:
REMARK  status: ('A' for Active; 'I' for Inactive)
REMARK    1  A    between atoms: C_4  and  C_7
REMARK    2  A    between atoms: C_7  and  N_8
REMARK    3  A    between atoms: C_11  and  N_14
REMARK    4  A    between atoms: C_15  and  C_17
REMARK    5  A    between atoms: C_28  and  C_30
REMARK    6  A    between atoms: C_33  and  C_35
REMARK                            x       y       z     vdW  Elec       q    Type
REMARK                         _______ _______ _______ _____ _____    ______ ____
ROOT
ATOM      1  C   UNL     1       9.389  -2.329   4.123  0.00  0.00    +0.100 C 
ATOM      2  C   UNL     1       9.612  -3.692   3.430  0.00  0.00    +0.121 C 
ATOM      3  N   UNL     1      10.910  -3.549   2.730  0.00  0.00    -0.294 N 
ATOM      4  C   UNL     1      11.754  -2.777   3.674  0.00  0.00    +0.115 C 
ATOM      5  C   UNL     1      10.798  -1.734   4.285  0.00  0.00    -0.004 C 
ATOM      6  C   UNL     1      11.118  -1.525   5.762  0.00  0.00    -0.010 C 
ATOM      7  C   UNL     1      12.499  -0.879   5.894  0.00  0.00    -0.082 C 
ATOM      8  N   UNL     1      12.511   0.406   5.185  0.00  0.00    +0.379 N 
ATOM      9  C   UNL     1      12.295   0.188   3.749  0.00  0.00    -0.082 C 
ATOM     10  C   UNL     1      10.904  -0.414   3.526  0.00  0.00    -0.010 C 
ATOM     11  C   UNL     1      11.247  -4.015   1.511  0.00  0.00    +0.282 C 
ATOM     12  O   UNL     1      12.364  -3.814   1.071  0.00  0.00    -0.267 OA
ATOM     13  H   UNL     1      11.777   0.996   5.548  0.00  0.00    -0.086 HD
ATOM     14  H   UNL     1      13.402   0.859   5.324  0.00  0.00    -0.086 HD
ENDROOT
BRANCH  11  15
ATOM     15  C   UNL     1      10.270  -4.763   0.717  0.00  0.00    +0.190 A 
ATOM     16  C   UNL     1      10.484  -5.298  -0.535  0.00  0.00    +0.055 A 
ATOM     17  C   UNL     1       9.292  -5.922  -0.916  0.00  0.00    +0.050 A 
ATOM     18  C   UNL     1       8.403  -5.749   0.106  0.00  0.00    +0.136 A 
ATOM     19  O   UNL     1       9.005  -5.054   1.087  0.00  0.00    -0.450 OA
BRANCH  18  20
ATOM     20  C   UNL     1       7.013  -6.247   0.132  0.00  0.00    +0.017 A 
ATOM     21  C   UNL     1       6.508  -6.969  -0.951  0.00  0.00    +0.014 A 
ATOM     22  C   UNL     1       5.209  -7.432  -0.921  0.00  0.00    +0.039 A 
ATOM     23  C   UNL     1       4.406  -7.181   0.180  0.00  0.00    +0.123 A 
ATOM     24  C   UNL     1       4.903  -6.464   1.258  0.00  0.00    +0.039 A 
ATOM     25  C   UNL     1       6.201  -6.002   1.242  0.00  0.00    +0.014 A 
ATOM     26  F   UNL     1       3.135  -7.637   0.204  0.00  0.00    -0.205 F 
ENDBRANCH  18  20
ENDBRANCH  11  15
BRANCH   1  28
ATOM     27  N   UNL     1       7.756  -0.495   3.829  0.00  0.00    -0.314 N 
ATOM     28  C   UNL     1       8.537  -1.434   3.260  0.00  0.00    +0.218 C 
ATOM     29  O   UNL     1       8.555  -1.559   2.054  0.00  0.00    -0.275 OA
ATOM     30  H   UNL     1       7.742  -0.395   4.793  0.00  0.00    +0.149 HD
BRANCH  27  34
ATOM     31  N   UNL     1       5.627   2.394   3.357  0.00  0.00    +0.384 N 
ATOM     32  C   UNL     1       6.608   2.649   2.281  0.00  0.00    -0.077 C 
ATOM     33  C   UNL     1       7.735   1.614   2.520  0.00  0.00    +0.002 C 
ATOM     34  C   UNL     1       6.928   0.375   2.990  0.00  0.00    +0.055 C 
ATOM     35  C   UNL     1       5.780   0.999   3.811  0.00  0.00    -0.056 C 
ATOM     36  H   UNL     1       5.799   3.022   4.128  0.00  0.00    -0.081 HD
BRANCH  31  37
ATOM     37  C   UNL     1       4.266   2.600   2.845  0.00  0.00    -0.043 C 
BRANCH  37  41
ATOM     38  C   UNL     1       3.723   6.721   1.858  0.00  0.00    +0.000 A 
ATOM     39  C   UNL     1       4.198   5.839   0.905  0.00  0.00    +0.000 A 
ATOM     40  C   UNL     1       4.374   4.505   1.225  0.00  0.00    +0.002 A 
ATOM     41  C   UNL     1       4.075   4.054   2.497  0.00  0.00    -0.064 A 
ATOM     42  C   UNL     1       3.600   4.936   3.449  0.00  0.00    +0.002 A 
ATOM     43  C   UNL     1       3.423   6.269   3.130  0.00  0.00    +0.000 A 
ENDBRANCH  37  41
ENDBRANCH  31  37
ENDBRANCH  27  34
ENDBRANCH   1  28
TORSDOF 6
