REMARK  Name = ZINC10315671
REMARK  11 active torsions:
REMARK  status: ('A' for Active; 'I' for Inactive)
REMARK    1  A    between atoms: C_1  and  C_2
REMARK    2  A    between atoms: C_3  and  C_20
REMARK    3  A    between atoms: N_10  and  C_11
REMARK    4  A    between atoms: C_11  and  C_12
REMARK    5  A    between atoms: C_20  and  N_54
REMARK    6  A    between atoms: C_21  and  C_22
REMARK    7  A    between atoms: C_21  and  N_54
REMARK    8  A    between atoms: C_22  and  C_23
REMARK    9  A    between atoms: C_23  and  S_24
REMARK   10  A    between atoms: S_24  and  C_25
REMARK   11  A    between atoms: N_29  and  C_30
REMARK                            x       y       z     vdW  Elec       q    Type
REMARK                         _______ _______ _______ _____ _____    ______ ____
ROOT
ATOM      1  C   UNL     1       2.188   7.025   0.081  0.00  0.00    +0.064 C 
ATOM      2  C   UNL     1       1.637   5.623   0.059  0.00  0.00    +0.018 A 
ATOM      3  C   UNL     1       2.377   4.503   0.054  0.00  0.00    -0.036 A 
ATOM      4  C   UNL     1       1.445   3.373   0.033  0.00  0.00    +0.001 A 
ATOM      5  C   UNL     1       1.602   1.986   0.019  0.00  0.00    +0.010 A 
ATOM      6  C   UNL     1       0.500   1.179   0.000  0.00  0.00    +0.001 A 
ATOM      7  C   UNL     1      -0.776   1.727  -0.011  0.00  0.00    +0.002 A 
ATOM      8  C   UNL     1      -0.954   3.093   0.008  0.00  0.00    +0.026 A 
ATOM      9  C   UNL     1       0.155   3.934   0.027  0.00  0.00    +0.050 A 
ATOM     10  N   UNL     1       0.306   5.302   0.043  0.00  0.00    -0.339 N 
ENDROOT
BRANCH  10  11
ATOM     11  C   UNL     1      -0.793   6.271   0.043  0.00  0.00    +0.158 C 
BRANCH  11  12
ATOM     12  C   UNL     1      -1.057   6.731  -1.367  0.00  0.00    -0.009 A 
ATOM     13  C   UNL     1      -0.308   7.757  -1.911  0.00  0.00    +0.008 A 
ATOM     14  C   UNL     1      -0.546   8.175  -3.207  0.00  0.00    +0.020 A 
ATOM     15  C   UNL     1      -1.543   7.575  -3.956  0.00  0.00    +0.042 A 
ATOM     16  C   UNL     1      -2.296   6.552  -3.410  0.00  0.00    +0.040 A 
ATOM     17  C   UNL     1      -2.054   6.130  -2.115  0.00  0.00    +0.047 A 
ATOM     18 CL   UNL     1      -3.000   4.846  -1.429  0.00  0.00    -0.083 Cl
ATOM     19 CL   UNL     1      -1.847   8.105  -5.581  0.00  0.00    -0.083 Cl
ENDBRANCH  11  12
ENDBRANCH  10  11
BRANCH   3  20
ATOM     20  C   UNL     1       3.882   4.424   0.066  0.00  0.00    -0.044 C 
BRANCH  20  21
ATOM     21  N   UNL     1       4.377   4.414  -1.323  0.00  0.00    +0.382 N 
ATOM     22  H   UNL     1       4.077   5.274  -1.796  0.00  0.00    -0.085 HD
ATOM     23  H   UNL     1       3.989   3.600  -1.815  0.00  0.00    -0.085 HD
BRANCH  21  24
ATOM     24  C   UNL     1       5.850   4.336  -1.342  0.00  0.00    -0.081 C 
BRANCH  24  25
ATOM     25  C   UNL     1       6.333   4.327  -2.794  0.00  0.00    -0.008 C 
BRANCH  25  26
ATOM     26  C   UNL     1       7.861   4.247  -2.822  0.00  0.00    +0.075 C 
BRANCH  26  27
ATOM     27  S   UNL     1       8.433   4.237  -4.539  0.00  0.00    -0.085 S 
BRANCH  27  28
ATOM     28  C   UNL     1      10.173   4.142  -4.282  0.00  0.00    +0.209 A 
ATOM     29  N   UNL     1      10.790   4.096  -3.121  0.00  0.00    -0.102 NA
ATOM     30  N   UNL     1      12.061   4.031  -3.289  0.00  0.00    -0.022 NA
ATOM     31  N   UNL     1      12.347   4.030  -4.546  0.00  0.00    -0.043 NA
ATOM     32  N   UNL     1      11.127   4.097  -5.241  0.00  0.00    -0.223 N 
ATOM     33  C   UNL     1      10.930   4.117  -6.693  0.00  0.00    +0.177 C 
ENDBRANCH  27  28
ENDBRANCH  26  27
ENDBRANCH  25  26
ENDBRANCH  24  25
ENDBRANCH  21  24
ENDBRANCH  20  21
ENDBRANCH   3  20
TORSDOF 9
