REMARK  Name = ZINC38161722
REMARK  9 active torsions:
REMARK  status: ('A' for Active; 'I' for Inactive)
REMARK    1  A    between atoms: C_1  and  C_2
REMARK    2  A    between atoms: C_3  and  O_23
REMARK    3  A    between atoms: C_9  and  O_22
REMARK    4  A    between atoms: C_10  and  C_13
REMARK    5  A    between atoms: C_13  and  N_14
REMARK    6  A    between atoms: C_18  and  C_21
REMARK    7  A    between atoms: O_23  and  C_24
REMARK    8  A    between atoms: C_27  and  O_30
REMARK    9  A    between atoms: O_30  and  C_31
REMARK                            x       y       z     vdW  Elec       q    Type
REMARK                         _______ _______ _______ _____ _____    ______ ____
ROOT
ATOM      1  C   UNL     1      -0.020   1.482  -0.113  0.00  0.00    +0.090 C 
ATOM      2  C   UNL     1      -0.005  -0.024  -0.060  0.00  0.00    +0.148 A 
ATOM      3  C   UNL     1      -1.173  -0.676   0.104  0.00  0.00    +0.213 A 
ATOM      4  C   UNL     1      -1.182  -2.099   0.156  0.00  0.00    +0.235 A 
ATOM      5  O   UNL     1      -2.220  -2.723   0.303  0.00  0.00    -0.283 OA
ATOM      6  C   UNL     1       0.114  -2.786   0.025  0.00  0.00    +0.068 A 
ATOM      7  C   UNL     1       0.207  -4.178   0.064  0.00  0.00    +0.019 A 
ATOM      8  C   UNL     1       1.427  -4.779  -0.061  0.00  0.00    +0.046 A 
ATOM      9  C   UNL     1       2.577  -4.011  -0.227  0.00  0.00    +0.122 A 
ATOM     10  C   UNL     1       2.502  -2.629  -0.268  0.00  0.00    +0.020 A 
ATOM     11  C   UNL     1       1.270  -2.003  -0.142  0.00  0.00    +0.144 A 
ATOM     12  O   UNL     1       1.168  -0.659  -0.184  0.00  0.00    -0.456 OA
ENDROOT
BRANCH   9  13
ATOM     13  O   UNL     1       3.783  -4.623  -0.350  0.00  0.00    -0.506 OA
ATOM     14  H   UNL     1       4.027  -4.832  -1.262  0.00  0.00    +0.292 HD
ENDBRANCH   9  13
BRANCH  10  15
ATOM     15  C   UNL     1       3.753  -1.809  -0.448  0.00  0.00    -0.036 C 
BRANCH  15  16
ATOM     16  N   UNL     1       3.995  -1.591  -1.880  0.00  0.00    +0.383 N 
ATOM     17  C   UNL     1       4.269  -2.879  -2.530  0.00  0.00    -0.078 C 
ATOM     18  C   UNL     1       4.441  -2.669  -4.035  0.00  0.00    -0.018 C 
ATOM     19  C   UNL     1       5.611  -1.713  -4.281  0.00  0.00    -0.001 C 
ATOM     20  C   UNL     1       5.350  -0.400  -3.538  0.00  0.00    -0.031 C 
ATOM     21  C   UNL     1       5.144  -0.694  -2.050  0.00  0.00    -0.075 C 
ATOM     22  C   UNL     1       6.549   0.535  -3.714  0.00  0.00    +0.005 C 
ATOM     23  H   UNL     1       3.178  -1.173  -2.298  0.00  0.00    -0.081 HD
ENDBRANCH  15  16
ENDBRANCH  10  15
BRANCH   3  24
ATOM     24  O   UNL     1      -2.337   0.021   0.219  0.00  0.00    -0.449 OA
BRANCH  24  25
ATOM     25  C   UNL     1      -2.987  -0.016   1.412  0.00  0.00    +0.129 A 
ATOM     26  C   UNL     1      -2.405  -0.647   2.501  0.00  0.00    +0.050 A 
ATOM     27  C   UNL     1      -3.066  -0.685   3.713  0.00  0.00    +0.049 A 
ATOM     28  C   UNL     1      -4.313  -0.092   3.841  0.00  0.00    +0.120 A 
ATOM     29  C   UNL     1      -4.896   0.539   2.752  0.00  0.00    +0.049 A 
ATOM     30  C   UNL     1      -4.232   0.583   1.542  0.00  0.00    +0.050 A 
BRANCH  28  31
ATOM     31  O   UNL     1      -4.965  -0.130   5.034  0.00  0.00    -0.495 OA
ATOM     32  C   UNL     1      -6.245   0.501   5.094  0.00  0.00    +0.277 C 
ENDBRANCH  28  31
ENDBRANCH  24  25
ENDBRANCH   3  24
TORSDOF 6
