REMARK  Name = ZINC08756330
REMARK  8 active torsions:
REMARK  status: ('A' for Active; 'I' for Inactive)
REMARK    1  A    between atoms: C_1  and  N_65
REMARK    2  A    between atoms: C_2  and  C_3
REMARK    3  A    between atoms: C_2  and  N_65
REMARK    4  A    between atoms: N_5  and  C_14
REMARK    5  A    between atoms: C_7  and  C_8
REMARK    6  A    between atoms: C_14  and  C_15
REMARK    7  A    between atoms: C_22  and  N_23
REMARK    8  A    between atoms: C_22  and  N_65
REMARK                            x       y       z     vdW  Elec       q    Type
REMARK                         _______ _______ _______ _____ _____    ______ ____
ROOT
ATOM      1  C   UNL     1       0.876   3.252   0.495  0.00  0.00    -0.019 A 
ATOM      2  C   UNL     1      -0.350   2.757   0.213  0.00  0.00    +0.111 A 
ATOM      3  N   UNL     1      -0.387   1.473   0.630  0.00  0.00    -0.266 N 
ATOM      4  N   UNL     1       0.857   1.162   1.195  0.00  0.00    -0.171 NA
ATOM      5  C   UNL     1       1.623   2.229   1.111  0.00  0.00    +0.094 A 
ENDROOT
BRANCH   5   6
ATOM      6  C   UNL     1       3.025   2.337   1.587  0.00  0.00    +0.002 A 
ATOM      7  C   UNL     1       3.981   2.982   0.804  0.00  0.00    +0.010 A 
ATOM      8  C   UNL     1       5.282   3.083   1.254  0.00  0.00    +0.001 A 
ATOM      9  C   UNL     1       5.639   2.538   2.474  0.00  0.00    +0.000 A 
ATOM     10  C   UNL     1       4.695   1.893   3.252  0.00  0.00    +0.001 A 
ATOM     11  C   UNL     1       3.390   1.790   2.815  0.00  0.00    +0.010 A 
ENDBRANCH   5   6
BRANCH   1  12
ATOM     12  C   UNL     1       1.357   4.649   0.202  0.00  0.00    -0.037 C 
BRANCH  12  14
ATOM     13  C   UNL     1       0.020   5.747   1.896  0.00  0.00    -0.093 C 
ATOM     14  N   UNL     1       1.394   5.413   1.467  0.00  0.00    +0.391 N 
ATOM     15  H   UNL     1       1.839   4.838   2.191  0.00  0.00    -0.079 HD
BRANCH  14  16
ATOM     16  C   UNL     1       2.181   6.651   1.287  0.00  0.00    +0.043 C 
BRANCH  16  17
ATOM     17  N   UNL     1       2.685   7.080   2.594  0.00  0.00    -0.241 N 
ATOM     18  C   UNL     1       3.862   6.683   3.120  0.00  0.00    +0.245 C 
ATOM     19  O   UNL     1       4.673   5.933   2.622  0.00  0.00    -0.273 OA
ATOM     20  C   UNL     1       3.956   7.371   4.463  0.00  0.00    +0.112 C 
ATOM     21  C   UNL     1       5.168   8.295   4.503  0.00  0.00    +0.035 C 
ATOM     22  C   UNL     1       5.230   9.003   5.859  0.00  0.00    +0.003 C 
ATOM     23  C   UNL     1       5.326   7.959   6.973  0.00  0.00    +0.000 C 
ATOM     24  C   UNL     1       4.091   7.057   6.936  0.00  0.00    +0.003 C 
ATOM     25  C   UNL     1       4.025   6.341   5.585  0.00  0.00    +0.035 C 
ATOM     26  N   UNL     1       2.713   8.149   4.553  0.00  0.00    -0.285 N 
ATOM     27  C   UNL     1       2.037   7.919   3.411  0.00  0.00    +0.308 C 
ATOM     28  O   UNL     1       0.958   8.416   3.153  0.00  0.00    -0.252 OA
ATOM     29  H   UNL     1       2.436   8.717   5.288  0.00  0.00    +0.151 HD
ENDBRANCH  16  17
ENDBRANCH  14  16
ENDBRANCH  12  14
ENDBRANCH   1  12
BRANCH   3  30
ATOM     30  C   UNL     1      -1.531   0.566   0.517  0.00  0.00    +0.180 C 
BRANCH  30  31
ATOM     31  C   UNL     1      -1.110  -0.686  -0.208  0.00  0.00    -0.008 A 
ATOM     32  C   UNL     1      -0.816  -1.833   0.506  0.00  0.00    +0.007 A 
ATOM     33  C   UNL     1      -0.429  -2.981  -0.159  0.00  0.00    +0.000 A 
ATOM     34  C   UNL     1      -0.336  -2.984  -1.539  0.00  0.00    +0.001 A 
ATOM     35  C   UNL     1      -0.629  -1.838  -2.253  0.00  0.00    +0.020 A 
ATOM     36  C   UNL     1      -1.022  -0.690  -1.588  0.00  0.00    +0.046 A 
ATOM     37 CL   UNL     1      -1.397   0.748  -2.486  0.00  0.00    -0.083 Cl
ENDBRANCH  30  31
ENDBRANCH   3  30
TORSDOF 7
