REMARK  Name = ZINC09542243
REMARK  4 active torsions:
REMARK  status: ('A' for Active; 'I' for Inactive)
REMARK    1  A    between atoms: C_3  and  C_8
REMARK    2  A    between atoms: C_11  and  C_25
REMARK    3  A    between atoms: C_14  and  C_16
REMARK    4  A    between atoms: C_30  and  O_31
REMARK                            x       y       z     vdW  Elec       q    Type
REMARK                         _______ _______ _______ _____ _____    ______ ____
ROOT
ATOM      1  C   UNL     1       3.672   2.186  -0.021  0.00  0.00    +0.081 C 
ATOM      2  N   UNL     1       4.712   1.393   0.644  0.00  0.00    +0.401 N 
ATOM      3  C   UNL     1       5.925   2.216   0.781  0.00  0.00    -0.028 C 
ATOM      4  C   UNL     1       5.638   3.328   1.796  0.00  0.00    +0.044 C 
ATOM      5  C   UNL     1       4.326   3.982   1.462  0.00  0.00    +0.040 C 
ATOM      6  N   UNL     1       3.474   3.458   0.662  0.00  0.00    -0.299 NA
ATOM      7  H   UNL     1       4.389   1.111   1.557  0.00  0.00    -0.081 HD
ATOM      8  H   UNL     1       4.919   0.576   0.090  0.00  0.00    -0.081 HD
ENDROOT
BRANCH   5   9
ATOM      9  C   UNL     1       4.007   5.282   2.081  0.00  0.00    -0.001 A 
ATOM     10  C   UNL     1       4.917   5.884   2.954  0.00  0.00    +0.013 A 
ATOM     11  C   UNL     1       4.617   7.098   3.532  0.00  0.00    +0.050 A 
ATOM     12  C   UNL     1       3.412   7.728   3.249  0.00  0.00    +0.166 A 
ATOM     13  C   UNL     1       2.499   7.132   2.379  0.00  0.00    +0.167 A 
ATOM     14  C   UNL     1       2.797   5.917   1.792  0.00  0.00    +0.059 A 
ATOM     15  O   UNL     1       1.407   7.944   2.271  0.00  0.00    -0.453 OA
ATOM     16  C   UNL     1       1.481   8.839   3.396  0.00  0.00    +0.466 C 
ATOM     17  O   UNL     1       2.890   8.911   3.684  0.00  0.00    -0.453 OA
ENDBRANCH   5   9
BRANCH   1  20
ATOM     18  C   UNL     1      -0.017   1.377   0.010  0.00  0.00    +0.003 A 
ATOM     19  C   UNL     1       1.171   2.086   0.002  0.00  0.00    +0.004 A 
ATOM     20  C   UNL     1       2.378   1.413  -0.013  0.00  0.00    -0.038 A 
ATOM     21  C   UNL     1       2.399   0.030  -0.021  0.00  0.00    +0.042 A 
ATOM     22  C   UNL     1       1.211  -0.679  -0.013  0.00  0.00    +0.124 A 
ATOM     23  C   UNL     1       0.002  -0.004   0.002  0.00  0.00    +0.038 A 
ATOM     24  F   UNL     1       1.230  -2.030  -0.022  0.00  0.00    -0.205 F 
ENDBRANCH   1  20
BRANCH   3  25
ATOM     25  C   UNL     1       7.066   1.362   1.270  0.00  0.00    -0.018 A 
ATOM     26  C   UNL     1       6.809   0.157   1.896  0.00  0.00    +0.020 A 
ATOM     27  C   UNL     1       7.856  -0.627   2.345  0.00  0.00    +0.018 A 
ATOM     28  C   UNL     1       9.162  -0.207   2.169  0.00  0.00    +0.019 A 
ATOM     29  C   UNL     1       9.424   0.997   1.544  0.00  0.00    +0.047 A 
ATOM     30  C   UNL     1       8.375   1.782   1.088  0.00  0.00    +0.119 A 
ATOM     31 BR   UNL     1       7.501  -2.276   3.201  0.00  0.00    -0.050 Br
BRANCH  30  32
ATOM     32  O   UNL     1       8.630   2.965   0.469  0.00  0.00    -0.507 OA
ATOM     33  H   UNL     1       8.680   3.721   1.070  0.00  0.00    +0.292 HD
ENDBRANCH  30  32
ENDBRANCH   3  25
TORSDOF 4
