REMARK  Name = ZINC33385346
REMARK  14 active torsions:
REMARK  status: ('A' for Active; 'I' for Inactive)
REMARK    1  A    between atoms: C_1  and  C_2
REMARK    2  A    between atoms: C_2  and  C_3
REMARK    3  A    between atoms: C_3  and  C_4
REMARK    4  A    between atoms: C_4  and  O_5
REMARK    5  A    between atoms: O_5  and  C_6
REMARK    6  A    between atoms: C_9  and  C_14
REMARK    7  A    between atoms: C_11  and  O_12
REMARK    8  A    between atoms: O_12  and  C_13
REMARK    9  A    between atoms: C_21  and  C_35
REMARK   10  A    between atoms: C_22  and  C_30
REMARK   11  A    between atoms: C_23  and  C_25
REMARK   12  A    between atoms: C_30  and  O_32
REMARK   13  A    between atoms: O_32  and  C_33
REMARK   14  A    between atoms: C_33  and  C_34
REMARK                            x       y       z     vdW  Elec       q    Type
REMARK                         _______ _______ _______ _____ _____    ______ ____
ROOT
ATOM      1  C   UNL     1      -0.804   5.264   0.036  0.00  0.00    +0.028 C 
ATOM      2  C   UNL     1      -0.399   4.004  -0.269  0.00  0.00    +0.081 A 
ATOM      3  C   UNL     1       0.924   3.524  -0.689  0.00  0.00    +0.268 A 
ATOM      4  O   UNL     1       1.861   4.293  -0.809  0.00  0.00    -0.266 OA
ATOM      5  N   UNL     1       1.071   2.216  -0.936  0.00  0.00    -0.274 N 
ATOM      6  C   UNL     1      -0.020   1.390  -0.784  0.00  0.00    +0.178 A 
ATOM      7  N   UNL     1       0.004   0.099  -0.997  0.00  0.00    -0.228 NA
ATOM      8  C   UNL     1       1.073  -0.586  -1.384  0.00  0.00    +0.053 C 
ATOM      9  C   UNL     1       2.266   0.048  -1.592  0.00  0.00    +0.085 C 
ATOM     10  C   UNL     1       2.326   1.542  -1.369  0.00  0.00    +0.168 C 
ATOM     11  C   UNL     1       0.972  -2.074  -1.595  0.00  0.00    +0.066 C 
ATOM     12  S   UNL     1      -1.334   2.482  -0.276  0.00  0.00    -0.046 S 
ENDROOT
BRANCH   1  16
ATOM     13  C   UNL     1       2.049   8.388   0.349  0.00  0.00    +0.162 A 
ATOM     14  C   UNL     1       2.348   7.125   0.841  0.00  0.00    +0.050 A 
ATOM     15  C   UNL     1       1.423   6.108   0.746  0.00  0.00    +0.012 A 
ATOM     16  C   UNL     1       0.182   6.346   0.143  0.00  0.00    -0.020 A 
ATOM     17  C   UNL     1      -0.118   7.621  -0.353  0.00  0.00    +0.057 A 
ATOM     18  C   UNL     1       0.814   8.635  -0.249  0.00  0.00    +0.162 A 
BRANCH  18  19
ATOM     19  O   UNL     1       0.526   9.874  -0.730  0.00  0.00    -0.491 OA
ATOM     20  C   UNL     1      -0.758  10.055  -1.329  0.00  0.00    +0.277 C 
ENDBRANCH  18  19
BRANCH  13  21
ATOM     21  O   UNL     1       2.963   9.388   0.450  0.00  0.00    -0.488 OA
BRANCH  21  22
ATOM     22  C   UNL     1       4.209   9.067   1.073  0.00  0.00    +0.229 C 
BRANCH  22  23
ATOM     23  C   UNL     1       5.102  10.309   1.095  0.00  0.00    +0.041 C 
BRANCH  23  25
ATOM     24  C   UNL     1       7.329  11.208   1.785  0.00  0.00    +0.004 C 
ATOM     25  C   UNL     1       6.436   9.966   1.763  0.00  0.00    -0.000 C 
ENDBRANCH  23  25
ENDBRANCH  22  23
ENDBRANCH  21  22
ENDBRANCH  13  21
ENDBRANCH   1  16
BRANCH  10  26
ATOM     26  C   UNL     1       2.776   2.185  -2.656  0.00  0.00    +0.017 A 
ATOM     27  C   UNL     1       4.008   2.634  -3.001  0.00  0.00    +0.013 A 
ATOM     28  C   UNL     1       4.191   3.192  -4.253  0.00  0.00    +0.008 A 
ATOM     29  C   UNL     1       3.132   3.283  -5.094  0.00  0.00    +0.045 A 
ATOM     30  S   UNL     1       1.823   2.560  -4.119  0.00  0.00    -0.099 S 
ENDBRANCH  10  26
BRANCH   9  31
ATOM     31  C   UNL     1       3.403  -0.667  -2.002  0.00  0.00    +0.339 C 
ATOM     32  O   UNL     1       3.335  -1.871  -2.177  0.00  0.00    -0.245 OA
BRANCH  31  33
ATOM     33  O   UNL     1       4.572  -0.021  -2.202  0.00  0.00    -0.462 OA
BRANCH  33  34
ATOM     34  C   UNL     1       5.688  -0.812  -2.619  0.00  0.00    +0.229 C 
ATOM     35  C   UNL     1       6.913   0.087  -2.793  0.00  0.00    +0.048 C 
ENDBRANCH  33  34
ENDBRANCH  31  33
ENDBRANCH   9  31
TORSDOF 10
