REMARK  Name = ZINC43670622
REMARK  9 active torsions:
REMARK  status: ('A' for Active; 'I' for Inactive)
REMARK    1  A    between atoms: C_1  and  C_2
REMARK    2  A    between atoms: C_4  and  C_22
REMARK    3  A    between atoms: C_5  and  C_9
REMARK    4  A    between atoms: C_6  and  C_8
REMARK    5  A    between atoms: C_9  and  C_11
REMARK    6  A    between atoms: C_9  and  N_12
REMARK    7  A    between atoms: C_13  and  N_21
REMARK    8  A    between atoms: C_14  and  N_18
REMARK    9  A    between atoms: C_15  and  C_17
REMARK                            x       y       z     vdW  Elec       q    Type
REMARK                         _______ _______ _______ _____ _____    ______ ____
ROOT
ATOM      1  N   UNL     1       2.009  -4.943   0.401  0.00  0.00    -0.241 N 
ATOM      2  C   UNL     1       2.871  -5.577  -0.427  0.00  0.00    +0.146 A 
ATOM      3  C   UNL     1       3.972  -5.908   0.302  0.00  0.00    +0.188 A 
ATOM      4  C   UNL     1       3.770  -5.461   1.611  0.00  0.00    +0.092 A 
ATOM      5  N   UNL     1       2.599  -4.879   1.670  0.00  0.00    -0.172 NA
ATOM      6  C   UNL     1       4.736  -5.617   2.756  0.00  0.00    +0.070 C 
ENDROOT
BRANCH   3   7
ATOM      7  N   UNL     1       5.170  -6.617  -0.202  0.00  0.00    +0.062 N 
ATOM      8  O   UNL     1       6.099  -5.988  -0.653  0.00  0.00    -0.126 OA
ATOM      9  O   UNL     1       5.221  -7.824  -0.161  0.00  0.00    -0.126 OA
ENDBRANCH   3   7
BRANCH   2  10
ATOM     10  N   UNL     1       2.668  -5.842  -1.778  0.00  0.00    -0.342 N 
ATOM     11  H   UNL     1       1.845  -5.564  -2.209  0.00  0.00    +0.144 HD
ATOM     12  H   UNL     1       3.351  -6.305  -2.289  0.00  0.00    +0.144 HD
ENDBRANCH   2  10
BRANCH   1  13
ATOM     13  C   UNL     1       0.694  -4.412   0.035  0.00  0.00    +0.137 C 
ATOM     14  C   UNL     1      -0.120  -4.146   1.302  0.00  0.00    +0.038 C 
BRANCH  13  19
ATOM     15  C   UNL     1       1.356   0.522  -2.899  0.00  0.00    +0.044 C 
ATOM     16  C   UNL     1       1.183  -0.764  -2.134  0.00  0.00    -0.050 A 
ATOM     17  C   UNL     1       0.373  -1.765  -2.638  0.00  0.00    +0.007 A 
ATOM     18  C   UNL     1       0.215  -2.945  -1.936  0.00  0.00    -0.045 A 
ATOM     19  C   UNL     1       0.867  -3.126  -0.731  0.00  0.00    -0.017 A 
ATOM     20  C   UNL     1       1.678  -2.126  -0.228  0.00  0.00    -0.045 A 
ATOM     21  C   UNL     1       1.840  -0.947  -0.931  0.00  0.00    +0.007 A 
ATOM     22  C   UNL     1       2.389  -2.322   1.087  0.00  0.00    +0.044 C 
ATOM     23  C   UNL     1      -0.669  -4.035  -2.485  0.00  0.00    +0.044 C 
ENDBRANCH  13  19
ENDBRANCH   1  13
TORSDOF 4
