REMARK  Name = ZINC35840656
REMARK  19 active torsions:
REMARK  status: ('A' for Active; 'I' for Inactive)
REMARK    1  A    between atoms: C_1  and  C_2
REMARK    2  A    between atoms: C_2  and  C_3
REMARK    3  A    between atoms: C_3  and  C_4
REMARK    4  A    between atoms: C_4  and  O_6
REMARK    5  A    between atoms: O_6  and  C_7
REMARK    6  A    between atoms: C_7  and  C_8
REMARK    7  A    between atoms: C_8  and  C_10
REMARK    8  A    between atoms: C_8  and  O_36
REMARK    9  A    between atoms: C_10  and  N_11
REMARK   10  A    between atoms: N_11  and  C_12
REMARK   11  A    between atoms: N_11  and  C_19
REMARK   12  A    between atoms: C_12  and  C_13
REMARK   13  A    between atoms: C_19  and  C_20
REMARK   14  A    between atoms: N_24  and  C_25
REMARK   15  A    between atoms: C_25  and  C_26
REMARK   16  A    between atoms: C_29  and  C_32
REMARK   17  A    between atoms: C_32  and  C_33
REMARK   18  A    between atoms: C_32  and  C_34
REMARK   19  A    between atoms: C_32  and  C_35
REMARK                            x       y       z     vdW  Elec       q    Type
REMARK                         _______ _______ _______ _____ _____    ______ ____
ROOT
ATOM      1  N   UNL     1       2.940  -7.692  -4.336  0.00  0.00    +0.388 N 
ATOM      2  H   UNL     1       3.843  -7.599  -4.776  0.00  0.00    -0.081 HD
ENDROOT
BRANCH   1   3
ATOM      3  C   UNL     1       3.105  -7.706  -2.876  0.00  0.00    -0.043 C 
BRANCH   3   4
ATOM      4  C   UNL     1       4.111  -6.628  -2.467  0.00  0.00    +0.136 C 
BRANCH   4   5
ATOM      5  O   UNL     1       5.320  -6.799  -3.209  0.00  0.00    -0.390 OA
ATOM      6  H   UNL     1       5.748  -7.655  -3.072  0.00  0.00    +0.210 HD
ENDBRANCH   4   5
BRANCH   4   7
ATOM      7  C   UNL     1       4.409  -6.750  -0.971  0.00  0.00    +0.261 C 
BRANCH   7   8
ATOM      8  O   UNL     1       5.257  -5.674  -0.565  0.00  0.00    -0.462 OA
BRANCH   8   9
ATOM      9  C   UNL     1       5.615  -5.635   0.728  0.00  0.00    +0.307 C 
ATOM     10  O   UNL     1       5.221  -6.486   1.490  0.00  0.00    -0.251 OA
BRANCH   9  11
ATOM     11  C   UNL     1       6.508  -4.529   1.230  0.00  0.00    +0.120 C 
BRANCH  11  13
ATOM     12  C   UNL     1       7.667  -3.595   3.236  0.00  0.00    +0.004 C 
ATOM     13  C   UNL     1       6.761  -4.718   2.727  0.00  0.00    +0.008 C 
ENDBRANCH  11  13
ENDBRANCH   9  11
ENDBRANCH   8   9
ENDBRANCH   7   8
ENDBRANCH   4   7
ENDBRANCH   3   4
ENDBRANCH   1   3
BRANCH   1  14
ATOM     14  C   UNL     1       2.088  -6.560  -4.722  0.00  0.00    -0.042 C 
BRANCH  14  15
ATOM     15  C   UNL     1       2.807  -5.268  -4.429  0.00  0.00    -0.064 A 
ATOM     16  C   UNL     1       2.293  -4.386  -3.497  0.00  0.00    +0.002 A 
ATOM     17  C   UNL     1       2.952  -3.201  -3.229  0.00  0.00    +0.000 A 
ATOM     18  C   UNL     1       4.126  -2.898  -3.893  0.00  0.00    +0.000 A 
ATOM     19  C   UNL     1       4.641  -3.780  -4.824  0.00  0.00    +0.000 A 
ATOM     20  C   UNL     1       3.984  -4.967  -5.089  0.00  0.00    +0.002 A 
ENDBRANCH  14  15
ENDBRANCH   1  14
BRANCH   1  21
ATOM     21  C   UNL     1       2.311  -8.948  -4.769  0.00  0.00    -0.024 C 
BRANCH  21  22
ATOM     22  C   UNL     1       2.301  -9.011  -6.274  0.00  0.00    +0.003 A 
ATOM     23  C   UNL     1       3.248  -9.580  -7.048  0.00  0.00    +0.021 A 
ATOM     24  C   UNL     1       2.850  -9.417  -8.390  0.00  0.00    +0.019 A 
ATOM     25  C   UNL     1       1.676  -8.755  -8.385  0.00  0.00    +0.086 A 
ATOM     26  N   UNL     1       1.331  -8.508  -7.089  0.00  0.00    -0.348 N 
BRANCH  26  27
ATOM     27  C   UNL     1       0.120  -7.813  -6.646  0.00  0.00    +0.156 C 
BRANCH  27  28
ATOM     28  C   UNL     1      -1.027  -8.790  -6.588  0.00  0.00    -0.028 A 
ATOM     29  C   UNL     1      -1.773  -9.049  -7.722  0.00  0.00    +0.005 A 
ATOM     30  C   UNL     1      -2.824  -9.944  -7.668  0.00  0.00    +0.004 A 
ATOM     31  C   UNL     1      -3.129 -10.582  -6.481  0.00  0.00    -0.042 A 
ATOM     32  C   UNL     1      -2.382 -10.325  -5.346  0.00  0.00    +0.004 A 
ATOM     33  C   UNL     1      -1.328  -9.432  -5.401  0.00  0.00    +0.005 A 
BRANCH  31  34
ATOM     34  C   UNL     1      -4.276 -11.558  -6.422  0.00  0.00    -0.013 C 
ATOM     35  C   UNL     1      -3.967 -12.762  -7.314  0.00  0.00    +0.015 C 
ATOM     36  C   UNL     1      -4.472 -12.029  -4.979  0.00  0.00    +0.015 C 
ATOM     37  C   UNL     1      -5.553 -10.874  -6.913  0.00  0.00    +0.015 C 
ENDBRANCH  31  34
ENDBRANCH  27  28
ENDBRANCH  26  27
ENDBRANCH  21  22
ENDBRANCH   1  21
TORSDOF 15
