REMARK  Name = ZINC22144280
REMARK  11 active torsions:
REMARK  status: ('A' for Active; 'I' for Inactive)
REMARK    1  A    between atoms: C_1  and  C_2
REMARK    2  A    between atoms: C_3  and  C_29
REMARK    3  A    between atoms: C_4  and  C_28
REMARK    4  A    between atoms: C_7  and  C_8
REMARK    5  A    between atoms: C_8  and  C_10
REMARK    6  A    between atoms: C_10  and  C_12
REMARK    7  A    between atoms: C_10  and  S_13
REMARK    8  A    between atoms: S_13  and  C_14
REMARK    9  A    between atoms: C_17  and  C_19
REMARK   10  A    between atoms: C_29  and  O_31
REMARK   11  A    between atoms: O_31  and  C_32
REMARK                            x       y       z     vdW  Elec       q    Type
REMARK                         _______ _______ _______ _____ _____    ______ ____
ROOT
ATOM      1  C   UNL     1      -5.218  -3.471   0.033  0.00  0.00    +0.125 C 
ATOM      2  C   UNL     1      -5.559  -2.741  -1.267  0.00  0.00    +0.028 C 
ENDROOT
BRANCH   1   3
ATOM      3  C   UNL     1      -6.077  -4.703   0.159  0.00  0.00    +0.192 C 
ATOM      4  O   UNL     1      -5.656  -5.778  -0.216  0.00  0.00    -0.289 OA
BRANCH   3  11
ATOM      5  C   UNL     1      -8.033  -7.092   0.521  0.00  0.00    +0.047 C 
ATOM      6  C   UNL     1      -8.262  -5.647   0.885  0.00  0.00    -0.008 A 
ATOM      7  C   UNL     1      -9.426  -5.101   1.468  0.00  0.00    +0.083 A 
ATOM      8  C   UNL     1      -9.204  -3.744   1.630  0.00  0.00    +0.028 A 
ATOM      9  N   UNL     1      -7.974  -3.454   1.181  0.00  0.00    -0.355 N 
ATOM     10  H   UNL     1      -7.601  -2.420   1.228  0.00  0.00    +0.166 HD
ATOM     11  C   UNL     1      -7.376  -4.606   0.713  0.00  0.00    +0.087 A 
ATOM     12  C   UNL     1     -10.180  -2.759   2.218  0.00  0.00    +0.064 C 
BRANCH   7  13
ATOM     13  C   UNL     1     -10.647  -5.837   1.837  0.00  0.00    +0.341 C 
ATOM     14  O   UNL     1     -10.755  -6.319   2.947  0.00  0.00    -0.245 OA
BRANCH  13  15
ATOM     15  O   UNL     1     -11.646  -5.975   0.942  0.00  0.00    -0.464 OA
ATOM     16  C   UNL     1     -12.820  -6.713   1.374  0.00  0.00    +0.280 C 
ENDBRANCH  13  15
ENDBRANCH   7  13
ENDBRANCH   3  11
ENDBRANCH   1   3
BRANCH   1  17
ATOM     17  S   UNL     1      -3.473  -3.953   0.015  0.00  0.00    -0.054 S 
BRANCH  17  18
ATOM     18  C   UNL     1      -2.717  -2.361   0.016  0.00  0.00    +0.278 A 
ATOM     19  N   UNL     1      -3.339  -1.206   0.028  0.00  0.00    -0.101 NA
ATOM     20  N   UNL     1      -2.474  -0.253   0.025  0.00  0.00    -0.106 NA
ATOM     21  C   UNL     1      -1.266  -0.762   0.011  0.00  0.00    +0.249 A 
ATOM     22  O   UNL     1      -1.394  -2.107  -0.001  0.00  0.00    -0.411 OA
BRANCH  21  23
ATOM     23  C   UNL     1       0.002  -0.004   0.002  0.00  0.00    +0.042 A 
ATOM     24  C   UNL     1       1.223  -0.682  -0.013  0.00  0.00    +0.017 A 
ATOM     25  C   UNL     1       2.405   0.027  -0.021  0.00  0.00    +0.050 A 
ATOM     26  C   UNL     1       2.388   1.415  -0.014  0.00  0.00    +0.166 A 
ATOM     27  C   UNL     1       1.172   2.098   0.002  0.00  0.00    +0.167 A 
ATOM     28  C   UNL     1      -0.017   1.392   0.010  0.00  0.00    +0.062 A 
ATOM     29  O   UNL     1       1.426   3.439   0.006  0.00  0.00    -0.453 OA
ATOM     30  C   UNL     1       2.803   3.568   0.406  0.00  0.00    +0.466 C 
ATOM     31  O   UNL     1       3.401   2.329  -0.019  0.00  0.00    -0.453 OA
ENDBRANCH  21  23
ENDBRANCH  17  18
ENDBRANCH   1  17
TORSDOF 7
