REMARK  Name = ZINC15735306
REMARK  10 active torsions:
REMARK  status: ('A' for Active; 'I' for Inactive)
REMARK    1  A    between atoms: C_1  and  C_2
REMARK    2  A    between atoms: C_2  and  O_3
REMARK    3  A    between atoms: O_3  and  C_4
REMARK    4  A    between atoms: C_4  and  C_5
REMARK    5  A    between atoms: C_5  and  C_6
REMARK    6  A    between atoms: C_6  and  N_7
REMARK    7  A    between atoms: C_22  and  C_24
REMARK    8  A    between atoms: C_27  and  C_30
REMARK    9  A    between atoms: C_30  and  C_31
REMARK   10  A    between atoms: C_30  and  C_32
REMARK                            x       y       z     vdW  Elec       q    Type
REMARK                         _______ _______ _______ _____ _____    ______ ____
ROOT
ATOM      1  N   UNL     1      -2.132   7.050   2.840  0.00  0.00    -0.299 N 
ATOM      2  C   UNL     1      -1.066   6.635   2.127  0.00  0.00    +0.303 C 
ATOM      3  O   UNL     1       0.038   6.621   2.637  0.00  0.00    -0.253 OA
ATOM      4  N   UNL     1      -1.224   6.237   0.850  0.00  0.00    -0.269 N 
ATOM      5  C   UNL     1      -2.546   6.240   0.197  0.00  0.00    +0.148 C 
ATOM      6  C   UNL     1      -2.764   5.032  -0.687  0.00  0.00    +0.005 A 
ATOM      7  C   UNL     1      -3.681   4.008  -0.377  0.00  0.00    -0.030 A 
ATOM      8  C   UNL     1      -3.805   2.983  -1.261  0.00  0.00    -0.005 A 
ATOM      9  S   UNL     1      -2.655   3.391  -2.549  0.00  0.00    -0.075 S 
ATOM     10  C   UNL     1      -2.062   4.899  -1.845  0.00  0.00    +0.090 A 
ATOM     11  N   UNL     1      -1.092   5.795  -2.275  0.00  0.00    -0.312 N 
ATOM     12  C   UNL     1      -0.873   6.367  -3.482  0.00  0.00    +0.092 A 
ATOM     13  C   UNL     1       0.149   7.242  -3.350  0.00  0.00    +0.020 A 
ATOM     14  C   UNL     1       0.590   7.184  -2.011  0.00  0.00    +0.025 A 
ATOM     15  C   UNL     1      -0.160   6.268  -1.381  0.00  0.00    +0.049 A 
ATOM     16  C   UNL     1      -0.076   5.774   0.033  0.00  0.00    +0.155 C 
ATOM     17  C   UNL     1      -4.705   1.794  -1.160  0.00  0.00    +0.043 C 
ATOM     18  C   UNL     1      -5.220   1.701   0.285  0.00  0.00    +0.005 C 
ATOM     19  C   UNL     1      -5.707   3.084   0.724  0.00  0.00    +0.005 C 
ATOM     20  C   UNL     1      -4.517   4.028   0.900  0.00  0.00    +0.036 C 
ATOM     21  H   UNL     1      -3.013   7.062   2.434  0.00  0.00    +0.150 HD
ENDROOT
BRANCH  16  22
ATOM     22  C   UNL     1      -0.056   4.267   0.025  0.00  0.00    -0.021 A 
ATOM     23  C   UNL     1      -0.704   3.562   1.022  0.00  0.00    +0.006 A 
ATOM     24  C   UNL     1      -0.685   2.180   1.015  0.00  0.00    +0.004 A 
ATOM     25  C   UNL     1      -0.018   1.503   0.010  0.00  0.00    -0.045 A 
ATOM     26  C   UNL     1       0.634   2.208  -0.984  0.00  0.00    +0.004 A 
ATOM     27  C   UNL     1       0.611   3.590  -0.979  0.00  0.00    +0.006 A 
BRANCH  25  28
ATOM     28  C   UNL     1       0.003  -0.004   0.003  0.00  0.00    +0.013 C 
ATOM     29  C   UNL     1      -0.639  -0.516  -1.288  0.00  0.00    +0.012 C 
ATOM     30  C   UNL     1       1.450  -0.494   0.083  0.00  0.00    +0.012 C 
ENDBRANCH  25  28
ENDBRANCH  16  22
BRANCH   1  31
ATOM     31  C   UNL     1      -1.960   7.483   4.229  0.00  0.00    +0.108 C 
BRANCH  31  32
ATOM     32  C   UNL     1      -3.315   7.900   4.805  0.00  0.00    +0.047 C 
BRANCH  32  33
ATOM     33  C   UNL     1      -3.136   8.353   6.255  0.00  0.00    +0.161 C 
BRANCH  33  34
ATOM     34  O   UNL     1      -4.402   8.742   6.792  0.00  0.00    -0.380 OA
BRANCH  34  36
ATOM     35  C   UNL     1      -5.749   9.574   8.618  0.00  0.00    +0.034 C 
ATOM     36  C   UNL     1      -4.345   9.184   8.150  0.00  0.00    +0.156 C 
ENDBRANCH  34  36
ENDBRANCH  33  34
ENDBRANCH  32  33
ENDBRANCH  31  32
ENDBRANCH   1  31
TORSDOF 7
