REMARK  Name = ZINC44900058
REMARK  9 active torsions:
REMARK  status: ('A' for Active; 'I' for Inactive)
REMARK    1  A    between atoms: C_1  and  C_2
REMARK    2  A    between atoms: C_5  and  C_8
REMARK    3  A    between atoms: C_8  and  C_10
REMARK    4  A    between atoms: C_8  and  N_16
REMARK    5  A    between atoms: C_17  and  C_19
REMARK    6  A    between atoms: C_19  and  N_20
REMARK    7  A    between atoms: N_20  and  C_21
REMARK    8  A    between atoms: N_20  and  S_29
REMARK    9  A    between atoms: S_29  and  C_32
REMARK                            x       y       z     vdW  Elec       q    Type
REMARK                         _______ _______ _______ _____ _____    ______ ____
ROOT
ATOM      1  C   UNL     1      -2.178  -6.781   0.774  0.00  0.00    +0.227 C 
ENDROOT
BRANCH   1   3
ATOM      2  N   UNL     1      -1.694  -6.451  -1.629  0.00  0.00    -0.303 N 
ATOM      3  C   UNL     1      -2.151  -7.261  -0.654  0.00  0.00    +0.233 C 
ATOM      4  O   UNL     1      -2.542  -8.377  -0.925  0.00  0.00    -0.274 OA
ATOM      5  H   UNL     1      -1.382  -5.559  -1.411  0.00  0.00    +0.150 HD
BRANCH   2   6
ATOM      6  C   UNL     1      -1.669  -6.918  -3.017  0.00  0.00    +0.134 C 
BRANCH   6  11
ATOM      7  C   UNL     1      -1.880  -2.373  -6.580  0.00  0.00    +0.044 C 
ATOM      8  C   UNL     1      -1.825  -3.558  -5.651  0.00  0.00    -0.050 A 
ATOM      9  C   UNL     1      -2.539  -4.704  -5.949  0.00  0.00    +0.004 A 
ATOM     10  C   UNL     1      -2.488  -5.791  -5.097  0.00  0.00    +0.006 A 
ATOM     11  C   UNL     1      -1.723  -5.733  -3.947  0.00  0.00    -0.023 A 
ATOM     12  C   UNL     1      -1.008  -4.588  -3.649  0.00  0.00    +0.006 A 
ATOM     13  C   UNL     1      -1.055  -3.502  -4.504  0.00  0.00    +0.004 A 
ENDBRANCH   6  11
BRANCH   6  14
ATOM     14  C   UNL     1      -0.400  -7.692  -3.264  0.00  0.00    -0.023 A 
ATOM     15  C   UNL     1       0.793  -7.258  -2.715  0.00  0.00    +0.006 A 
ATOM     16  C   UNL     1       1.957  -7.968  -2.942  0.00  0.00    +0.000 A 
ATOM     17  C   UNL     1       1.929  -9.113  -3.716  0.00  0.00    +0.000 A 
ATOM     18  C   UNL     1       0.736  -9.548  -4.264  0.00  0.00    +0.000 A 
ATOM     19  C   UNL     1      -0.429  -8.840  -4.034  0.00  0.00    +0.006 A 
ENDBRANCH   6  14
ENDBRANCH   2   6
ENDBRANCH   1   3
BRANCH   1  20
ATOM     20  N   UNL     1      -2.713  -7.838   1.635  0.00  0.00    -0.194 N 
BRANCH  20  21
ATOM     21  C   UNL     1      -1.866  -8.836   2.127  0.00  0.00    +0.053 A 
ATOM     22  C   UNL     1      -2.012 -10.148   1.694  0.00  0.00    +0.027 A 
ATOM     23  C   UNL     1      -1.175 -11.132   2.181  0.00  0.00    +0.042 A 
ATOM     24  C   UNL     1      -0.190 -10.812   3.101  0.00  0.00    +0.142 A 
ATOM     25  C   UNL     1      -0.042  -9.505   3.534  0.00  0.00    +0.078 A 
ATOM     26  C   UNL     1      -0.875  -8.516   3.045  0.00  0.00    +0.047 A 
ATOM     27 CL   UNL     1       1.193  -9.107   4.688  0.00  0.00    -0.081 Cl
ATOM     28  F   UNL     1       0.627 -11.777   3.576  0.00  0.00    -0.204 F 
ENDBRANCH  20  21
BRANCH  20  29
ATOM     29  S   UNL     1      -4.323  -7.851   2.026  0.00  0.00    +0.075 S 
ATOM     30  O   UNL     1      -4.458  -8.696   3.161  0.00  0.00    -0.150 OA
ATOM     31  O   UNL     1      -4.751  -6.496   2.030  0.00  0.00    -0.150 OA
BRANCH  29  32
ATOM     32  C   UNL     1      -5.174  -8.645   0.703  0.00  0.00    +0.109 A 
ATOM     33  C   UNL     1      -5.523  -7.925  -0.424  0.00  0.00    +0.029 A 
ATOM     34  C   UNL     1      -6.191  -8.547  -1.462  0.00  0.00    +0.002 A 
ATOM     35  C   UNL     1      -6.508  -9.890  -1.374  0.00  0.00    +0.000 A 
ATOM     36  C   UNL     1      -6.158 -10.610  -0.247  0.00  0.00    +0.002 A 
ATOM     37  C   UNL     1      -5.487  -9.988   0.790  0.00  0.00    +0.029 A 
ENDBRANCH  29  32
ENDBRANCH  20  29
ENDBRANCH   1  20
TORSDOF 8
