REMARK  Name = ZINC49486200
REMARK  9 active torsions:
REMARK  status: ('A' for Active; 'I' for Inactive)
REMARK    1  A    between atoms: N_9  and  C_12
REMARK    2  A    between atoms: C_12  and  C_13
REMARK    3  A    between atoms: C_13  and  C_14
REMARK    4  A    between atoms: C_14  and  C_15
REMARK    5  A    between atoms: N_17  and  C_18
REMARK    6  A    between atoms: C_18  and  C_19
REMARK    7  A    between atoms: C_19  and  C_21
REMARK    8  A    between atoms: C_19  and  N_26
REMARK    9  A    between atoms: N_29  and  C_32
REMARK                            x       y       z     vdW  Elec       q    Type
REMARK                         _______ _______ _______ _____ _____    ______ ____
ROOT
ATOM      1  C   UNL     1       6.498  -8.351  -4.663  0.00  0.00    +0.017 C 
ENDROOT
BRANCH   1   2
ATOM      2  N   UNL     1       7.772  -8.517  -3.951  0.00  0.00    +0.389 N 
ATOM      3  C   UNL     1       8.795  -7.671  -4.580  0.00  0.00    -0.059 C 
ATOM      4  C   UNL     1      10.094  -7.755  -3.771  0.00  0.00    +0.086 C 
ATOM      5  N   UNL     1      10.472  -9.170  -3.641  0.00  0.00    -0.333 N 
ATOM      6  C   UNL     1       9.452 -10.120  -3.171  0.00  0.00    +0.086 C 
ATOM      7  C   UNL     1       8.184  -9.925  -4.008  0.00  0.00    -0.059 C 
ATOM      8  H   UNL     1       7.657  -8.240  -2.988  0.00  0.00    -0.081 HD
BRANCH   5   9
ATOM      9  C   UNL     1      11.765  -9.601  -3.955  0.00  0.00    +0.030 A 
ATOM     10  C   UNL     1      12.746  -8.674  -4.279  0.00  0.00    +0.026 A 
ATOM     11  C   UNL     1      14.023  -9.101  -4.589  0.00  0.00    +0.040 A 
ATOM     12  C   UNL     1      14.324 -10.453  -4.576  0.00  0.00    +0.124 A 
ATOM     13  C   UNL     1      13.347 -11.378  -4.252  0.00  0.00    +0.040 A 
ATOM     14  C   UNL     1      12.070 -10.955  -3.937  0.00  0.00    +0.026 A 
ATOM     15  F   UNL     1      15.573 -10.868  -4.879  0.00  0.00    -0.205 F 
ENDBRANCH   5   9
ENDBRANCH   1   2
BRANCH   1  16
ATOM     16  C   UNL     1       6.642  -8.855  -6.076  0.00  0.00    +0.093 A 
ATOM     17  C   UNL     1       5.803  -9.702  -6.699  0.00  0.00    +0.043 A 
ATOM     18  C   UNL     1       6.316  -9.903  -8.001  0.00  0.00    +0.041 A 
ATOM     19  C   UNL     1       7.438  -9.168  -8.095  0.00  0.00    +0.195 A 
ATOM     20  O   UNL     1       7.628  -8.530  -6.928  0.00  0.00    -0.469 OA
ENDBRANCH   1  16
BRANCH   1  21
ATOM     21  C   UNL     1       6.115  -6.870  -4.686  0.00  0.00    +0.096 C 
BRANCH  21  24
ATOM     22  C   UNL     1       5.834  -5.050  -3.091  0.00  0.00    +0.213 C 
ATOM     23  O   UNL     1       5.696  -4.290  -4.027  0.00  0.00    -0.276 OA
ATOM     24  N   UNL     1       6.048  -6.361  -3.314  0.00  0.00    -0.316 N 
ATOM     25  H   UNL     1       6.158  -6.969  -2.566  0.00  0.00    +0.149 HD
BRANCH  22  26
ATOM     26  C   UNL     1       5.765  -4.526  -1.680  0.00  0.00    +0.097 C 
BRANCH  26  27
ATOM     27  C   UNL     1       5.514  -3.017  -1.707  0.00  0.00    +0.029 C 
BRANCH  27  28
ATOM     28  C   UNL     1       5.444  -2.486  -0.274  0.00  0.00    +0.117 C 
BRANCH  28  37
ATOM     29  C   UNL     1       3.773   3.364  -0.373  0.00  0.00    +0.001 A 
ATOM     30  C   UNL     1       5.137   3.590  -0.389  0.00  0.00    +0.001 A 
ATOM     31  C   UNL     1       6.025   2.526  -0.377  0.00  0.00    +0.014 A 
ATOM     32  C   UNL     1       5.542   1.228  -0.347  0.00  0.00    +0.049 A 
ATOM     33  C   UNL     1       4.152   0.997  -0.330  0.00  0.00    +0.049 A 
ATOM     34  C   UNL     1       3.275   2.070  -0.343  0.00  0.00    +0.014 A 
ATOM     35  C   UNL     1       3.986  -0.471  -0.300  0.00  0.00    +0.254 C 
ATOM     36  O   UNL     1       2.926  -1.064  -0.279  0.00  0.00    -0.270 OA
ATOM     37  N   UNL     1       5.205  -1.041  -0.300  0.00  0.00    -0.234 N 
ATOM     38  C   UNL     1       6.174  -0.109  -0.327  0.00  0.00    +0.254 C 
ATOM     39  O   UNL     1       7.369  -0.328  -0.334  0.00  0.00    -0.270 OA
ENDBRANCH  28  37
ENDBRANCH  27  28
ENDBRANCH  26  27
ENDBRANCH  22  26
ENDBRANCH  21  24
ENDBRANCH   1  21
TORSDOF 9
