REMARK  Name = ZINC35316575
REMARK  10 active torsions:
REMARK  status: ('A' for Active; 'I' for Inactive)
REMARK    1  A    between atoms: C_1  and  C_2
REMARK    2  A    between atoms: C_2  and  C_3
REMARK    3  A    between atoms: C_2  and  C_4
REMARK    4  A    between atoms: C_2  and  C_5
REMARK    5  A    between atoms: C_11  and  C_14
REMARK    6  A    between atoms: N_16  and  C_17
REMARK    7  A    between atoms: C_17  and  C_18
REMARK    8  A    between atoms: C_18  and  C_19
REMARK    9  A    between atoms: C_18  and  C_20
REMARK   10  A    between atoms: C_18  and  N_21
REMARK                            x       y       z     vdW  Elec       q    Type
REMARK                         _______ _______ _______ _____ _____    ______ ____
ROOT
ATOM      1  C   UNL     1       4.849   0.936  -2.903  0.00  0.00    +0.266 C 
ATOM      2  O   UNL     1       4.439   1.605  -1.976  0.00  0.00    -0.268 OA
ATOM      3  N   UNL     1       6.048   1.210  -3.455  0.00  0.00    -0.311 N 
ATOM      4  H   UNL     1       6.375   0.676  -4.196  0.00  0.00    +0.149 HD
ENDROOT
BRANCH   1  10
ATOM      5  C   UNL     1       0.518  -0.452  -1.939  0.00  0.00    -0.001 C 
ATOM      6  C   UNL     1       0.494  -1.974  -2.099  0.00  0.00    +0.012 C 
ATOM      7  C   UNL     1       1.038  -2.351  -3.482  0.00  0.00    +0.078 C 
ATOM      8  C   UNL     1       2.351  -1.637  -3.689  0.00  0.00    +0.141 A 
ATOM      9  C   UNL     1       2.764  -0.583  -2.952  0.00  0.00    +0.027 A 
ATOM     10  C   UNL     1       4.030  -0.184  -3.428  0.00  0.00    +0.171 A 
ATOM     11  N   UNL     1       4.352  -0.981  -4.420  0.00  0.00    -0.073 NA
ATOM     12  O   UNL     1       3.294  -1.908  -4.596  0.00  0.00    -0.359 OA
ATOM     13  C   UNL     1       1.970   0.027  -1.823  0.00  0.00    +0.045 C 
BRANCH   5  15
ATOM     14  C   UNL     1      -0.226   1.462  -0.515  0.00  0.00    +0.011 C 
ATOM     15  C   UNL     1      -0.251  -0.060  -0.675  0.00  0.00    -0.035 C 
ATOM     16  C   UNL     1       0.406  -0.711   0.544  0.00  0.00    +0.011 C 
ATOM     17  C   UNL     1      -1.699  -0.537  -0.790  0.00  0.00    +0.011 C 
ENDBRANCH   5  15
ENDBRANCH   1  10
BRANCH   3  18
ATOM     18  C   UNL     1       6.857   2.316  -2.936  0.00  0.00    +0.092 C 
BRANCH  18  19
ATOM     19  C   UNL     1       8.213   2.331  -3.644  0.00  0.00    -0.055 C 
ATOM     20  C   UNL     1       8.011   2.649  -5.127  0.00  0.00    -0.008 C 
ATOM     21  C   UNL     1       9.107   3.399  -3.010  0.00  0.00    -0.008 C 
BRANCH  19  22
ATOM     22  N   UNL     1       8.851   1.015  -3.508  0.00  0.00    +0.384 N 
ATOM     23  C   UNL     1       9.004   0.692  -2.084  0.00  0.00    -0.078 C 
ATOM     24  C   UNL     1       9.594  -0.713  -1.936  0.00  0.00    -0.019 C 
ATOM     25  C   UNL     1      10.962  -0.761  -2.623  0.00  0.00    -0.004 C 
ATOM     26  C   UNL     1      10.801  -0.350  -4.089  0.00  0.00    -0.019 C 
ATOM     27  C   UNL     1      10.167   1.041  -4.157  0.00  0.00    -0.078 C 
ATOM     28  H   UNL     1       8.273   0.315  -3.949  0.00  0.00    -0.081 HD
ENDBRANCH  19  22
ENDBRANCH  18  19
ENDBRANCH   3  18
TORSDOF 5
