REMARK  Name = ZINC16013019
REMARK  8 active torsions:
REMARK  status: ('A' for Active; 'I' for Inactive)
REMARK    1  A    between atoms: C_1  and  C_2
REMARK    2  A    between atoms: C_7  and  N_8
REMARK    3  A    between atoms: C_9  and  C_11
REMARK    4  A    between atoms: C_11  and  N_12
REMARK    5  A    between atoms: N_12  and  C_13
REMARK    6  A    between atoms: C_14  and  C_16
REMARK    7  A    between atoms: C_16  and  C_17
REMARK    8  A    between atoms: C_20  and  C_22
REMARK                            x       y       z     vdW  Elec       q    Type
REMARK                         _______ _______ _______ _____ _____    ______ ____
ROOT
ATOM      1  N   UNL     1      -0.001   1.461   0.009  0.00  0.00    -0.295 N 
ATOM      2  C   UNL     1      -1.279   2.177   0.009  0.00  0.00    +0.132 C 
ATOM      3  C   UNL     1       1.157   2.149   0.011  0.00  0.00    +0.222 C 
ATOM      4  O   UNL     1       2.215   1.556   0.006  0.00  0.00    -0.275 OA
ENDROOT
BRANCH   1   5
ATOM      5  C   UNL     1       0.017  -0.004   0.002  0.00  0.00    +0.203 C 
BRANCH   5   7
ATOM      6  N   UNL     1       0.043  -1.840   1.659  0.00  0.00    -0.284 N 
ATOM      7  C   UNL     1       0.026  -0.514   1.420  0.00  0.00    +0.235 C 
ATOM      8  O   UNL     1       0.017   0.269   2.346  0.00  0.00    -0.274 OA
ATOM      9  H   UNL     1      -0.031  -2.467   0.922  0.00  0.00    +0.155 HD
BRANCH   6  16
ATOM     10  C   UNL     1      -0.981  -4.427   2.257  0.00  0.00    +0.046 C 
ATOM     11  C   UNL     1      -0.319  -3.570   3.305  0.00  0.00    -0.028 A 
ATOM     12  C   UNL     1      -0.190  -4.036   4.599  0.00  0.00    +0.020 A 
ATOM     13  C   UNL     1       0.413  -3.248   5.563  0.00  0.00    +0.018 A 
ATOM     14  C   UNL     1       0.893  -1.993   5.233  0.00  0.00    +0.017 A 
ATOM     15  C   UNL     1       0.772  -1.524   3.940  0.00  0.00    +0.024 A 
ATOM     16  C   UNL     1       0.167  -2.313   2.970  0.00  0.00    +0.036 A 
ATOM     17 BR   UNL     1       0.580  -3.887   7.335  0.00  0.00    -0.050 Br
ENDBRANCH   6  16
ENDBRANCH   5   7
ENDBRANCH   1   5
BRANCH   3  18
ATOM     18  C   UNL     1       1.138   3.656   0.019  0.00  0.00    +0.151 C 
BRANCH  18  19
ATOM     19  C   UNL     1       2.553   4.176   0.020  0.00  0.00    +0.058 A 
ATOM     20  C   UNL     1       2.957   5.050  -0.940  0.00  0.00    +0.071 A 
ATOM     21  S   UNL     1       4.659   5.309  -0.454  0.00  0.00    -0.075 S 
ATOM     22  C   UNL     1       4.645   4.229   0.970  0.00  0.00    +0.109 A 
ATOM     23  N   UNL     1       3.394   3.791   0.950  0.00  0.00    -0.243 NA
BRANCH  22  24
ATOM     24  C   UNL     1       5.735   3.913   1.919  0.00  0.00    +0.007 A 
ATOM     25  C   UNL     1       5.507   3.036   2.980  0.00  0.00    +0.010 A 
ATOM     26  C   UNL     1       6.529   2.742   3.859  0.00  0.00    +0.001 A 
ATOM     27  C   UNL     1       7.774   3.324   3.697  0.00  0.00    +0.000 A 
ATOM     28  C   UNL     1       8.004   4.198   2.650  0.00  0.00    +0.001 A 
ATOM     29  C   UNL     1       6.992   4.497   1.761  0.00  0.00    +0.010 A 
ENDBRANCH  22  24
ENDBRANCH  18  19
ENDBRANCH   3  18
TORSDOF 6
