REMARK  Name = ZINC17276147
REMARK  7 active torsions:
REMARK  status: ('A' for Active; 'I' for Inactive)
REMARK    1  A    between atoms: C_1  and  C_2
REMARK    2  A    between atoms: C_2  and  C_4
REMARK    3  A    between atoms: C_2  and  S_20
REMARK    4  A    between atoms: N_9  and  C_10
REMARK    5  A    between atoms: S_20  and  C_21
REMARK    6  A    between atoms: C_23  and  C_31
REMARK    7  A    between atoms: N_33  and  C_34
REMARK                            x       y       z     vdW  Elec       q    Type
REMARK                         _______ _______ _______ _____ _____    ______ ____
ROOT
ATOM      1  C   UNL     1      -9.492   1.551   1.183  0.00  0.00    +0.029 C 
ATOM      2  C   UNL     1      -8.616   0.701   2.105  0.00  0.00    +0.136 C 
ENDROOT
BRANCH   2   3
ATOM      3  C   UNL     1      -7.207   1.235   2.092  0.00  0.00    +0.233 C 
ATOM      4  O   UNL     1      -6.819   1.943   2.997  0.00  0.00    -0.274 OA
ATOM      5  N   UNL     1      -6.378   0.926   1.076  0.00  0.00    -0.239 N 
ATOM      6  C   UNL     1      -5.118   1.404   1.065  0.00  0.00    +0.306 C 
ATOM      7  O   UNL     1      -4.729   2.114   1.971  0.00  0.00    -0.252 OA
ATOM      8  N   UNL     1      -4.289   1.095   0.048  0.00  0.00    -0.294 N 
ATOM      9  H   UNL     1      -6.688   0.360   0.352  0.00  0.00    +0.159 HD
ATOM     10  H   UNL     1      -4.599   0.529  -0.676  0.00  0.00    +0.151 HD
BRANCH   8  11
ATOM     11  C   UNL     1      -2.920   1.615   0.036  0.00  0.00    +0.037 C 
ATOM     12  C   UNL     1      -2.197   1.119  -1.218  0.00  0.00    +0.029 C 
ATOM     13  C   UNL     1      -0.766   1.661  -1.231  0.00  0.00    -0.008 C 
ATOM     14  C   UNL     1      -0.024   1.171   0.014  0.00  0.00    +0.007 C 
ATOM     15  C   UNL     1      -0.746   1.667   1.267  0.00  0.00    -0.008 C 
ATOM     16  C   UNL     1      -2.177   1.125   1.280  0.00  0.00    +0.029 C 
ATOM     17  C   UNL     1      -0.781   3.197   1.264  0.00  0.00    +0.007 C 
ATOM     18  C   UNL     1      -1.524   3.688   0.019  0.00  0.00    -0.008 C 
ATOM     19  C   UNL     1      -0.801   3.191  -1.234  0.00  0.00    +0.007 C 
ATOM     20  C   UNL     1      -2.954   3.145   0.032  0.00  0.00    +0.029 C 
ENDBRANCH   8  11
ENDBRANCH   2   3
BRANCH   2  21
ATOM     21  S   UNL     1      -9.272   0.768   3.791  0.00  0.00    -0.093 S 
BRANCH  21  22
ATOM     22  C   UNL     1     -10.822  -0.033   3.548  0.00  0.00    +0.099 A 
ATOM     23  C   UNL     1     -11.679  -0.196   4.646  0.00  0.00    +0.048 A 
ATOM     24  C   UNL     1     -12.902  -0.824   4.469  0.00  0.00    +0.048 A 
ATOM     25  C   UNL     1     -13.231  -1.288   3.120  0.00  0.00    +0.013 A 
ATOM     26  C   UNL     1     -14.441  -1.932   2.843  0.00  0.00    +0.011 A 
ATOM     27  C   UNL     1     -14.707  -2.347   1.571  0.00  0.00    +0.001 A 
ATOM     28  C   UNL     1     -13.788  -2.138   0.546  0.00  0.00    +0.002 A 
ATOM     29  C   UNL     1     -12.601  -1.514   0.782  0.00  0.00    +0.028 A 
ATOM     30  C   UNL     1     -12.293  -1.072   2.081  0.00  0.00    +0.073 A 
ATOM     31  N   UNL     1     -11.138  -0.452   2.342  0.00  0.00    -0.240 NA
BRANCH  24  32
ATOM     32  C   UNL     1     -13.838  -1.018   5.598  0.00  0.00    +0.245 C 
ATOM     33  O   UNL     1     -14.945  -1.478   5.398  0.00  0.00    -0.270 OA
ATOM     34  N   UNL     1     -13.463  -0.686   6.849  0.00  0.00    -0.308 N 
ATOM     35  H   UNL     1     -12.579  -0.320   7.009  0.00  0.00    +0.149 HD
BRANCH  34  36
ATOM     36  C   UNL     1     -14.389  -0.879   7.968  0.00  0.00    +0.073 C 
ATOM     37  C   UNL     1     -14.499   0.248   8.996  0.00  0.00    +0.024 C 
ATOM     38  C   UNL     1     -13.786  -1.056   9.362  0.00  0.00    +0.024 C 
ENDBRANCH  34  36
ENDBRANCH  24  32
ENDBRANCH  21  22
ENDBRANCH   2  21
TORSDOF 6
