REMARK  Name = ZINC35703250
REMARK  16 active torsions:
REMARK  status: ('A' for Active; 'I' for Inactive)
REMARK    1  A    between atoms: C_1  and  C_2
REMARK    2  A    between atoms: C_9  and  C_20
REMARK    3  A    between atoms: C_10  and  N_11
REMARK    4  A    between atoms: N_11  and  C_12
REMARK    5  A    between atoms: C_12  and  C_13
REMARK    6  A    between atoms: C_12  and  C_14
REMARK    7  A    between atoms: C_12  and  C_15
REMARK    8  A    between atoms: C_15  and  C_16
REMARK    9  A    between atoms: C_16  and  C_17
REMARK   10  A    between atoms: C_16  and  C_18
REMARK   11  A    between atoms: C_16  and  C_19
REMARK   12  A    between atoms: C_23  and  O_28
REMARK   13  A    between atoms: C_24  and  O_26
REMARK   14  A    between atoms: O_26  and  C_27
REMARK   15  A    between atoms: O_28  and  C_29
REMARK   16  A    between atoms: C_29  and  C_31
REMARK                            x       y       z     vdW  Elec       q    Type
REMARK                         _______ _______ _______ _____ _____    ______ ____
ROOT
ATOM      1  C   UNL     1      -0.951   1.311  -4.466  0.00  0.00    +0.044 C 
ATOM      2  C   UNL     1      -0.652   0.015  -3.756  0.00  0.00    -0.046 A 
ATOM      3  C   UNL     1      -1.170  -1.195  -4.250  0.00  0.00    +0.021 A 
ATOM      4  C   UNL     1      -0.906  -2.357  -3.620  0.00  0.00    +0.094 A 
ATOM      5  N   UNL     1      -0.132  -2.377  -2.490  0.00  0.00    -0.289 N 
ATOM      6  C   UNL     1       0.388  -1.208  -1.983  0.00  0.00    +0.117 A 
ATOM      7  C   UNL     1       0.122   0.013  -2.639  0.00  0.00    +0.048 A 
ATOM      8  N   UNL     1       1.091  -1.496  -0.900  0.00  0.00    -0.338 N 
ATOM      9  C   UNL     1       1.046  -2.822  -0.681  0.00  0.00    +0.087 A 
ATOM     10  C   UNL     1       0.279  -3.394  -1.674  0.00  0.00    +0.129 A 
ATOM     11  H   UNL     1       1.563  -0.851  -0.350  0.00  0.00    +0.167 HD
ENDROOT
BRANCH   9  12
ATOM     12  C   UNL     1       1.706  -3.543   0.433  0.00  0.00    +0.005 A 
ATOM     13  C   UNL     1       2.378  -4.741   0.189  0.00  0.00    +0.014 A 
ATOM     14  C   UNL     1       2.992  -5.412   1.227  0.00  0.00    +0.051 A 
ATOM     15  C   UNL     1       2.943  -4.898   2.514  0.00  0.00    +0.173 A 
ATOM     16  C   UNL     1       2.272  -3.703   2.764  0.00  0.00    +0.163 A 
ATOM     17  C   UNL     1       1.660  -3.023   1.726  0.00  0.00    +0.059 A 
BRANCH  16  18
ATOM     18  O   UNL     1       2.225  -3.202   4.027  0.00  0.00    -0.491 OA
ATOM     19  C   UNL     1       1.520  -1.972   4.211  0.00  0.00    +0.277 C 
ENDBRANCH  16  18
BRANCH  15  20
ATOM     20  O   UNL     1       3.549  -5.562   3.534  0.00  0.00    -0.422 OA
BRANCH  20  21
ATOM     21  C   UNL     1       2.826  -6.463   4.217  0.00  0.00    +0.319 C 
ATOM     22  O   UNL     1       1.698  -6.731   3.862  0.00  0.00    -0.250 OA
BRANCH  21  23
ATOM     23  C   UNL     1       3.416  -7.143   5.426  0.00  0.00    +0.069 C 
ATOM     24  C   UNL     1       3.782  -6.091   6.475  0.00  0.00    +0.021 C 
ATOM     25  C   UNL     1       4.381  -6.781   7.702  0.00  0.00    -0.009 C 
ATOM     26  C   UNL     1       3.358  -7.754   8.291  0.00  0.00    +0.007 C 
ATOM     27  C   UNL     1       2.992  -8.806   7.242  0.00  0.00    -0.009 C 
ATOM     28  C   UNL     1       2.393  -8.116   6.015  0.00  0.00    +0.021 C 
ATOM     29  C   UNL     1       4.249  -9.575   6.831  0.00  0.00    +0.007 C 
ATOM     30  C   UNL     1       5.273  -8.602   6.242  0.00  0.00    -0.009 C 
ATOM     31  C   UNL     1       5.638  -7.550   7.291  0.00  0.00    +0.007 C 
ATOM     32  C   UNL     1       4.673  -7.913   5.015  0.00  0.00    +0.021 C 
ENDBRANCH  21  23
ENDBRANCH  20  21
ENDBRANCH  15  20
ENDBRANCH   9  12
BRANCH  10  33
ATOM     33  N   UNL     1      -0.020  -4.749  -1.818  0.00  0.00    -0.323 N 
ATOM     34  H   UNL     1       0.206  -5.374  -1.111  0.00  0.00    +0.148 HD
BRANCH  33  35
ATOM     35  C   UNL     1      -0.676  -5.229  -3.037  0.00  0.00    +0.028 C 
ATOM     36  C   UNL     1      -2.092  -4.655  -3.114  0.00  0.00    +0.031 C 
ATOM     37  C   UNL     1       0.125  -4.776  -4.260  0.00  0.00    +0.031 C 
BRANCH  35  38
ATOM     38  C   UNL     1      -0.745  -6.757  -3.011  0.00  0.00    +0.031 C 
BRANCH  38  39
ATOM     39  C   UNL     1       0.549  -7.316  -2.416  0.00  0.00    -0.036 C 
ATOM     40  C   UNL     1       0.368  -7.527  -0.911  0.00  0.00    +0.010 C 
ATOM     41  C   UNL     1       0.880  -8.653  -3.082  0.00  0.00    +0.010 C 
ATOM     42  C   UNL     1       1.691  -6.328  -2.659  0.00  0.00    +0.010 C 
ENDBRANCH  38  39
ENDBRANCH  35  38
ENDBRANCH  33  35
ENDBRANCH  10  33
TORSDOF 9
