REMARK  Name = ZINC08645342
REMARK  6 active torsions:
REMARK  status: ('A' for Active; 'I' for Inactive)
REMARK    1  A    between atoms: C_1  and  C_2
REMARK    2  A    between atoms: C_2  and  C_24
REMARK    3  A    between atoms: N_5  and  C_9
REMARK    4  A    between atoms: C_9  and  C_10
REMARK    5  A    between atoms: N_12  and  C_13
REMARK    6  A    between atoms: C_18  and  C_19
REMARK                            x       y       z     vdW  Elec       q    Type
REMARK                         _______ _______ _______ _____ _____    ______ ____
ROOT
ATOM      1  C   UNL     1      -3.763   1.105  -1.021  0.00  0.00    +0.047 C 
ATOM      2  C   UNL     1      -2.919   0.736   0.201  0.00  0.00    +0.136 C 
ATOM      3  C   UNL     1      -3.711   0.932   1.478  0.00  0.00    +0.251 C 
ATOM      4  O   UNL     1      -4.179   1.969   1.898  0.00  0.00    -0.272 OA
ATOM      5  N   UNL     1      -3.787  -0.285   2.051  0.00  0.00    -0.215 N 
ATOM      6  C   UNL     1      -3.159  -1.214   1.321  0.00  0.00    +0.310 C 
ATOM      7  O   UNL     1      -3.091  -2.387   1.633  0.00  0.00    -0.252 OA
ATOM      8  N   UNL     1      -2.611  -0.705   0.202  0.00  0.00    -0.281 N 
ATOM      9  H   UNL     1      -2.112  -1.192  -0.472  0.00  0.00    +0.152 HD
ENDROOT
BRANCH   2  10
ATOM     10  C   UNL     1      -1.651   1.549   0.233  0.00  0.00    -0.008 A 
ATOM     11  C   UNL     1      -0.440   0.928   0.213  0.00  0.00    +0.007 A 
ATOM     12  C   UNL     1       0.744   1.664   0.236  0.00  0.00    +0.001 A 
ATOM     13  C   UNL     1       0.723   3.024   0.285  0.00  0.00    +0.008 A 
ATOM     14  C   UNL     1      -0.509   3.700   0.313  0.00  0.00    -0.018 A 
ATOM     15  C   UNL     1      -1.712   2.951   0.290  0.00  0.00    -0.012 A 
ATOM     16  C   UNL     1      -2.944   3.627   0.318  0.00  0.00    +0.009 A 
ATOM     17  C   UNL     1      -2.965   4.987   0.366  0.00  0.00    +0.001 A 
ATOM     18  C   UNL     1      -1.782   5.723   0.389  0.00  0.00    +0.001 A 
ATOM     19  C   UNL     1      -0.571   5.103   0.364  0.00  0.00    +0.008 A 
ENDBRANCH   2  10
BRANCH   5  20
ATOM     20  C   UNL     1      -4.471  -0.558   3.317  0.00  0.00    +0.214 C 
BRANCH  20  21
ATOM     21  C   UNL     1      -3.500  -0.394   4.458  0.00  0.00    +0.235 C 
ATOM     22  O   UNL     1      -2.350  -0.079   4.236  0.00  0.00    -0.274 OA
ATOM     23  N   UNL     1      -3.910  -0.596   5.726  0.00  0.00    -0.284 N 
ATOM     24  H   UNL     1      -4.806  -0.922   5.900  0.00  0.00    +0.155 HD
BRANCH  23  25
ATOM     25  C   UNL     1      -3.041  -0.334   6.793  0.00  0.00    +0.045 A 
ATOM     26  C   UNL     1      -2.001   0.573   6.636  0.00  0.00    +0.025 A 
ATOM     27  C   UNL     1      -1.149   0.833   7.691  0.00  0.00    +0.022 A 
ATOM     28  C   UNL     1      -1.324   0.182   8.900  0.00  0.00    +0.042 A 
ATOM     29  C   UNL     1      -2.356  -0.726   9.057  0.00  0.00    +0.034 A 
ATOM     30  C   UNL     1      -3.215  -0.985   8.007  0.00  0.00    +0.077 A 
ATOM     31 CL   UNL     1      -0.247   0.506  10.223  0.00  0.00    -0.084 Cl
BRANCH  30  32
ATOM     32  C   UNL     1      -4.338  -1.975   8.178  0.00  0.00    +0.419 C 
ATOM     33  F   UNL     1      -4.308  -2.495   9.476  0.00  0.00    -0.166 F 
ATOM     34  F   UNL     1      -5.562  -1.333   7.961  0.00  0.00    -0.166 F 
ATOM     35  F   UNL     1      -4.188  -3.015   7.255  0.00  0.00    -0.166 F 
ENDBRANCH  30  32
ENDBRANCH  23  25
ENDBRANCH  20  21
ENDBRANCH   5  20
TORSDOF 5
