REMARK  Name = ZINC03290884
REMARK  10 active torsions:
REMARK  status: ('A' for Active; 'I' for Inactive)
REMARK    1  A    between atoms: C_1  and  O_2
REMARK    2  A    between atoms: O_2  and  C_3
REMARK    3  A    between atoms: C_3  and  C_4
REMARK    4  A    between atoms: C_4  and  N_5
REMARK    5  A    between atoms: N_7  and  N_16
REMARK    6  A    between atoms: C_8  and  C_11
REMARK    7  A    between atoms: C_17  and  C_18
REMARK    8  A    between atoms: C_20  and  O_26
REMARK    9  A    between atoms: C_21  and  O_25
REMARK   10  A    between atoms: O_26  and  C_27
REMARK                            x       y       z     vdW  Elec       q    Type
REMARK                         _______ _______ _______ _____ _____    ______ ____
ROOT
ATOM      1  N   UNL     1      -0.919   5.171   0.007  0.00  0.00    -0.257 NA
ATOM      2  C   UNL     1      -0.548   3.929   0.192  0.00  0.00    +0.190 A 
ATOM      3  N   UNL     1       0.723   3.392   0.207  0.00  0.00    -0.205 N 
ATOM      4  C   UNL     1       0.862   2.046   0.423  0.00  0.00    +0.117 A 
ATOM      5  C   UNL     1      -0.239   1.284   0.614  0.00  0.00    +0.080 A 
ATOM      6  S   UNL     1      -1.555   2.483   0.483  0.00  0.00    -0.056 S 
ENDROOT
BRANCH   4   7
ATOM      7  C   UNL     1       2.200   1.433   0.447  0.00  0.00    +0.154 A 
ATOM      8  C   UNL     1       2.473   0.114   0.650  0.00  0.00    +0.051 A 
ATOM      9  C   UNL     1       3.874  -0.025   0.591  0.00  0.00    +0.042 A 
ATOM     10  C   UNL     1       4.383   1.199   0.357  0.00  0.00    +0.196 A 
ATOM     11  O   UNL     1       3.369   2.078   0.265  0.00  0.00    -0.461 OA
ENDBRANCH   4   7
BRANCH   3  12
ATOM     12  N   UNL     1       1.847   4.205   0.007  0.00  0.00    -0.172 NA
ATOM     13  C   UNL     1       1.729   5.330  -0.631  0.00  0.00    +0.141 C 
BRANCH  13  14
ATOM     14  C   UNL     1       2.880   6.245  -0.730  0.00  0.00    -0.001 A 
ATOM     15  C   UNL     1       2.756   7.454  -1.421  0.00  0.00    +0.059 A 
ATOM     16  C   UNL     1       3.837   8.311  -1.507  0.00  0.00    +0.163 A 
ATOM     17  C   UNL     1       5.050   7.965  -0.914  0.00  0.00    +0.173 A 
ATOM     18  C   UNL     1       5.175   6.763  -0.233  0.00  0.00    +0.063 A 
ATOM     19  C   UNL     1       4.098   5.904  -0.139  0.00  0.00    +0.028 A 
ATOM     20 BR   UNL     1       6.824   6.300   0.568  0.00  0.00    -0.046 Br
BRANCH  17  21
ATOM     21  O   UNL     1       6.113   8.808  -1.004  0.00  0.00    -0.503 OA
ATOM     22  H   UNL     1       6.672   8.654  -1.777  0.00  0.00    +0.292 HD
ENDBRANCH  17  21
BRANCH  16  23
ATOM     23  O   UNL     1       3.718   9.490  -2.174  0.00  0.00    -0.491 OA
ATOM     24  C   UNL     1       2.446   9.780  -2.757  0.00  0.00    +0.277 C 
ENDBRANCH  16  23
ENDBRANCH  13  14
ENDBRANCH   3  12
BRANCH   1  25
ATOM     25  C   UNL     1      -2.341   5.522   0.031  0.00  0.00    +0.172 C 
BRANCH  25  26
ATOM     26  C   UNL     1      -2.596   6.540   1.145  0.00  0.00    +0.182 C 
BRANCH  26  28
ATOM     27  C   UNL     1      -2.085   8.780   1.827  0.00  0.00    +0.194 C 
ATOM     28  O   UNL     1      -1.911   7.757   0.845  0.00  0.00    -0.381 OA
ENDBRANCH  26  28
ENDBRANCH  25  26
ENDBRANCH   1  25
TORSDOF 8
