REMARK  Name = ZINC35511344
REMARK  7 active torsions:
REMARK  status: ('A' for Active; 'I' for Inactive)
REMARK    1  A    between atoms: C_1  and  C_2
REMARK    2  A    between atoms: C_4  and  C_25
REMARK    3  A    between atoms: C_6  and  N_8
REMARK    4  A    between atoms: C_15  and  C_17
REMARK    5  A    between atoms: C_19  and  C_22
REMARK    6  A    between atoms: C_22  and  C_23
REMARK    7  A    between atoms: C_22  and  C_24
REMARK                            x       y       z     vdW  Elec       q    Type
REMARK                         _______ _______ _______ _____ _____    ______ ____
ROOT
ATOM      1  N   UNL     1       0.050  -2.797   2.393  0.00  0.00    -0.269 N 
ATOM      2  C   UNL     1       0.148  -2.135   3.562  0.00  0.00    +0.307 C 
ATOM      3  O   UNL     1       0.133  -0.919   3.575  0.00  0.00    -0.252 OA
ATOM      4  N   UNL     1       0.264  -2.819   4.718  0.00  0.00    -0.277 N 
ATOM      5  C   UNL     1       0.302  -4.287   4.846  0.00  0.00    +0.110 C 
ATOM      6  C   UNL     1      -0.178  -4.572   6.291  0.00  0.00    +0.021 C 
ATOM      7  C   UNL     1       0.458  -3.389   7.069  0.00  0.00    +0.030 C 
ATOM      8  C   UNL     1       0.379  -2.226   6.058  0.00  0.00    +0.130 C 
ATOM      9  H   UNL     1      -0.005  -3.766   2.388  0.00  0.00    +0.156 HD
ENDROOT
BRANCH   1  15
ATOM     10  C   UNL     1       1.265  -2.495  -2.361  0.00  0.00    +0.044 C 
ATOM     11  C   UNL     1       0.609  -1.918  -1.133  0.00  0.00    -0.048 A 
ATOM     12  C   UNL     1      -0.016  -0.686  -1.198  0.00  0.00    +0.006 A 
ATOM     13  C   UNL     1      -0.619  -0.153  -0.074  0.00  0.00    -0.048 A 
ATOM     14  C   UNL     1      -0.599  -0.851   1.118  0.00  0.00    +0.026 A 
ATOM     15  C   UNL     1       0.028  -2.088   1.187  0.00  0.00    +0.035 A 
ATOM     16  C   UNL     1       0.627  -2.623   0.054  0.00  0.00    +0.026 A 
ATOM     17  C   UNL     1      -1.298   1.190  -0.149  0.00  0.00    +0.044 C 
ENDBRANCH   1  15
BRANCH   8  18
ATOM     18  C   UNL     1       1.627  -1.385   6.141  0.00  0.00    +0.104 A 
ATOM     19  C   UNL     1       2.486  -1.075   5.072  0.00  0.00    +0.073 A 
ATOM     20  C   UNL     1       3.485  -0.306   5.546  0.00  0.00    +0.140 A 
ATOM     21  O   UNL     1       3.281  -0.126   6.860  0.00  0.00    -0.359 OA
ATOM     22  N   UNL     1       2.095  -0.814   7.214  0.00  0.00    -0.081 NA
BRANCH  20  23
ATOM     23  C   UNL     1       4.630   0.255   4.743  0.00  0.00    +0.052 C 
ATOM     24  C   UNL     1       4.607   1.782   4.820  0.00  0.00    +0.015 C 
ATOM     25  C   UNL     1       5.952  -0.265   5.309  0.00  0.00    +0.015 C 
ENDBRANCH  20  23
ENDBRANCH   8  18
TORSDOF 3
