REMARK  Name = ZINC35890786
REMARK  14 active torsions:
REMARK  status: ('A' for Active; 'I' for Inactive)
REMARK    1  A    between atoms: C_1  and  C_2
REMARK    2  A    between atoms: C_6  and  O_8
REMARK    3  A    between atoms: O_8  and  C_9
REMARK    4  A    between atoms: C_9  and  C_11
REMARK    5  A    between atoms: C_9  and  C_30
REMARK    6  A    between atoms: C_11  and  N_12
REMARK    7  A    between atoms: N_12  and  C_13
REMARK    8  A    between atoms: N_12  and  C_23
REMARK    9  A    between atoms: C_13  and  C_14
REMARK   10  A    between atoms: C_23  and  C_24
REMARK   11  A    between atoms: N_32  and  C_33
REMARK   12  A    between atoms: C_33  and  C_34
REMARK   13  A    between atoms: C_33  and  C_35
REMARK   14  A    between atoms: C_33  and  C_36
REMARK                            x       y       z     vdW  Elec       q    Type
REMARK                         _______ _______ _______ _____ _____    ______ ____
ROOT
ATOM      1  C   UNL     1       0.982  -4.751   2.966  0.00  0.00    -0.023 C 
ENDROOT
BRANCH   1   2
ATOM      2  N   UNL     1       2.297  -4.164   3.256  0.00  0.00    +0.387 N 
ATOM      3  H   UNL     1       2.859  -4.167   2.418  0.00  0.00    -0.081 HD
BRANCH   2   4
ATOM      4  C   UNL     1       2.966  -4.953   4.298  0.00  0.00    -0.043 C 
BRANCH   4   5
ATOM      5  C   UNL     1       3.295  -6.322   3.759  0.00  0.00    -0.060 A 
ATOM      6  C   UNL     1       2.440  -7.381   3.999  0.00  0.00    +0.005 A 
ATOM      7  C   UNL     1       2.736  -8.638   3.506  0.00  0.00    +0.050 A 
ATOM      8  C   UNL     1       3.893  -8.839   2.770  0.00  0.00    +0.166 A 
ATOM      9  C   UNL     1       4.755  -7.772   2.529  0.00  0.00    +0.166 A 
ATOM     10  C   UNL     1       4.448  -6.513   3.021  0.00  0.00    +0.051 A 
ATOM     11  O   UNL     1       5.811  -8.222   1.790  0.00  0.00    -0.453 OA
ATOM     12  C   UNL     1       5.794  -9.655   1.929  0.00  0.00    +0.466 C 
ATOM     13  O   UNL     1       4.409  -9.958   2.183  0.00  0.00    -0.453 OA
ENDBRANCH   4   5
ENDBRANCH   2   4
BRANCH   2  14
ATOM     14  C   UNL     1       2.124  -2.782   3.724  0.00  0.00    -0.046 C 
BRANCH  14  15
ATOM     15  C   UNL     1       3.495  -2.153   3.977  0.00  0.00    +0.102 C 
ATOM     16  C   UNL     1       3.322  -0.702   4.473  0.00  0.00    +0.032 C 
ATOM     17  C   UNL     1       4.479   0.036   3.745  0.00  0.00    +0.030 C 
ATOM     18  C   UNL     1       4.527  -0.743   2.406  0.00  0.00    +0.160 C 
ATOM     19  O   UNL     1       4.242  -2.109   2.756  0.00  0.00    -0.378 OA
ENDBRANCH  14  15
ENDBRANCH   2  14
ENDBRANCH   1   2
BRANCH   1  20
ATOM     20  C   UNL     1       0.377  -4.066   1.739  0.00  0.00    +0.242 C 
BRANCH  20  21
ATOM     21  C   UNL     1      -0.875  -4.794   1.323  0.00  0.00    +0.252 C 
ATOM     22  O   UNL     1      -1.938  -4.211   1.303  0.00  0.00    -0.272 OA
ATOM     23  N   UNL     1      -0.813  -6.094   0.972  0.00  0.00    -0.308 N 
ATOM     24  H   UNL     1       0.037  -6.561   0.988  0.00  0.00    +0.149 HD
BRANCH  23  25
ATOM     25  C   UNL     1      -2.030  -6.803   0.567  0.00  0.00    +0.026 C 
ATOM     26  C   UNL     1      -2.635  -6.117  -0.659  0.00  0.00    +0.031 C 
ATOM     27  C   UNL     1      -1.685  -8.253   0.223  0.00  0.00    +0.031 C 
ATOM     28  C   UNL     1      -3.040  -6.777   1.716  0.00  0.00    +0.031 C 
ENDBRANCH  23  25
ENDBRANCH  20  21
BRANCH  20  29
ATOM     29  O   UNL     1       0.056  -2.711   2.060  0.00  0.00    -0.482 OA
BRANCH  29  35
ATOM     30  C   UNL     1      -0.733   1.837   0.474  0.00  0.00    +0.044 C 
ATOM     31  C   UNL     1      -0.393   0.392   0.214  0.00  0.00    -0.047 A 
ATOM     32  C   UNL     1      -0.151  -0.040  -1.077  0.00  0.00    +0.003 A 
ATOM     33  C   UNL     1       0.160  -1.365  -1.318  0.00  0.00    +0.004 A 
ATOM     34  C   UNL     1       0.230  -2.262  -0.269  0.00  0.00    +0.046 A 
ATOM     35  C   UNL     1      -0.013  -1.831   1.027  0.00  0.00    +0.122 A 
ATOM     36  C   UNL     1      -0.319  -0.499   1.267  0.00  0.00    +0.049 A 
ENDBRANCH  29  35
ENDBRANCH  20  29
ENDBRANCH   1  20
TORSDOF 10
