REMARK  Name = ZINC58057309
REMARK  5 active torsions:
REMARK  status: ('A' for Active; 'I' for Inactive)
REMARK    1  A    between atoms: C_1  and  C_2
REMARK    2  A    between atoms: C_2  and  C_3
REMARK    3  A    between atoms: C_2  and  C_4
REMARK    4  A    between atoms: C_10  and  C_12
REMARK    5  A    between atoms: C_15  and  N_18
REMARK                            x       y       z     vdW  Elec       q    Type
REMARK                         _______ _______ _______ _____ _____    ______ ____
ROOT
ATOM      1  C   UNL     1      -1.412  -0.526   0.013  0.00  0.00    +0.113 A 
ATOM      2  N   UNL     1      -1.662  -1.754  -0.484  0.00  0.00    -0.311 N 
ATOM      3  H   UNL     1      -0.934  -2.287  -0.842  0.00  0.00    +0.170 HD
ATOM      4  C   UNL     1      -2.918  -2.245  -0.486  0.00  0.00    +0.252 A 
ATOM      5  O   UNL     1      -3.151  -3.357  -0.934  0.00  0.00    -0.268 OA
ATOM      6  C   UNL     1      -3.954  -1.453   0.037  0.00  0.00    +0.098 A 
ATOM      7  C   UNL     1      -3.637  -0.199   0.534  0.00  0.00    +0.078 A 
ATOM      8  N   UNL     1      -2.360   0.221   0.507  0.00  0.00    -0.233 NA
ENDROOT
BRANCH   7   9
ATOM      9  C   UNL     1      -4.695   0.670   1.095  0.00  0.00    +0.001 A 
ATOM     10  C   UNL     1      -4.372   1.936   1.589  0.00  0.00    +0.012 A 
ATOM     11  C   UNL     1      -5.359   2.742   2.111  0.00  0.00    +0.023 A 
ATOM     12  C   UNL     1      -6.677   2.297   2.146  0.00  0.00    +0.025 A 
ATOM     13  C   UNL     1      -7.001   1.037   1.654  0.00  0.00    +0.023 A 
ATOM     14  C   UNL     1      -6.019   0.229   1.126  0.00  0.00    +0.012 A 
BRANCH  12  15
ATOM     15  N   UNL     1      -7.673   3.115   2.674  0.00  0.00    -0.358 N 
ATOM     16  H   UNL     1      -7.447   3.994   3.017  0.00  0.00    +0.142 HD
ATOM     17  H   UNL     1      -8.592   2.806   2.699  0.00  0.00    +0.142 HD
ENDBRANCH  12  15
ENDBRANCH   7   9
BRANCH   1  19
ATOM     18  C   UNL     1      -0.019   1.526   0.010  0.00  0.00    +0.015 C 
ATOM     19  C   UNL     1       0.002  -0.004   0.002  0.00  0.00    +0.049 C 
ATOM     20  C   UNL     1       0.742  -0.511   1.242  0.00  0.00    +0.015 C 
ENDBRANCH   1  19
TORSDOF 3
