REMARK  Name = ZINC34830017
REMARK  6 active torsions:
REMARK  status: ('A' for Active; 'I' for Inactive)
REMARK    1  A    between atoms: C_4  and  C_7
REMARK    2  A    between atoms: N_16  and  C_17
REMARK    3  A    between atoms: C_17  and  C_18
REMARK    4  A    between atoms: C_18  and  C_19
REMARK    5  A    between atoms: C_27  and  C_29
REMARK    6  A    between atoms: C_32  and  N_35
REMARK                            x       y       z     vdW  Elec       q    Type
REMARK                         _______ _______ _______ _____ _____    ______ ____
ROOT
ATOM      1  C   UNL     1       3.982  -2.219  -5.405  0.00  0.00    +0.214 C 
ATOM      2  O   UNL     1       3.971  -1.036  -5.671  0.00  0.00    -0.276 OA
ATOM      3  N   UNL     1       3.453  -3.109  -6.268  0.00  0.00    -0.299 N 
ATOM      4  C   UNL     1       3.454  -4.545  -5.956  0.00  0.00    +0.126 C 
ATOM      5  C   UNL     1       2.014  -5.066  -6.039  0.00  0.00    +0.127 C 
ATOM      6  N   UNL     1       1.424  -4.617  -7.308  0.00  0.00    -0.295 N 
ATOM      7  C   UNL     1       1.423  -3.181  -7.620  0.00  0.00    +0.127 C 
ATOM      8  C   UNL     1       2.858  -2.659  -7.535  0.00  0.00    +0.126 C 
ATOM      9  C   UNL     1       0.894  -5.506  -8.171  0.00  0.00    +0.247 C 
ATOM     10  O   UNL     1       0.348  -5.119  -9.185  0.00  0.00    -0.270 OA
ENDROOT
BRANCH   9  11
ATOM     11  C   UNL     1       0.978  -6.954  -7.884  0.00  0.00    +0.037 A 
ATOM     12  C   UNL     1       0.561  -7.449  -6.647  0.00  0.00    +0.015 A 
ATOM     13  C   UNL     1       0.641  -8.801  -6.386  0.00  0.00    +0.033 A 
ATOM     14  C   UNL     1       1.133  -9.666  -7.346  0.00  0.00    +0.126 A 
ATOM     15  C   UNL     1       1.548  -9.183  -8.574  0.00  0.00    +0.033 A 
ATOM     16  C   UNL     1       1.468  -7.834  -8.851  0.00  0.00    +0.015 A 
BRANCH  14  17
ATOM     17  N   UNL     1       1.217 -11.116  -7.059  0.00  0.00    +0.056 N 
ATOM     18  O   UNL     1       0.855 -11.541  -5.986  0.00  0.00    -0.126 OA
ATOM     19  O   UNL     1       1.646 -11.875  -7.896  0.00  0.00    -0.126 OA
ENDBRANCH  14  17
ENDBRANCH   9  11
BRANCH   1  20
ATOM     20  C   UNL     1       4.589  -2.695  -4.110  0.00  0.00    +0.077 C 
BRANCH  20  21
ATOM     21  C   UNL     1       5.113  -1.493  -3.321  0.00  0.00    -0.068 C 
BRANCH  21  30
ATOM     22  C   UNL     1       6.097  -0.794  -1.254  0.00  0.00    -0.006 C 
ATOM     23  C   UNL     1       6.803  -1.283   0.007  0.00  0.00    -0.047 A 
ATOM     24  C   UNL     1       6.962  -0.515   1.158  0.00  0.00    +0.010 A 
ATOM     25  C   UNL     1       7.600  -1.033   2.234  0.00  0.00    +0.045 A 
ATOM     26  S   UNL     1       8.021  -2.672   1.660  0.00  0.00    -0.101 S 
ATOM     27  C   UNL     1       7.319  -2.543   0.040  0.00  0.00    -0.010 A 
ATOM     28  C   UNL     1       7.279  -3.547  -1.065  0.00  0.00    +0.024 C 
ATOM     29  C   UNL     1       6.867  -2.807  -2.349  0.00  0.00    -0.072 C 
ATOM     30  N   UNL     1       5.704  -1.957  -2.059  0.00  0.00    +0.388 N 
ATOM     31  H   UNL     1       5.019  -2.496  -1.551  0.00  0.00    -0.080 HD
BRANCH  22  35
ATOM     32  C   UNL     1       2.620   1.442  -0.178  0.00  0.00    +0.000 A 
ATOM     33  C   UNL     1       3.782   2.100  -0.535  0.00  0.00    +0.000 A 
ATOM     34  C   UNL     1       4.907   1.377  -0.883  0.00  0.00    +0.002 A 
ATOM     35  C   UNL     1       4.871  -0.005  -0.874  0.00  0.00    -0.057 A 
ATOM     36  C   UNL     1       3.709  -0.663  -0.516  0.00  0.00    +0.002 A 
ATOM     37  C   UNL     1       2.583   0.060  -0.169  0.00  0.00    +0.000 A 
ENDBRANCH  22  35
ENDBRANCH  21  30
ENDBRANCH  20  21
ENDBRANCH   1  20
TORSDOF 6
