REMARK  Name = ZINC40800189
REMARK  6 active torsions:
REMARK  status: ('A' for Active; 'I' for Inactive)
REMARK    1  A    between atoms: C_1  and  C_2
REMARK    2  A    between atoms: C_5  and  C_8
REMARK    3  A    between atoms: C_8  and  N_9
REMARK    4  A    between atoms: C_16  and  C_17
REMARK    5  A    between atoms: N_19  and  C_20
REMARK    6  A    between atoms: C_21  and  C_29
REMARK                            x       y       z     vdW  Elec       q    Type
REMARK                         _______ _______ _______ _____ _____    ______ ____
ROOT
ATOM      1  C   UNL     1       1.542  -4.938   2.614  0.00  0.00    +0.265 C 
ATOM      2  O   UNL     1       2.234  -5.196   3.581  0.00  0.00    -0.268 OA
ATOM      3  N   UNL     1       0.241  -4.624   2.780  0.00  0.00    -0.274 N 
ATOM      4  H   UNL     1      -0.304  -4.394   2.011  0.00  0.00    +0.156 HD
ENDROOT
BRANCH   3   5
ATOM      5  C   UNL     1      -0.316  -4.631   4.047  0.00  0.00    +0.085 A 
ATOM      6  C   UNL     1      -1.624  -4.343   4.405  0.00  0.00    +0.068 A 
ATOM      7  C   UNL     1      -1.960  -4.422   5.816  0.00  0.00    -0.023 A 
ATOM      8  C   UNL     1      -0.926  -4.774   6.611  0.00  0.00    -0.004 A 
ATOM      9  S   UNL     1       0.435  -4.996   5.504  0.00  0.00    -0.077 S 
ATOM     10  C   UNL     1      -0.952  -4.939   8.099  0.00  0.00    +0.043 C 
ATOM     11  C   UNL     1      -2.232  -4.283   8.635  0.00  0.00    +0.005 C 
ATOM     12  C   UNL     1      -3.421  -4.753   7.792  0.00  0.00    +0.005 C 
ATOM     13  C   UNL     1      -3.340  -4.142   6.391  0.00  0.00    +0.037 C 
BRANCH   6  14
ATOM     14  C   UNL     1      -2.627  -3.973   3.401  0.00  0.00    +0.244 C 
ATOM     15  O   UNL     1      -3.299  -4.835   2.866  0.00  0.00    -0.270 OA
ATOM     16  N   UNL     1      -2.804  -2.679   3.070  0.00  0.00    -0.325 N 
ATOM     17  H   UNL     1      -2.268  -1.991   3.497  0.00  0.00    +0.145 HD
ATOM     18  H   UNL     1      -3.467  -2.434   2.406  0.00  0.00    +0.145 HD
ENDBRANCH   6  14
ENDBRANCH   3   5
BRANCH   1  26
ATOM     19  N   UNL     1       1.502  -4.541   0.111  0.00  0.00    -0.329 N 
ATOM     20  C   UNL     1       2.366  -4.727  -0.938  0.00  0.00    +0.088 A 
ATOM     21  C   UNL     1       2.555  -4.585  -2.333  0.00  0.00    +0.067 A 
ATOM     22  C   UNL     1       3.788  -5.042  -2.614  0.00  0.00    +0.198 A 
ATOM     23  O   UNL     1       4.380  -5.460  -1.483  0.00  0.00    -0.461 OA
ATOM     24  C   UNL     1       3.540  -5.283  -0.439  0.00  0.00    +0.153 A 
ATOM     25  C   UNL     1       3.377  -5.434   0.942  0.00  0.00    +0.079 A 
ATOM     26  C   UNL     1       2.121  -4.970   1.269  0.00  0.00    +0.109 A 
BRANCH  19  27
ATOM     27  C   UNL     1       0.153  -3.977   0.019  0.00  0.00    +0.157 C 
BRANCH  27  32
ATOM     28  C   UNL     1      -3.625  -8.193  -1.142  0.00  0.00    +0.044 C 
ATOM     29  C   UNL     1      -2.639  -7.094  -0.839  0.00  0.00    -0.050 A 
ATOM     30  C   UNL     1      -2.224  -6.876   0.462  0.00  0.00    +0.004 A 
ATOM     31  C   UNL     1      -1.320  -5.868   0.739  0.00  0.00    +0.005 A 
ATOM     32  C   UNL     1      -0.831  -5.077  -0.283  0.00  0.00    -0.028 A 
ATOM     33  C   UNL     1      -1.246  -5.295  -1.584  0.00  0.00    +0.005 A 
ATOM     34  C   UNL     1      -2.146  -6.306  -1.863  0.00  0.00    +0.004 A 
ENDBRANCH  27  32
ENDBRANCH  19  27
ENDBRANCH   1  26
TORSDOF 5
