REMARK  Name = ZINC48547589
REMARK  8 active torsions:
REMARK  status: ('A' for Active; 'I' for Inactive)
REMARK    1  A    between atoms: C_6  and  C_7
REMARK    2  A    between atoms: C_7  and  C_9
REMARK    3  A    between atoms: C_7  and  C_11
REMARK    4  A    between atoms: C_11  and  C_17
REMARK    5  A    between atoms: N_12  and  N_13
REMARK    6  A    between atoms: N_13  and  C_14
REMARK    7  A    between atoms: C_14  and  N_16
REMARK    8  A    between atoms: N_19  and  C_20
REMARK                            x       y       z     vdW  Elec       q    Type
REMARK                         _______ _______ _______ _____ _____    ______ ____
ROOT
ATOM      1  C   UNL     1      -1.440  -1.708   1.183  0.00  0.00    +0.142 C 
ATOM      2  N   UNL     1      -0.483  -1.809   2.060  0.00  0.00    -0.179 NA
ENDROOT
BRANCH   1   3
ATOM      3  C   UNL     1      -2.635  -2.549   1.303  0.00  0.00    +0.262 C 
ATOM      4  O   UNL     1      -3.530  -2.454   0.483  0.00  0.00    -0.269 OA
ATOM      5  N   UNL     1      -2.744  -3.425   2.321  0.00  0.00    -0.305 N 
ATOM      6  H   UNL     1      -2.030  -3.501   2.974  0.00  0.00    +0.150 HD
BRANCH   5   7
ATOM      7  C   UNL     1      -3.938  -4.265   2.440  0.00  0.00    +0.036 C 
ATOM      8  C   UNL     1      -5.174  -3.375   2.586  0.00  0.00    +0.029 C 
ATOM      9  C   UNL     1      -6.422  -4.252   2.711  0.00  0.00    -0.008 C 
ATOM     10  C   UNL     1      -6.292  -5.151   3.942  0.00  0.00    +0.007 C 
ATOM     11  C   UNL     1      -5.056  -6.041   3.797  0.00  0.00    -0.008 C 
ATOM     12  C   UNL     1      -3.808  -5.164   3.672  0.00  0.00    +0.029 C 
ATOM     13  C   UNL     1      -5.197  -6.908   2.544  0.00  0.00    +0.007 C 
ATOM     14  C   UNL     1      -5.327  -6.010   1.313  0.00  0.00    -0.008 C 
ATOM     15  C   UNL     1      -6.563  -5.120   1.459  0.00  0.00    +0.007 C 
ATOM     16  C   UNL     1      -4.079  -5.133   1.188  0.00  0.00    +0.029 C 
ENDBRANCH   5   7
ENDBRANCH   1   3
BRANCH   2  17
ATOM     17  N   UNL     1       0.642  -0.979   1.967  0.00  0.00    -0.218 N 
ATOM     18  H   UNL     1       0.741  -0.379   1.212  0.00  0.00    +0.176 HD
BRANCH  17  19
ATOM     19  C   UNL     1       1.586  -1.015   2.928  0.00  0.00    +0.147 C 
ATOM     20  S   UNL     1       2.887   0.097   2.892  0.00  0.00    -0.017 S 
BRANCH  19  21
ATOM     21  N   UNL     1       1.506  -1.927   3.918  0.00  0.00    -0.339 N 
ATOM     22  H   UNL     1       0.769  -2.557   3.939  0.00  0.00    +0.144 HD
ATOM     23  H   UNL     1       2.186  -1.952   4.609  0.00  0.00    +0.144 HD
ENDBRANCH  19  21
ENDBRANCH  17  19
ENDBRANCH   2  17
BRANCH   1  24
ATOM     24  C   UNL     1      -1.319  -0.728   0.045  0.00  0.00    +0.176 C 
BRANCH  24  30
ATOM     25  C   UNL     1       0.208  -1.118  -1.899  0.00  0.00    +0.007 A 
ATOM     26  C   UNL     1       0.555  -1.793  -3.054  0.00  0.00    +0.020 A 
ATOM     27  C   UNL     1      -0.250  -2.816  -3.525  0.00  0.00    +0.041 A 
ATOM     28  C   UNL     1      -1.401  -3.161  -2.840  0.00  0.00    +0.020 A 
ATOM     29  C   UNL     1      -1.746  -2.485  -1.685  0.00  0.00    +0.007 A 
ATOM     30  C   UNL     1      -0.942  -1.464  -1.214  0.00  0.00    -0.024 A 
ATOM     31 CL   UNL     1       0.185  -3.664  -4.976  0.00  0.00    -0.084 Cl
ENDBRANCH  24  30
BRANCH  24  32
ATOM     32  C   UNL     1      -2.608  -0.045  -0.153  0.00  0.00    +0.077 C 
ATOM     33  N   UNL     1      -3.602   0.483  -0.306  0.00  0.00    -0.196 NA
ENDBRANCH  24  32
ENDBRANCH   1  24
TORSDOF 8
