REMARK  Name = ZINC40622084
REMARK  6 active torsions:
REMARK  status: ('A' for Active; 'I' for Inactive)
REMARK    1  A    between atoms: C_6  and  N_7
REMARK    2  A    between atoms: C_9  and  N_23
REMARK    3  A    between atoms: C_10  and  N_14
REMARK    4  A    between atoms: N_14  and  C_15
REMARK    5  A    between atoms: C_15  and  C_16
REMARK    6  A    between atoms: C_16  and  C_17
REMARK                            x       y       z     vdW  Elec       q    Type
REMARK                         _______ _______ _______ _____ _____    ______ ____
ROOT
ATOM      1  N   UNL     1      -1.198  -0.721   0.010  0.00  0.00    -0.297 N 
ATOM      2  C   UNL     1      -1.181  -2.104  -0.102  0.00  0.00    +0.159 A 
ATOM      3  C   UNL     1      -2.371  -2.818  -0.205  0.00  0.00    +0.205 A 
ATOM      4  C   UNL     1      -2.300  -4.204  -0.316  0.00  0.00    +0.154 A 
ATOM      5  N   UNL     1      -1.105  -4.791  -0.319  0.00  0.00    -0.218 NA
ATOM      6  C   UNL     1      -0.001  -4.079  -0.219  0.00  0.00    +0.225 A 
ATOM      7  N   UNL     1      -0.026  -2.766  -0.118  0.00  0.00    -0.218 NA
ATOM      8  H   UNL     1      -2.043  -0.252   0.099  0.00  0.00    +0.154 HD
ENDROOT
BRANCH   1  14
ATOM      9  C   UNL     1       1.075  -0.457  -0.761  0.00  0.00    +0.024 A 
ATOM     10  C   UNL     1       2.259   0.254  -0.773  0.00  0.00    +0.016 A 
ATOM     11  C   UNL     1       2.377   1.417  -0.033  0.00  0.00    +0.013 A 
ATOM     12  C   UNL     1       1.310   1.871   0.722  0.00  0.00    +0.016 A 
ATOM     13  C   UNL     1       0.123   1.164   0.738  0.00  0.00    +0.024 A 
ATOM     14  C   UNL     1       0.002  -0.004  -0.004  0.00  0.00    +0.032 A 
ATOM     15  I   UNL     1       4.175   2.491  -0.055  0.00  0.00    -0.044 I 
ENDBRANCH   1  14
BRANCH   3  16
ATOM     16  N   UNL     1      -3.678  -2.123  -0.197  0.00  0.00    +0.063 N 
ATOM     17  O   UNL     1      -4.172  -1.754  -1.237  0.00  0.00    -0.126 OA
ATOM     18  O   UNL     1      -4.250  -1.925   0.849  0.00  0.00    -0.126 OA
ENDBRANCH   3  16
BRANCH   4  19
ATOM     19  N   UNL     1      -3.456  -4.961  -0.421  0.00  0.00    -0.327 N 
ATOM     20  H   UNL     1      -4.323  -4.525  -0.417  0.00  0.00    +0.148 HD
BRANCH  19  21
ATOM     21  C   UNL     1      -3.369  -6.419  -0.536  0.00  0.00    +0.107 C 
BRANCH  21  22
ATOM     22  C   UNL     1      -4.778  -7.007  -0.637  0.00  0.00    +0.049 C 
BRANCH  22  23
ATOM     23  C   UNL     1      -4.689  -8.507  -0.756  0.00  0.00    -0.072 C 
ATOM     24  C   UNL     1      -4.799  -9.209   0.326  0.00  0.00    -0.028 C 
ATOM     25  C   UNL     1      -4.721 -10.707   0.367  0.00  0.00    +0.027 C 
ATOM     26  C   UNL     1      -4.921 -11.285  -1.036  0.00  0.00    +0.004 C 
ATOM     27  C   UNL     1      -3.994 -10.540  -2.004  0.00  0.00    +0.005 C 
ATOM     28  C   UNL     1      -4.482  -9.093  -2.122  0.00  0.00    +0.030 C 
ENDBRANCH  22  23
ENDBRANCH  21  22
ENDBRANCH  19  21
ENDBRANCH   4  19
TORSDOF 6
