REMARK  Name = ZINC28050230
REMARK  7 active torsions:
REMARK  status: ('A' for Active; 'I' for Inactive)
REMARK    1  A    between atoms: C_4  and  O_32
REMARK    2  A    between atoms: C_5  and  C_7
REMARK    3  A    between atoms: N_8  and  N_9
REMARK    4  A    between atoms: C_13  and  C_16
REMARK    5  A    between atoms: C_16  and  C_17
REMARK    6  A    between atoms: N_19  and  C_20
REMARK    7  A    between atoms: C_22  and  C_27
REMARK                            x       y       z     vdW  Elec       q    Type
REMARK                         _______ _______ _______ _____ _____    ______ ____
ROOT
ATOM      1  N   UNL     1      -0.936  -2.178  -0.381  0.00  0.00    -0.127 NA
ATOM      2  C   UNL     1      -2.065  -2.861  -0.450  0.00  0.00    +0.183 C 
ATOM      3  N   UNL     1      -2.243  -4.197  -0.353  0.00  0.00    -0.263 N 
ATOM      4  C   UNL     1      -3.380  -4.778  -0.431  0.00  0.00    +0.233 C 
ATOM      5  C   UNL     1      -4.581  -3.867  -0.647  0.00  0.00    +0.149 C 
ATOM      6  S   UNL     1      -3.725  -2.240  -0.685  0.00  0.00    -0.075 S 
ATOM      7  O   UNL     1      -3.507  -6.113  -0.329  0.00  0.00    -0.274 OA
ATOM      8  H   UNL     1      -1.378  -4.858  -0.197  0.00  0.00    +0.157 HD
ENDROOT
BRANCH   1  10
ATOM      9  C   UNL     1       1.298  -2.119  -0.132  0.00  0.00    +0.146 C 
ATOM     10  N   UNL     1       0.182  -2.795  -0.200  0.00  0.00    -0.155 NA
BRANCH   9  15
ATOM     11  C   UNL     1       0.039   1.399   0.169  0.00  0.00    +0.001 A 
ATOM     12  C   UNL     1       1.206   2.122  -0.014  0.00  0.00    +0.004 A 
ATOM     13  C   UNL     1       2.405   1.470  -0.236  0.00  0.00    +0.046 A 
ATOM     14  C   UNL     1       2.447   0.086  -0.277  0.00  0.00    +0.125 A 
ATOM     15  C   UNL     1       1.267  -0.650  -0.092  0.00  0.00    +0.036 A 
ATOM     16  C   UNL     1       0.061   0.022   0.132  0.00  0.00    +0.013 A 
BRANCH  14  17
ATOM     17  O   UNL     1       3.624  -0.555  -0.495  0.00  0.00    -0.506 OA
ATOM     18  H   UNL     1       3.654  -1.654  -0.527  0.00  0.00    +0.292 HD
ENDBRANCH  14  17
ENDBRANCH   9  15
ENDBRANCH   1  10
BRANCH   5  19
ATOM     19  C   UNL     1      -5.278  -4.168  -1.976  0.00  0.00    +0.120 C 
BRANCH  19  20
ATOM     20  C   UNL     1      -6.526  -3.331  -2.089  0.00  0.00    +0.219 C 
ATOM     21  O   UNL     1      -6.829  -2.568  -1.196  0.00  0.00    -0.275 OA
ATOM     22  N   UNL     1      -7.306  -3.429  -3.184  0.00  0.00    -0.284 N 
ATOM     23  H   UNL     1      -6.989  -4.055  -4.031  0.00  0.00    +0.155 HD
BRANCH  22  24
ATOM     24  C   UNL     1      -8.520  -2.734  -3.243  0.00  0.00    +0.052 A 
ATOM     25  C   UNL     1      -8.642  -1.494  -2.632  0.00  0.00    +0.037 A 
ATOM     26  C   UNL     1      -9.839  -0.808  -2.697  0.00  0.00    +0.057 A 
ATOM     27  C   UNL     1     -10.920  -1.360  -3.360  0.00  0.00    +0.014 A 
ATOM     28  C   UNL     1     -10.804  -2.598  -3.965  0.00  0.00    +0.022 A 
ATOM     29  C   UNL     1      -9.607  -3.287  -3.909  0.00  0.00    +0.062 A 
ATOM     30 CL   UNL     1      -9.463  -4.841  -4.669  0.00  0.00    -0.082 Cl
BRANCH  26  31
ATOM     31  C   UNL     1      -9.970   0.541  -2.038  0.00  0.00    +0.417 C 
ATOM     32  F   UNL     1     -11.266   1.031  -2.232  0.00  0.00    -0.166 F 
ATOM     33  F   UNL     1      -9.719   0.417  -0.667  0.00  0.00    -0.166 F 
ATOM     34  F   UNL     1      -9.047   1.428  -2.603  0.00  0.00    -0.166 F 
ENDBRANCH  26  31
ENDBRANCH  22  24
ENDBRANCH  19  20
ENDBRANCH   5  19
TORSDOF 7
