REMARK  Name = ZINC06226185
REMARK  4 active torsions:
REMARK  status: ('A' for Active; 'I' for Inactive)
REMARK    1  A    between atoms: C_3  and  C_6
REMARK    2  A    between atoms: C_11  and  C_13
REMARK    3  A    between atoms: N_18  and  C_19
REMARK    4  A    between atoms: C_19  and  C_20
REMARK                            x       y       z     vdW  Elec       q    Type
REMARK                         _______ _______ _______ _____ _____    ______ ____
ROOT
ATOM      1  C   UNL     1       1.268  -6.177  -1.379  0.00  0.00    +0.219 A 
ATOM      2  N   UNL     1       1.264  -4.981  -0.766  0.00  0.00    -0.190 NA
ATOM      3  C   UNL     1       1.237  -4.023  -1.663  0.00  0.00    +0.222 A 
ATOM      4  N   UNL     1       1.233  -4.604  -2.897  0.00  0.00    -0.162 N 
ATOM      5  N   UNL     1       1.253  -5.992  -2.681  0.00  0.00    -0.137 NA
ATOM      6  C   UNL     1       1.214  -3.973  -4.088  0.00  0.00    +0.288 C 
ATOM      7  O   UNL     1       1.198  -2.757  -4.131  0.00  0.00    -0.265 OA
ATOM      8  N   UNL     1       1.222  -2.667  -1.404  0.00  0.00    -0.309 N 
ATOM      9  H   UNL     1       1.206  -2.033  -2.138  0.00  0.00    +0.149 HD
ENDROOT
BRANCH   1  12
ATOM     10  C   UNL     1       1.323  -9.671  -0.287  0.00  0.00    +0.042 A 
ATOM     11  C   UNL     1       1.301  -8.703  -1.310  0.00  0.00    +0.053 A 
ATOM     12  C   UNL     1       1.291  -7.488  -0.699  0.00  0.00    +0.173 A 
ATOM     13  O   UNL     1       1.311  -7.688   0.633  0.00  0.00    -0.460 OA
ATOM     14  C   UNL     1       1.326  -9.007   0.885  0.00  0.00    +0.196 A 
ENDBRANCH   1  12
BRANCH   6  15
ATOM     15  C   UNL     1       1.213  -4.749  -5.328  0.00  0.00    +0.078 A 
ATOM     16  C   UNL     1       1.195  -4.300  -6.641  0.00  0.00    +0.021 A 
ATOM     17  C   UNL     1       1.198  -5.254  -7.627  0.00  0.00    +0.008 A 
ATOM     18  C   UNL     1       1.218  -6.568  -7.279  0.00  0.00    +0.046 A 
ATOM     19  S   UNL     1       1.241  -6.519  -5.547  0.00  0.00    -0.092 S 
ENDBRANCH   6  15
BRANCH   8  20
ATOM     20  C   UNL     1       1.228  -2.186  -0.020  0.00  0.00    +0.139 C 
BRANCH  20  21
ATOM     21  C   UNL     1       1.208  -0.679  -0.013  0.00  0.00    -0.030 A 
ATOM     22  C   UNL     1       0.002  -0.004   0.002  0.00  0.00    +0.006 A 
ATOM     23  C   UNL     1      -0.017   1.378   0.010  0.00  0.00    +0.020 A 
ATOM     24  C   UNL     1       1.172   2.086   0.002  0.00  0.00    +0.041 A 
ATOM     25  C   UNL     1       2.379   1.409  -0.013  0.00  0.00    +0.020 A 
ATOM     26  C   UNL     1       2.397   0.027  -0.021  0.00  0.00    +0.006 A 
ATOM     27 CL   UNL     1       1.149   3.821   0.011  0.00  0.00    -0.084 Cl
ENDBRANCH  20  21
ENDBRANCH   8  20
TORSDOF 4
