REMARK  Name = ZINC25391662
REMARK  9 active torsions:
REMARK  status: ('A' for Active; 'I' for Inactive)
REMARK    1  A    between atoms: C_1  and  O_2
REMARK    2  A    between atoms: O_2  and  C_3
REMARK    3  A    between atoms: C_8  and  O_9
REMARK    4  A    between atoms: O_9  and  C_10
REMARK    5  A    between atoms: C_11  and  C_29
REMARK    6  A    between atoms: N_13  and  C_16
REMARK    7  A    between atoms: C_16  and  C_17
REMARK    8  A    between atoms: N_19  and  C_20
REMARK    9  A    between atoms: C_25  and  N_26
REMARK                            x       y       z     vdW  Elec       q    Type
REMARK                         _______ _______ _______ _____ _____    ______ ____
ROOT
ATOM      1  C   UNL     1      -0.145   1.185   2.382  0.00  0.00    +0.162 A 
ATOM      2  C   UNL     1       0.997   0.406   2.428  0.00  0.00    +0.053 A 
ATOM      3  C   UNL     1       1.542   0.030   3.646  0.00  0.00    -0.043 A 
ATOM      4  C   UNL     1       0.939   0.427   4.822  0.00  0.00    -0.049 A 
ATOM      5  C   UNL     1      -0.209   1.204   4.781  0.00  0.00    +0.052 A 
ATOM      6  C   UNL     1      -0.755   1.584   3.567  0.00  0.00    +0.162 A 
ATOM      7  C   UNL     1       1.495   0.044   6.168  0.00  0.00    +0.001 C 
ATOM      8  N   UNL     1       2.427  -1.081   6.038  0.00  0.00    +0.393 N 
ATOM      9  C   UNL     1       3.448  -0.781   5.022  0.00  0.00    -0.072 C 
ATOM     10  C   UNL     1       2.787  -0.819   3.644  0.00  0.00    +0.017 C 
ATOM     11  H   UNL     1       1.857  -1.964   5.713  0.00  0.00    -0.080 HD
ENDROOT
BRANCH   7  12
ATOM     12  C   UNL     1       0.362  -0.351   7.080  0.00  0.00    -0.019 A 
ATOM     13  C   UNL     1      -0.248   0.376   8.047  0.00  0.00    +0.010 A 
ATOM     14  C   UNL     1      -1.279  -0.198   8.767  0.00  0.00    +0.008 A 
ATOM     15  C   UNL     1      -1.649  -1.471   8.485  0.00  0.00    +0.045 A 
ATOM     16  S   UNL     1      -0.529  -1.896   7.161  0.00  0.00    -0.103 S 
ENDBRANCH   7  12
BRANCH   1  18
ATOM     17  C   UNL     1       0.007   1.107   0.010  0.00  0.00    +0.277 C 
ATOM     18  O   UNL     1      -0.673   1.554   1.184  0.00  0.00    -0.491 OA
ENDBRANCH   1  18
BRANCH   6  19
ATOM     19  O   UNL     1      -1.882   2.345   3.533  0.00  0.00    -0.491 OA
ATOM     20  C   UNL     1      -2.452   2.717   4.790  0.00  0.00    +0.277 C 
ENDBRANCH   6  19
BRANCH   8  21
ATOM     21  C   UNL     1       3.048  -1.402   7.330  0.00  0.00    +0.020 C 
BRANCH  21  22
ATOM     22  C   UNL     1       3.802  -2.702   7.215  0.00  0.00    +0.201 C 
ATOM     23  O   UNL     1       3.820  -3.301   6.162  0.00  0.00    -0.278 OA
ATOM     24  N   UNL     1       4.456  -3.198   8.284  0.00  0.00    -0.285 N 
ATOM     25  H   UNL     1       4.517  -2.611   9.213  0.00  0.00    +0.155 HD
BRANCH  24  26
ATOM     26  C   UNL     1       5.058  -4.459   8.213  0.00  0.00    +0.064 A 
ATOM     27  C   UNL     1       4.584  -5.406   7.315  0.00  0.00    +0.025 A 
ATOM     28  C   UNL     1       5.181  -6.650   7.247  0.00  0.00    +0.002 A 
ATOM     29  C   UNL     1       6.249  -6.952   8.071  0.00  0.00    +0.002 A 
ATOM     30  C   UNL     1       6.723  -6.011   8.966  0.00  0.00    +0.034 A 
ATOM     31  C   UNL     1       6.135  -4.763   9.035  0.00  0.00    +0.147 A 
BRANCH  31  32
ATOM     32  N   UNL     1       6.647  -3.754   9.989  0.00  0.00    +0.058 N 
ATOM     33  O   UNL     1       7.646  -3.989  10.646  0.00  0.00    -0.126 OA
ATOM     34  O   UNL     1       6.070  -2.689  10.118  0.00  0.00    -0.126 OA
ENDBRANCH  31  32
ENDBRANCH  24  26
ENDBRANCH  21  22
ENDBRANCH   8  21
TORSDOF 7
