REMARK  Name = ZINC23667722
REMARK  9 active torsions:
REMARK  status: ('A' for Active; 'I' for Inactive)
REMARK    1  A    between atoms: C_1  and  C_2
REMARK    2  A    between atoms: C_2  and  C_4
REMARK    3  A    between atoms: C_2  and  N_12
REMARK    4  A    between atoms: N_12  and  C_13
REMARK    5  A    between atoms: N_12  and  C_14
REMARK    6  A    between atoms: C_14  and  C_15
REMARK    7  A    between atoms: N_17  and  C_18
REMARK    8  A    between atoms: C_22  and  S_24
REMARK    9  A    between atoms: S_24  and  N_27
REMARK                            x       y       z     vdW  Elec       q    Type
REMARK                         _______ _______ _______ _____ _____    ______ ____
ROOT
ATOM      1  C   UNL     1       2.426  -0.238   0.081  0.00  0.00    +0.201 C 
ATOM      2  O   UNL     1       1.388  -0.864   0.088  0.00  0.00    -0.278 OA
ATOM      3  N   UNL     1       2.403   1.107  -0.014  0.00  0.00    -0.287 N 
ATOM      4  H   UNL     1       3.344   1.669  -0.097  0.00  0.00    +0.155 HD
ENDROOT
BRANCH   3   5
ATOM      5  C   UNL     1       1.180   1.787  -0.007  0.00  0.00    +0.035 A 
ATOM      6  C   UNL     1       1.079   3.031   0.601  0.00  0.00    +0.023 A 
ATOM      7  C   UNL     1      -0.130   3.698   0.610  0.00  0.00    +0.004 A 
ATOM      8  C   UNL     1      -1.238   3.132   0.004  0.00  0.00    +0.029 A 
ATOM      9  C   UNL     1      -1.141   1.894  -0.602  0.00  0.00    +0.114 A 
ATOM     10  C   UNL     1       0.065   1.220  -0.610  0.00  0.00    +0.052 A 
BRANCH   9  11
ATOM     11  S   UNL     1      -2.556   1.175  -1.367  0.00  0.00    +0.100 S 
ATOM     12  O   UNL     1      -3.427   2.247  -1.699  0.00  0.00    -0.146 OA
ATOM     13  O   UNL     1      -2.071   0.258  -2.338  0.00  0.00    -0.146 OA
BRANCH  11  14
ATOM     14  N   UNL     1      -3.332   0.276  -0.213  0.00  0.00    -0.118 NA
ATOM     15  C   UNL     1      -4.414  -0.366  -0.512  0.00  0.00    +0.117 C 
ATOM     16  C   UNL     1      -5.074  -0.371  -1.874  0.00  0.00    +0.074 C 
ATOM     17  C   UNL     1      -6.037  -1.581  -1.825  0.00  0.00    +0.026 C 
ATOM     18  C   UNL     1      -6.313  -1.712  -0.311  0.00  0.00    +0.103 C 
ATOM     19  N   UNL     1      -5.138  -1.137   0.355  0.00  0.00    -0.331 N 
ATOM     20  H   UNL     1      -4.946  -1.354   1.416  0.00  0.00    +0.147 HD
ENDBRANCH  11  14
ENDBRANCH   9  11
ENDBRANCH   3   5
BRANCH   1  21
ATOM     21  C   UNL     1       3.744  -0.963   0.179  0.00  0.00    +0.019 C 
BRANCH  21  22
ATOM     22  N   UNL     1       3.501  -2.409   0.272  0.00  0.00    +0.388 N 
ATOM     23  C   UNL     1       2.821  -2.749   1.529  0.00  0.00    -0.095 C 
ATOM     24  H   UNL     1       2.839  -2.695  -0.559  0.00  0.00    -0.081 HD
BRANCH  22  26
ATOM     25  C   UNL     1       5.383  -2.857  -1.230  0.00  0.00    -0.008 C 
ATOM     26  C   UNL     1       4.754  -3.163   0.131  0.00  0.00    -0.040 C 
BRANCH  26  27
ATOM     27  C   UNL     1       4.466  -4.639   0.231  0.00  0.00    -0.058 A 
ATOM     28  C   UNL     1       5.330  -5.465   0.924  0.00  0.00    +0.005 A 
ATOM     29  C   UNL     1       5.068  -6.819   1.018  0.00  0.00    +0.041 A 
ATOM     30  C   UNL     1       3.939  -7.348   0.418  0.00  0.00    +0.158 A 
ATOM     31  C   UNL     1       3.072  -6.519  -0.277  0.00  0.00    +0.159 A 
ATOM     32  C   UNL     1       3.335  -5.163  -0.365  0.00  0.00    +0.043 A 
ATOM     33  F   UNL     1       1.969  -7.034  -0.864  0.00  0.00    -0.202 F 
ATOM     34  F   UNL     1       3.682  -8.672   0.509  0.00  0.00    -0.202 F 
ENDBRANCH  26  27
ENDBRANCH  22  26
ENDBRANCH  21  22
ENDBRANCH   1  21
TORSDOF 7
