REMARK  Name = ZINC19805398
REMARK  13 active torsions:
REMARK  status: ('A' for Active; 'I' for Inactive)
REMARK    1  A    between atoms: C_1  and  C_2
REMARK    2  A    between atoms: C_3  and  C_34
REMARK    3  A    between atoms: C_4  and  C_21
REMARK    4  A    between atoms: C_10  and  C_15
REMARK    5  A    between atoms: C_23  and  O_32
REMARK    6  A    between atoms: C_24  and  O_30
REMARK    7  A    between atoms: C_26  and  N_27
REMARK    8  A    between atoms: O_30  and  C_31
REMARK    9  A    between atoms: O_32  and  C_33
REMARK   10  A    between atoms: C_34  and  O_36
REMARK   11  A    between atoms: O_36  and  C_37
REMARK   12  A    between atoms: C_37  and  C_38
REMARK   13  A    between atoms: C_37  and  C_39
REMARK                            x       y       z     vdW  Elec       q    Type
REMARK                         _______ _______ _______ _____ _____    ______ ____
ROOT
ATOM      1  C   UNL     1       3.125   5.563   2.377  0.00  0.00    +0.061 C 
ATOM      2  C   UNL     1       3.688   5.209   1.025  0.00  0.00    +0.016 C 
ATOM      3  C   UNL     1       4.467   6.090   0.374  0.00  0.00    +0.065 C 
ATOM      4  C   UNL     1       5.052   5.769  -0.970  0.00  0.00    +0.095 C 
ATOM      5  C   UNL     1       4.326   4.615  -1.614  0.00  0.00    +0.024 C 
ATOM      6  C   UNL     1       3.550   3.792  -0.878  0.00  0.00    +0.016 C 
ATOM      7  N   UNL     1       3.403   3.993   0.468  0.00  0.00    -0.321 N 
ATOM      8  C   UNL     1       2.822   2.634  -1.516  0.00  0.00    +0.059 C 
ATOM      9  C   UNL     1       3.625   2.119  -2.713  0.00  0.00    +0.032 C 
ATOM     10  C   UNL     1       3.813   3.273  -3.704  0.00  0.00    +0.088 C 
ATOM     11  C   UNL     1       4.484   4.420  -2.998  0.00  0.00    +0.162 C 
ATOM     12  O   UNL     1       5.174   5.191  -3.634  0.00  0.00    -0.292 OA
ATOM     13  H   UNL     1       3.053   3.166   1.103  0.00  0.00    +0.152 HD
ENDROOT
BRANCH   9  14
ATOM     14  C   UNL     1       2.875   0.996  -3.380  0.00  0.00    -0.044 A 
ATOM     15  C   UNL     1       3.457  -0.253  -3.493  0.00  0.00    +0.004 A 
ATOM     16  C   UNL     1       2.769  -1.284  -4.104  0.00  0.00    +0.000 A 
ATOM     17  C   UNL     1       1.500  -1.065  -4.609  0.00  0.00    +0.000 A 
ATOM     18  C   UNL     1       0.916   0.183  -4.492  0.00  0.00    +0.000 A 
ATOM     19  C   UNL     1       1.604   1.214  -3.880  0.00  0.00    +0.004 A 
ENDBRANCH   9  14
BRANCH   4  20
ATOM     20  C   UNL     1       6.505   5.408  -0.803  0.00  0.00    -0.001 A 
ATOM     21  C   UNL     1       6.869   4.391   0.060  0.00  0.00    +0.056 A 
ATOM     22  C   UNL     1       8.205   4.059   0.214  0.00  0.00    +0.162 A 
ATOM     23  C   UNL     1       9.179   4.750  -0.501  0.00  0.00    +0.164 A 
ATOM     24  C   UNL     1       8.807   5.767  -1.365  0.00  0.00    +0.082 A 
ATOM     25  C   UNL     1       7.471   6.091  -1.518  0.00  0.00    +0.134 A 
BRANCH  25  26
ATOM     26  N   UNL     1       7.076   7.174  -2.446  0.00  0.00    +0.057 N 
ATOM     27  O   UNL     1       7.623   7.278  -3.529  0.00  0.00    -0.126 OA
ATOM     28  O   UNL     1       6.204   7.962  -2.126  0.00  0.00    -0.126 OA
ENDBRANCH  25  26
BRANCH  23  29
ATOM     29  O   UNL     1      10.491   4.427  -0.353  0.00  0.00    -0.491 OA
ATOM     30  C   UNL     1      11.435   5.178  -1.119  0.00  0.00    +0.277 C 
ENDBRANCH  23  29
BRANCH  22  31
ATOM     31  O   UNL     1       8.565   3.059   1.063  0.00  0.00    -0.491 OA
ATOM     32  C   UNL     1       7.513   2.394   1.765  0.00  0.00    +0.277 C 
ENDBRANCH  22  31
ENDBRANCH   4  20
BRANCH   3  33
ATOM     33  C   UNL     1       4.740   7.345   0.968  0.00  0.00    +0.338 C 
ATOM     34  O   UNL     1       4.272   7.617   2.058  0.00  0.00    -0.245 OA
BRANCH  33  35
ATOM     35  O   UNL     1       5.521   8.239   0.326  0.00  0.00    -0.459 OA
BRANCH  35  36
ATOM     36  C   UNL     1       5.755   9.486   0.985  0.00  0.00    +0.171 C 
ATOM     37  C   UNL     1       7.128  10.026   0.580  0.00  0.00    +0.052 C 
ATOM     38  C   UNL     1       4.672  10.488   0.579  0.00  0.00    +0.052 C 
ENDBRANCH  35  36
ENDBRANCH  33  35
ENDBRANCH   3  33
TORSDOF 8
