REMARK  Name = ZINC20882011
REMARK  5 active torsions:
REMARK  status: ('A' for Active; 'I' for Inactive)
REMARK    1  A    between atoms: C_1  and  O_2
REMARK    2  A    between atoms: O_2  and  C_3
REMARK    3  A    between atoms: C_7  and  C_10
REMARK    4  A    between atoms: C_8  and  O_9
REMARK    5  A    between atoms: C_15  and  C_20
REMARK                            x       y       z     vdW  Elec       q    Type
REMARK                         _______ _______ _______ _____ _____    ______ ____
ROOT
ATOM      1  C   UNL     1       2.490  -0.370   2.934  0.00  0.00    +0.140 C 
ATOM      2  C   UNL     1       1.683   0.165   1.776  0.00  0.00    +0.037 C 
ATOM      3  C   UNL     1       1.882   1.338   1.152  0.00  0.00    +0.017 C 
ATOM      4  C   UNL     1       1.013   1.736  -0.031  0.00  0.00    +0.059 C 
ATOM      5  C   UNL     1      -0.400   1.188   0.156  0.00  0.00    +0.032 C 
ATOM      6  C   UNL     1      -0.301  -0.340   0.247  0.00  0.00    +0.088 C 
ATOM      7  C   UNL     1       0.636  -0.693   1.363  0.00  0.00    +0.163 C 
ATOM      8  O   UNL     1       0.493  -1.757   1.933  0.00  0.00    -0.292 OA
ATOM      9  N   UNL     1       2.838   2.242   1.482  0.00  0.00    -0.316 N 
ATOM     10  C   UNL     1       4.171   1.932   1.725  0.00  0.00    +0.052 A 
ATOM     11  C   UNL     1       5.197   2.391   0.917  0.00  0.00    +0.025 A 
ATOM     12  C   UNL     1       6.507   2.082   1.241  0.00  0.00    +0.002 A 
ATOM     13  C   UNL     1       6.787   1.324   2.364  0.00  0.00    +0.002 A 
ATOM     14  C   UNL     1       5.762   0.850   3.163  0.00  0.00    +0.025 A 
ATOM     15  C   UNL     1       4.449   1.140   2.829  0.00  0.00    +0.049 A 
ATOM     16  N   UNL     1       3.380   0.597   3.541  0.00  0.00    -0.331 N 
ATOM     17  H   UNL     1       2.580   3.307   1.574  0.00  0.00    +0.152 HD
ATOM     18  H   UNL     1       3.219   0.915   4.582  0.00  0.00    +0.147 HD
ENDROOT
BRANCH   5  19
ATOM     19  C   UNL     1      -1.258   1.574  -1.021  0.00  0.00    -0.043 A 
ATOM     20  C   UNL     1      -0.888   1.196  -2.299  0.00  0.00    +0.007 A 
ATOM     21  C   UNL     1      -1.677   1.545  -3.378  0.00  0.00    +0.038 A 
ATOM     22  C   UNL     1      -2.831   2.283  -3.182  0.00  0.00    +0.123 A 
ATOM     23  C   UNL     1      -3.198   2.666  -1.903  0.00  0.00    +0.038 A 
ATOM     24  C   UNL     1      -2.411   2.311  -0.824  0.00  0.00    +0.007 A 
ATOM     25  F   UNL     1      -3.600   2.630  -4.237  0.00  0.00    -0.205 F 
ENDBRANCH   5  19
BRANCH   1  30
ATOM     26  C   UNL     1       4.623  -3.498   2.901  0.00  0.00    +0.162 A 
ATOM     27  C   UNL     1       4.824  -3.675   1.541  0.00  0.00    +0.049 A 
ATOM     28  C   UNL     1       4.270  -2.785   0.639  0.00  0.00    +0.004 A 
ATOM     29  C   UNL     1       3.516  -1.718   1.091  0.00  0.00    +0.009 A 
ATOM     30  C   UNL     1       3.312  -1.535   2.446  0.00  0.00    +0.022 A 
ATOM     31  C   UNL     1       3.868  -2.421   3.355  0.00  0.00    +0.164 A 
BRANCH  26  33
ATOM     32  C   UNL     1       5.934  -5.451   3.251  0.00  0.00    +0.277 C 
ATOM     33  O   UNL     1       5.166  -4.372   3.789  0.00  0.00    -0.491 OA
ENDBRANCH  26  33
BRANCH  31  34
ATOM     34  O   UNL     1       3.672  -2.240   4.689  0.00  0.00    -0.503 OA
ATOM     35  H   UNL     1       3.076  -1.388   5.047  0.00  0.00    +0.292 HD
ENDBRANCH  31  34
ENDBRANCH   1  30
TORSDOF 4
