REMARK  Name = ZINC38704985
REMARK  9 active torsions:
REMARK  status: ('A' for Active; 'I' for Inactive)
REMARK    1  A    between atoms: C_1  and  C_2
REMARK    2  A    between atoms: C_4  and  C_39
REMARK    3  A    between atoms: C_5  and  C_9
REMARK    4  A    between atoms: C_6  and  O_8
REMARK    5  A    between atoms: N_17  and  C_33
REMARK    6  A    between atoms: C_18  and  C_20
REMARK    7  A    between atoms: C_24  and  O_26
REMARK    8  A    between atoms: O_26  and  C_27
REMARK    9  A    between atoms: C_33  and  C_34
REMARK                            x       y       z     vdW  Elec       q    Type
REMARK                         _______ _______ _______ _____ _____    ______ ____
ROOT
ATOM      1  C   UNL     1       0.121  -4.331  -0.203  0.00  0.00    +0.102 A 
ATOM      2  C   UNL     1       0.201  -5.109   0.958  0.00  0.00    +0.035 A 
ATOM      3  C   UNL     1       0.202  -6.423   0.530  0.00  0.00    +0.126 A 
ATOM      4  N   UNL     1       0.125  -6.379  -0.833  0.00  0.00    -0.272 N 
ATOM      5  H   UNL     1       0.107  -7.154  -1.415  0.00  0.00    +0.189 HD
ATOM      6  N   UNL     1       0.074  -5.157  -1.229  0.00  0.00    -0.173 NA
ATOM      7  C   UNL     1       0.284  -7.296   1.706  0.00  0.00    +0.266 C 
ATOM      8  O   UNL     1       0.306  -8.512   1.669  0.00  0.00    -0.268 OA
ATOM      9  N   UNL     1       0.333  -6.562   2.832  0.00  0.00    -0.278 N 
ATOM     10  C   UNL     1       0.286  -5.142   2.459  0.00  0.00    +0.142 C 
ENDROOT
BRANCH   1  15
ATOM     11  C   UNL     1      -0.008   1.425  -0.450  0.00  0.00    +0.044 C 
ATOM     12  C   UNL     1       0.028  -0.080  -0.383  0.00  0.00    -0.047 A 
ATOM     13  C   UNL     1      -0.881  -0.824  -1.114  0.00  0.00    +0.007 A 
ATOM     14  C   UNL     1      -0.855  -2.203  -1.059  0.00  0.00    -0.037 A 
ATOM     15  C   UNL     1       0.089  -2.849  -0.265  0.00  0.00    +0.047 A 
ATOM     16  C   UNL     1       1.006  -2.095   0.472  0.00  0.00    +0.127 A 
ATOM     17  C   UNL     1       0.973  -0.711   0.403  0.00  0.00    +0.049 A 
ATOM     18  C   UNL     1      -1.848  -3.008  -1.857  0.00  0.00    +0.044 C 
BRANCH  16  19
ATOM     19  O   UNL     1       1.931  -2.717   1.249  0.00  0.00    -0.506 OA
ATOM     20  H   UNL     1       2.787  -2.844   0.817  0.00  0.00    +0.292 HD
ENDBRANCH  16  19
ENDBRANCH   1  15
BRANCH  10  21
ATOM     21  C   UNL     1      -0.931  -4.488   3.062  0.00  0.00    -0.019 A 
ATOM     22  C   UNL     1      -2.143  -5.153   3.062  0.00  0.00    +0.006 A 
ATOM     23  C   UNL     1      -3.261  -4.556   3.614  0.00  0.00    +0.004 A 
ATOM     24  C   UNL     1      -3.170  -3.293   4.168  0.00  0.00    +0.046 A 
ATOM     25  C   UNL     1      -1.954  -2.625   4.169  0.00  0.00    +0.129 A 
ATOM     26  C   UNL     1      -0.832  -3.228   3.619  0.00  0.00    +0.052 A 
BRANCH  25  27
ATOM     27  O   UNL     1      -1.861  -1.383   4.713  0.00  0.00    -0.456 OA
BRANCH  27  28
ATOM     28  C   UNL     1      -2.990  -0.823   5.221  0.00  0.00    +0.128 A 
ATOM     29  C   UNL     1      -3.416  -1.155   6.499  0.00  0.00    +0.046 A 
ATOM     30  C   UNL     1      -4.564  -0.584   7.013  0.00  0.00    +0.004 A 
ATOM     31  C   UNL     1      -5.289   0.317   6.255  0.00  0.00    +0.000 A 
ATOM     32  C   UNL     1      -4.867   0.649   4.981  0.00  0.00    +0.004 A 
ATOM     33  C   UNL     1      -3.716   0.086   4.465  0.00  0.00    +0.046 A 
ENDBRANCH  27  28
ENDBRANCH  25  27
ENDBRANCH  10  21
BRANCH   9  34
ATOM     34  C   UNL     1       0.418  -7.088   4.197  0.00  0.00    +0.183 C 
BRANCH  34  35
ATOM     35  C   UNL     1       1.866  -7.242   4.587  0.00  0.00    +0.122 A 
ATOM     36  C   UNL     1       2.622  -6.306   5.188  0.00  0.00    +0.046 A 
ATOM     37  C   UNL     1       3.906  -6.870   5.367  0.00  0.00    +0.041 A 
ATOM     38  C   UNL     1       3.857  -8.117   4.864  0.00  0.00    +0.195 A 
ATOM     39  O   UNL     1       2.617  -8.338   4.399  0.00  0.00    -0.466 OA
ENDBRANCH  34  35
ENDBRANCH   9  34
TORSDOF 7
