REMARK  Name = ZINC40084143
REMARK  15 active torsions:
REMARK  status: ('A' for Active; 'I' for Inactive)
REMARK    1  A    between atoms: C_1  and  C_2
REMARK    2  A    between atoms: C_2  and  C_3
REMARK    3  A    between atoms: C_3  and  C_4
REMARK    4  A    between atoms: C_4  and  N_5
REMARK    5  A    between atoms: C_6  and  C_27
REMARK    6  A    between atoms: C_8  and  C_13
REMARK    7  A    between atoms: C_13  and  C_15
REMARK    8  A    between atoms: C_18  and  O_22
REMARK    9  A    between atoms: C_20  and  C_21
REMARK   10  A    between atoms: O_22  and  C_23
REMARK   11  A    between atoms: C_23  and  C_24
REMARK   12  A    between atoms: C_24  and  C_25
REMARK   13  A    between atoms: C_25  and  C_26
REMARK   14  A    between atoms: C_32  and  O_33
REMARK   15  A    between atoms: O_33  and  C_34
REMARK                            x       y       z     vdW  Elec       q    Type
REMARK                         _______ _______ _______ _____ _____    ______ ____
ROOT
ATOM      1  N   UNL     1       1.850  -2.315   1.537  0.00  0.00    -0.283 N 
ATOM      2  C   UNL     1       3.251  -2.623   1.850  0.00  0.00    +0.148 C 
ATOM      3  C   UNL     1       3.240  -3.313   3.194  0.00  0.00    +0.076 C 
ATOM      4  C   UNL     1       1.947  -3.380   3.588  0.00  0.00    +0.249 C 
ATOM      5  C   UNL     1       1.092  -2.754   2.558  0.00  0.00    +0.288 C 
ATOM      6  O   UNL     1      -0.117  -2.653   2.622  0.00  0.00    -0.266 OA
ATOM      7  O   UNL     1       1.508  -3.929   4.744  0.00  0.00    -0.282 OA
ENDROOT
BRANCH   2   8
ATOM      8  C   UNL     1       3.827  -3.538   0.800  0.00  0.00    +0.020 A 
ATOM      9  C   UNL     1       3.002  -4.408   0.114  0.00  0.00    +0.024 A 
ATOM     10  C   UNL     1       3.531  -5.248  -0.849  0.00  0.00    +0.018 A 
ATOM     11  C   UNL     1       4.886  -5.219  -1.128  0.00  0.00    +0.019 A 
ATOM     12  C   UNL     1       5.714  -4.350  -0.444  0.00  0.00    +0.047 A 
ATOM     13  C   UNL     1       5.185  -3.503   0.519  0.00  0.00    +0.125 A 
ATOM     14 BR   UNL     1       2.400  -6.439  -1.787  0.00  0.00    -0.050 Br
BRANCH  13  15
ATOM     15  O   UNL     1       5.997  -2.644   1.190  0.00  0.00    -0.495 OA
ATOM     16  C   UNL     1       7.364  -2.587   0.777  0.00  0.00    +0.277 C 
ENDBRANCH  13  15
ENDBRANCH   2   8
BRANCH   3  17
ATOM     17  C   UNL     1       4.406  -3.813   3.929  0.00  0.00    +0.195 C 
ATOM     18  O   UNL     1       4.551  -5.010   4.097  0.00  0.00    -0.287 OA
BRANCH  17  19
ATOM     19  C   UNL     1       5.402  -2.866   4.466  0.00  0.00    +0.025 A 
ATOM     20  C   UNL     1       5.243  -1.491   4.264  0.00  0.00    +0.015 A 
ATOM     21  C   UNL     1       6.174  -0.611   4.766  0.00  0.00    +0.046 A 
ATOM     22  C   UNL     1       7.274  -1.087   5.472  0.00  0.00    +0.121 A 
ATOM     23  C   UNL     1       7.436  -2.453   5.675  0.00  0.00    +0.049 A 
ATOM     24  C   UNL     1       6.506  -3.340   5.181  0.00  0.00    -0.036 A 
ATOM     25  C   UNL     1       6.680  -4.820   5.407  0.00  0.00    +0.044 C 
BRANCH  22  26
ATOM     26  O   UNL     1       8.191  -0.217   5.965  0.00  0.00    -0.492 OA
BRANCH  26  27
ATOM     27  C   UNL     1       8.019   1.163   5.633  0.00  0.00    +0.229 C 
BRANCH  27  28
ATOM     28  C   UNL     1       9.202   1.968   6.173  0.00  0.00    +0.041 C 
BRANCH  28  29
ATOM     29  C   UNL     1       9.018   3.445   5.818  0.00  0.00    -0.000 C 
ATOM     30  C   UNL     1      10.201   4.251   6.359  0.00  0.00    +0.004 C 
ENDBRANCH  28  29
ENDBRANCH  27  28
ENDBRANCH  26  27
ENDBRANCH  22  26
ENDBRANCH  17  19
ENDBRANCH   3  17
BRANCH   1  31
ATOM     31  C   UNL     1       1.364  -1.643   0.329  0.00  0.00    +0.109 C 
BRANCH  31  32
ATOM     32  C   UNL     1       1.336  -0.131   0.563  0.00  0.00    +0.019 C 
BRANCH  32  34
ATOM     33  C   UNL     1       0.800   2.083  -0.464  0.00  0.00    +0.004 C 
ATOM     34  C   UNL     1       0.829   0.571  -0.698  0.00  0.00    -0.002 C 
ENDBRANCH  32  34
ENDBRANCH  31  32
ENDBRANCH   1  31
TORSDOF 11
