REMARK  Name = ZINC20920467
REMARK  10 active torsions:
REMARK  status: ('A' for Active; 'I' for Inactive)
REMARK    1  A    between atoms: C_1  and  C_2
REMARK    2  A    between atoms: C_2  and  C_3
REMARK    3  A    between atoms: C_2  and  N_4
REMARK    4  A    between atoms: C_6  and  C_9
REMARK    5  A    between atoms: N_10  and  N_11
REMARK    6  A    between atoms: C_15  and  S_18
REMARK    7  A    between atoms: N_16  and  N_17
REMARK    8  A    between atoms: S_18  and  C_19
REMARK    9  A    between atoms: C_19  and  C_20
REMARK   10  A    between atoms: N_22  and  C_23
REMARK                            x       y       z     vdW  Elec       q    Type
REMARK                         _______ _______ _______ _____ _____    ______ ____
ROOT
ATOM      1  N   UNL     1      -0.011   0.966   0.007  0.00  0.00    -0.204 N 
ATOM      2  C   UNL     1       1.181   1.676  -0.000  0.00  0.00    +0.254 A 
ATOM      3  N   UNL     1       1.300   2.981   0.000  0.00  0.00    -0.109 NA
ATOM      4  N   UNL     1       2.666   3.291  -0.006  0.00  0.00    -0.119 NA
ATOM      5  C   UNL     1       3.337   2.164  -0.018  0.00  0.00    +0.210 A 
ATOM      6  N   UNL     1       2.437   1.137  -0.015  0.00  0.00    -0.211 N 
ATOM      7  H   UNL     1       0.004  -0.134   0.006  0.00  0.00    +0.177 HD
ENDROOT
BRANCH   6   8
ATOM      8  N   UNL     1       2.739  -0.196  -0.025  0.00  0.00    -0.294 N 
ATOM      9  H   UNL     1       3.790  -0.521  -0.036  0.00  0.00    +0.163 HD
ATOM     10  H   UNL     1       1.932  -0.943  -0.020  0.00  0.00    +0.163 HD
ENDBRANCH   6   8
BRANCH   1  12
ATOM     11  C   UNL     1      -2.349   0.986   0.018  0.00  0.00    +0.141 C 
ATOM     12  N   UNL     1      -1.234   1.650   0.017  0.00  0.00    -0.187 NA
BRANCH  11  15
ATOM     13  N   UNL     1      -5.790   2.142   0.042  0.00  0.00    -0.268 N 
ATOM     14  C   UNL     1      -4.892   1.137   0.031  0.00  0.00    +0.118 A 
ATOM     15  C   UNL     1      -3.637   1.706   0.029  0.00  0.00    +0.032 A 
ATOM     16  C   UNL     1      -3.812   3.107   0.043  0.00  0.00    +0.143 A 
ATOM     17  N   UNL     1      -5.094   3.356   0.045  0.00  0.00    -0.179 NA
BRANCH  13  19
ATOM     18  C   UNL     1      -7.749   1.819  -1.387  0.00  0.00    +0.032 C 
ATOM     19  C   UNL     1      -7.247   1.989   0.048  0.00  0.00    +0.101 C 
ATOM     20  C   UNL     1      -7.627   0.756   0.871  0.00  0.00    +0.032 C 
ENDBRANCH  13  19
ENDBRANCH  11  15
ENDBRANCH   1  12
BRANCH   5  21
ATOM     21  S   UNL     1       5.092   2.004  -0.035  0.00  0.00    -0.075 S 
BRANCH  21  22
ATOM     22  C   UNL     1       5.689   3.717  -0.032  0.00  0.00    +0.173 C 
BRANCH  22  23
ATOM     23  C   UNL     1       7.196   3.724  -0.045  0.00  0.00    +0.224 C 
ATOM     24  O   UNL     1       7.807   2.676  -0.056  0.00  0.00    -0.275 OA
ATOM     25  N   UNL     1       7.865   4.894  -0.046  0.00  0.00    -0.311 N 
ATOM     26  H   UNL     1       7.311   5.844  -0.036  0.00  0.00    +0.149 HD
BRANCH  25  27
ATOM     27  C   UNL     1       9.330   4.900  -0.059  0.00  0.00    +0.079 C 
ATOM     28  C   UNL     1       9.853   4.769   1.373  0.00  0.00    +0.010 C 
ATOM     29  C   UNL     1      11.383   4.776   1.359  0.00  0.00    +0.009 C 
ATOM     30  C   UNL     1      11.882   6.089   0.751  0.00  0.00    -0.010 C 
ATOM     31  C   UNL     1      11.374   7.264   1.589  0.00  0.00    +0.007 C 
ATOM     32  C   UNL     1       9.845   7.257   1.603  0.00  0.00    -0.010 C 
ATOM     33  C   UNL     1       9.346   5.945   2.211  0.00  0.00    +0.009 C 
ATOM     34  C   UNL     1       9.321   7.388   0.171  0.00  0.00    +0.009 C 
ATOM     35  C   UNL     1       9.829   6.213  -0.667  0.00  0.00    +0.010 C 
ATOM     36  C   UNL     1      11.358   6.219  -0.680  0.00  0.00    +0.009 C 
ENDBRANCH  25  27
ENDBRANCH  22  23
ENDBRANCH  21  22
ENDBRANCH   5  21
TORSDOF 8
