REMARK  Name = ZINC39547254
REMARK  14 active torsions:
REMARK  status: ('A' for Active; 'I' for Inactive)
REMARK    1  A    between atoms: C_1  and  C_2
REMARK    2  A    between atoms: C_3  and  C_31
REMARK    3  A    between atoms: C_4  and  C_13
REMARK    4  A    between atoms: C_5  and  C_9
REMARK    5  A    between atoms: C_6  and  C_8
REMARK    6  A    between atoms: C_9  and  O_11
REMARK    7  A    between atoms: O_11  and  C_12
REMARK    8  A    between atoms: C_13  and  O_15
REMARK    9  A    between atoms: O_15  and  C_16
REMARK   10  A    between atoms: C_16  and  C_17
REMARK   11  A    between atoms: N_19  and  C_20
REMARK   12  A    between atoms: C_21  and  C_28
REMARK   13  A    between atoms: C_31  and  O_33
REMARK   14  A    between atoms: O_33  and  C_34
REMARK                            x       y       z     vdW  Elec       q    Type
REMARK                         _______ _______ _______ _____ _____    ______ ____
ROOT
ATOM      1  C   UNL     1      -1.725  -2.359  -1.420  0.00  0.00    +0.320 C 
ATOM      2  O   UNL     1      -1.882  -1.466  -2.219  0.00  0.00    -0.250 OA
ENDROOT
BRANCH   1   6
ATOM      3  C   UNL     1       0.306   1.483   0.246  0.00  0.00    +0.061 C 
ATOM      4  C   UNL     1       0.160  -0.011   0.117  0.00  0.00    +0.016 C 
ATOM      5  C   UNL     1      -1.067  -0.561   0.114  0.00  0.00    +0.072 C 
ATOM      6  C   UNL     1      -1.260  -2.045  -0.021  0.00  0.00    +0.174 C 
ATOM      7  C   UNL     1       0.025  -2.775   0.248  0.00  0.00    +0.072 C 
ATOM      8  C   UNL     1       1.208  -2.137   0.247  0.00  0.00    +0.016 C 
ATOM      9  N   UNL     1       1.278  -0.791  -0.001  0.00  0.00    -0.321 N 
ATOM     10  C   UNL     1       2.473  -2.912   0.515  0.00  0.00    +0.061 C 
ATOM     11  H   UNL     1       2.123  -0.389  -0.257  0.00  0.00    +0.152 HD
BRANCH   7  12
ATOM     12  C   UNL     1      -0.011  -4.165   0.510  0.00  0.00    +0.337 C 
ATOM     13  O   UNL     1      -0.411  -4.571   1.585  0.00  0.00    -0.245 OA
BRANCH  12  14
ATOM     14  O   UNL     1       0.399  -5.039  -0.432  0.00  0.00    -0.465 OA
ATOM     15  C   UNL     1       0.336  -6.428  -0.100  0.00  0.00    +0.280 C 
ENDBRANCH  12  14
ENDBRANCH   7  12
BRANCH   5  16
ATOM     16  C   UNL     1      -2.200   0.275   0.241  0.00  0.00    +0.337 C 
ATOM     17  O   UNL     1      -2.058   1.479   0.351  0.00  0.00    -0.245 OA
BRANCH  16  18
ATOM     18  O   UNL     1      -3.438  -0.261   0.240  0.00  0.00    -0.465 OA
ATOM     19  C   UNL     1      -4.537   0.643   0.371  0.00  0.00    +0.280 C 
ENDBRANCH  16  18
ENDBRANCH   5  16
ENDBRANCH   1   6
BRANCH   1  20
ATOM     20  O   UNL     1      -1.965  -3.630  -1.777  0.00  0.00    -0.455 OA
BRANCH  20  21
ATOM     21  C   UNL     1      -2.404  -3.855  -3.119  0.00  0.00    +0.328 C 
BRANCH  21  22
ATOM     22  C   UNL     1      -2.621  -5.330  -3.336  0.00  0.00    +0.255 C 
ATOM     23  O   UNL     1      -2.421  -6.112  -2.431  0.00  0.00    -0.272 OA
ATOM     24  N   UNL     1      -3.039  -5.781  -4.535  0.00  0.00    -0.277 N 
ATOM     25  H   UNL     1      -3.200  -5.155  -5.259  0.00  0.00    +0.155 HD
BRANCH  24  26
ATOM     26  C   UNL     1      -3.239  -7.138  -4.735  0.00  0.00    +0.084 A 
ATOM     27  C   UNL     1      -3.656  -7.776  -5.889  0.00  0.00    +0.068 A 
ATOM     28  C   UNL     1      -3.789  -9.231  -5.839  0.00  0.00    -0.023 A 
ATOM     29  C   UNL     1      -3.482  -9.770  -4.646  0.00  0.00    -0.004 A 
ATOM     30  S   UNL     1      -3.025  -8.385  -3.634  0.00  0.00    -0.077 S 
ATOM     31  C   UNL     1      -3.640 -11.266  -4.649  0.00  0.00    +0.043 C 
ATOM     32  C   UNL     1      -4.506 -11.565  -5.893  0.00  0.00    +0.010 C 
ATOM     33  C   UNL     1      -4.191 -10.353  -6.794  0.00  0.00    +0.037 C 
BRANCH  27  34
ATOM     34  C   UNL     1      -3.952  -7.023  -7.112  0.00  0.00    +0.244 C 
ATOM     35  O   UNL     1      -3.071  -6.813  -7.925  0.00  0.00    -0.270 OA
ATOM     36  N   UNL     1      -5.199  -6.564  -7.335  0.00  0.00    -0.325 N 
ATOM     37  H   UNL     1      -5.901  -6.731  -6.686  0.00  0.00    +0.145 HD
ATOM     38  H   UNL     1      -5.395  -6.066  -8.144  0.00  0.00    +0.145 HD
ENDBRANCH  27  34
ENDBRANCH  24  26
ENDBRANCH  21  22
ENDBRANCH  20  21
ENDBRANCH   1  20
TORSDOF 10
