REMARK  Name = ZINC43221496
REMARK  7 active torsions:
REMARK  status: ('A' for Active; 'I' for Inactive)
REMARK    1  A    between atoms: C_1  and  C_2
REMARK    2  A    between atoms: C_7  and  N_8
REMARK    3  A    between atoms: C_13  and  C_30
REMARK    4  A    between atoms: C_16  and  C_21
REMARK    5  A    between atoms: C_16  and  C_27
REMARK    6  A    between atoms: C_34  and  O_36
REMARK    7  A    between atoms: O_36  and  C_37
REMARK                            x       y       z     vdW  Elec       q    Type
REMARK                         _______ _______ _______ _____ _____    ______ ____
ROOT
ATOM      1  N   UNL     1      -0.447  -0.007   2.514  0.00  0.00    -0.210 N 
ATOM      2  C   UNL     1      -1.484   0.397   3.319  0.00  0.00    +0.229 C 
ATOM      3  O   UNL     1      -2.642   0.043   3.266  0.00  0.00    -0.275 OA
ATOM      4  C   UNL     1      -0.892   1.334   4.240  0.00  0.00    +0.078 C 
ATOM      5  C   UNL     1      -1.138   1.942   5.560  0.00  0.00    -0.026 C 
ATOM      6  N   UNL     1       0.168   2.634   5.836  0.00  0.00    +0.398 N 
ATOM      7  C   UNL     1       1.223   1.961   5.021  0.00  0.00    +0.074 C 
ATOM      8  C   UNL     1       0.543   0.706   4.453  0.00  0.00    +0.090 C 
ATOM      9  C   UNL     1       0.775   0.348   3.011  0.00  0.00    +0.229 C 
ATOM     10  O   UNL     1       1.829   0.372   2.413  0.00  0.00    -0.275 OA
ATOM     11  H   UNL     1       0.102   3.606   5.573  0.00  0.00    -0.083 HD
ATOM     12  H   UNL     1       0.394   2.559   6.816  0.00  0.00    -0.083 HD
ENDROOT
BRANCH   1  19
ATOM     13  C   UNL     1      -0.734   1.482   0.106  0.00  0.00    +0.045 C 
ATOM     14  C   UNL     1      -0.767  -0.024   0.118  0.00  0.00    -0.029 A 
ATOM     15  C   UNL     1      -0.935  -0.722  -1.062  0.00  0.00    +0.005 A 
ATOM     16  C   UNL     1      -0.964  -2.104  -1.051  0.00  0.00    +0.000 A 
ATOM     17  C   UNL     1      -0.826  -2.792   0.141  0.00  0.00    +0.002 A 
ATOM     18  C   UNL     1      -0.659  -2.100   1.324  0.00  0.00    +0.024 A 
ATOM     19  C   UNL     1      -0.623  -0.712   1.315  0.00  0.00    +0.047 A 
ENDBRANCH   1  19
BRANCH   7  20
ATOM     20  C   UNL     1       1.693   2.874   3.918  0.00  0.00    -0.047 A 
ATOM     21  C   UNL     1       2.990   2.783   3.450  0.00  0.00    +0.003 A 
ATOM     22  C   UNL     1       3.421   3.621   2.439  0.00  0.00    +0.000 A 
ATOM     23  C   UNL     1       2.554   4.550   1.895  0.00  0.00    +0.000 A 
ATOM     24  C   UNL     1       1.256   4.641   2.362  0.00  0.00    +0.000 A 
ATOM     25  C   UNL     1       0.824   3.800   3.370  0.00  0.00    +0.003 A 
ENDBRANCH   7  20
BRANCH   5  26
ATOM     26  C   UNL     1      -2.270   2.934   5.492  0.00  0.00    -0.057 A 
ATOM     27  C   UNL     1      -2.013   4.253   5.167  0.00  0.00    +0.002 A 
ATOM     28  C   UNL     1      -3.050   5.166   5.104  0.00  0.00    +0.004 A 
ATOM     29  C   UNL     1      -4.345   4.762   5.367  0.00  0.00    +0.046 A 
ATOM     30  C   UNL     1      -4.604   3.440   5.694  0.00  0.00    +0.130 A 
ATOM     31  C   UNL     1      -3.563   2.524   5.750  0.00  0.00    +0.048 A 
BRANCH  30  32
ATOM     32  O   UNL     1      -5.877   3.040   5.953  0.00  0.00    -0.406 OA
BRANCH  32  33
ATOM     33  C   UNL     1      -6.899   4.035   5.870  0.00  0.00    +0.575 C 
ATOM     34  F   UNL     1      -6.928   4.568   4.577  0.00  0.00    -0.133 F 
ATOM     35  F   UNL     1      -8.139   3.456   6.164  0.00  0.00    -0.133 F 
ATOM     36  F   UNL     1      -6.631   5.056   6.789  0.00  0.00    -0.133 F 
ENDBRANCH  32  33
ENDBRANCH  30  32
ENDBRANCH   5  26
BRANCH   7  37
ATOM     37  C   UNL     1       2.382   1.560   5.897  0.00  0.00    +0.350 C 
ATOM     38  O   UNL     1       2.368   1.825   7.087  0.00  0.00    -0.248 OA
ATOM     39  O   UNL     1       3.335   0.971   5.415  0.00  0.00    -0.248 OA
ENDBRANCH   7  37
TORSDOF 6
