REMARK  Name = ZINC09542245
REMARK  4 active torsions:
REMARK  status: ('A' for Active; 'I' for Inactive)
REMARK    1  A    between atoms: C_3  and  C_8
REMARK    2  A    between atoms: C_11  and  C_25
REMARK    3  A    between atoms: C_14  and  C_16
REMARK    4  A    between atoms: C_30  and  O_31
REMARK                            x       y       z     vdW  Elec       q    Type
REMARK                         _______ _______ _______ _____ _____    ______ ____
ROOT
ATOM      1  C   UNL     1       3.672   2.186  -0.021  0.00  0.00    +0.081 C 
ATOM      2  N   UNL     1       4.699   1.400  -0.714  0.00  0.00    +0.401 N 
ATOM      3  C   UNL     1       4.346   1.306  -2.141  0.00  0.00    -0.028 C 
ATOM      4  C   UNL     1       4.497   2.696  -2.766  0.00  0.00    +0.044 C 
ATOM      5  C   UNL     1       3.812   3.712  -1.893  0.00  0.00    +0.040 C 
ATOM      6  N   UNL     1       3.461   3.465  -0.687  0.00  0.00    -0.299 NA
ATOM      7  H   UNL     1       5.594   1.855  -0.617  0.00  0.00    -0.081 HD
ATOM      8  H   UNL     1       4.743   0.475  -0.315  0.00  0.00    -0.081 HD
ENDROOT
BRANCH   5   9
ATOM      9  C   UNL     1       3.532   5.048  -2.451  0.00  0.00    -0.001 A 
ATOM     10  C   UNL     1       3.896   5.348  -3.767  0.00  0.00    +0.013 A 
ATOM     11  C   UNL     1       3.633   6.597  -4.286  0.00  0.00    +0.050 A 
ATOM     12  C   UNL     1       3.007   7.561  -3.507  0.00  0.00    +0.166 A 
ATOM     13  C   UNL     1       2.641   7.267  -2.193  0.00  0.00    +0.167 A 
ATOM     14  C   UNL     1       2.897   6.015  -1.668  0.00  0.00    +0.059 A 
ATOM     15  O   UNL     1       2.049   8.371  -1.649  0.00  0.00    -0.453 OA
ATOM     16  C   UNL     1       2.424   9.468  -2.503  0.00  0.00    +0.466 C 
ATOM     17  O   UNL     1       2.644   8.846  -3.783  0.00  0.00    -0.453 OA
ENDBRANCH   5   9
BRANCH   1  20
ATOM     18  C   UNL     1      -0.017   1.377   0.010  0.00  0.00    +0.003 A 
ATOM     19  C   UNL     1       1.171   2.086   0.002  0.00  0.00    +0.004 A 
ATOM     20  C   UNL     1       2.378   1.413  -0.013  0.00  0.00    -0.038 A 
ATOM     21  C   UNL     1       2.399   0.030  -0.021  0.00  0.00    +0.042 A 
ATOM     22  C   UNL     1       1.211  -0.679  -0.013  0.00  0.00    +0.124 A 
ATOM     23  C   UNL     1       0.002  -0.004   0.002  0.00  0.00    +0.038 A 
ATOM     24  F   UNL     1       1.230  -2.030  -0.022  0.00  0.00    -0.205 F 
ENDBRANCH   1  20
BRANCH   3  25
ATOM     25  C   UNL     1       5.271   0.335  -2.829  0.00  0.00    -0.018 A 
ATOM     26  C   UNL     1       6.484   0.009  -2.253  0.00  0.00    +0.020 A 
ATOM     27  C   UNL     1       7.333  -0.882  -2.885  0.00  0.00    +0.018 A 
ATOM     28  C   UNL     1       6.970  -1.448  -4.094  0.00  0.00    +0.019 A 
ATOM     29  C   UNL     1       5.758  -1.125  -4.673  0.00  0.00    +0.047 A 
ATOM     30  C   UNL     1       4.902  -0.235  -4.038  0.00  0.00    +0.119 A 
ATOM     31 BR   UNL     1       8.992  -1.326  -2.095  0.00  0.00    -0.050 Br
BRANCH  30  32
ATOM     32  O   UNL     1       3.708   0.081  -4.604  0.00  0.00    -0.507 OA
ATOM     33  H   UNL     1       3.743   0.842  -5.200  0.00  0.00    +0.292 HD
ENDBRANCH  30  32
ENDBRANCH   3  25
TORSDOF 4
