REMARK  Name = ZINC13500113
REMARK  13 active torsions:
REMARK  status: ('A' for Active; 'I' for Inactive)
REMARK    1  A    between atoms: C_1  and  C_2
REMARK    2  A    between atoms: C_2  and  C_3
REMARK    3  A    between atoms: C_3  and  C_4
REMARK    4  A    between atoms: C_4  and  C_6
REMARK    5  A    between atoms: C_4  and  N_71
REMARK    6  A    between atoms: N_10  and  C_11
REMARK    7  A    between atoms: C_11  and  C_12
REMARK    8  A    between atoms: C_11  and  C_13
REMARK    9  A    between atoms: C_11  and  C_14
REMARK   10  A    between atoms: C_15  and  C_16
REMARK   11  A    between atoms: C_15  and  N_71
REMARK   12  A    between atoms: C_22  and  C_28
REMARK   13  A    between atoms: C_29  and  N_71
REMARK                            x       y       z     vdW  Elec       q    Type
REMARK                         _______ _______ _______ _____ _____    ______ ____
ROOT
ATOM      1  N   UNL     1       3.750  -0.330  -0.856  0.00  0.00    +0.391 N 
ATOM      2  H   UNL     1       3.282  -1.243  -0.815  0.00  0.00    -0.080 HD
ENDROOT
BRANCH   1   3
ATOM      3  C   UNL     1       3.423   0.321  -2.142  0.00  0.00    -0.067 C 
ATOM      4  C   UNL     1       2.065   1.016  -2.028  0.00  0.00    -0.015 C 
ATOM      5  C   UNL     1       1.711   1.667  -3.366  0.00  0.00    -0.002 C 
ATOM      6  C   UNL     1       1.644   0.593  -4.454  0.00  0.00    -0.000 C 
ATOM      7  C   UNL     1       3.002  -0.103  -4.568  0.00  0.00    -0.002 C 
ATOM      8  C   UNL     1       3.357  -0.753  -3.229  0.00  0.00    -0.015 C 
ENDBRANCH   1   3
BRANCH   1   9
ATOM      9  C   UNL     1       3.274   0.504   0.268  0.00  0.00    +0.003 C 
BRANCH   9  10
ATOM     10  C   UNL     1       3.118  -0.370   1.485  0.00  0.00    +0.139 A 
ATOM     11  N   UNL     1       3.990  -1.233   1.946  0.00  0.00    -0.115 NA
ATOM     12  N   UNL     1       3.490  -1.781   2.999  0.00  0.00    -0.023 NA
ATOM     13  N   UNL     1       2.321  -1.291   3.221  0.00  0.00    -0.043 NA
ATOM     14  N   UNL     1       2.055  -0.417   2.310  0.00  0.00    -0.226 N 
BRANCH  14  15
ATOM     15  C   UNL     1       0.828   0.373   2.194  0.00  0.00    +0.059 C 
ATOM     16  C   UNL     1      -0.060   0.119   3.413  0.00  0.00    +0.036 C 
ATOM     17  C   UNL     1       1.183   1.860   2.123  0.00  0.00    +0.036 C 
ATOM     18  C   UNL     1       0.078  -0.032   0.923  0.00  0.00    +0.036 C 
ENDBRANCH  14  15
ENDBRANCH   9  10
BRANCH   9  19
ATOM     19  C   UNL     1       4.275   1.621   0.567  0.00  0.00    -0.008 C 
BRANCH  19  21
ATOM     20  C   UNL     1       5.187   3.803  -0.241  0.00  0.00    +0.004 C 
ATOM     21  C   UNL     1       4.308   2.605  -0.605  0.00  0.00    -0.005 C 
ENDBRANCH  19  21
ENDBRANCH   9  19
ENDBRANCH   1   9
BRANCH   1  22
ATOM     22  C   UNL     1       5.210  -0.533  -0.749  0.00  0.00    -0.036 C 
BRANCH  22  23
ATOM     23  C   UNL     1       5.603  -1.691  -1.631  0.00  0.00    +0.001 A 
ATOM     24  C   UNL     1       6.302  -1.465  -2.771  0.00  0.00    +0.017 A 
ATOM     25  C   UNL     1       6.668  -2.611  -3.606  0.00  0.00    -0.001 A 
ATOM     26  C   UNL     1       7.389  -2.441  -4.792  0.00  0.00    +0.010 A 
ATOM     27  C   UNL     1       7.714  -3.530  -5.549  0.00  0.00    +0.001 A 
ATOM     28  C   UNL     1       7.336  -4.806  -5.151  0.00  0.00    +0.005 A 
ATOM     29  C   UNL     1       6.625  -4.997  -3.986  0.00  0.00    -0.026 A 
ATOM     30  C   UNL     1       6.282  -3.902  -3.199  0.00  0.00    +0.052 A 
ATOM     31  N   UNL     1       5.572  -4.064  -2.029  0.00  0.00    -0.322 N 
ATOM     32  H   UNL     1       5.307  -4.955  -1.750  0.00  0.00    +0.169 HD
ATOM     33  C   UNL     1       5.245  -3.006  -1.266  0.00  0.00    +0.251 A 
ATOM     34  O   UNL     1       4.621  -3.187  -0.235  0.00  0.00    -0.268 OA
ATOM     35  C   UNL     1       6.220  -6.386  -3.566  0.00  0.00    +0.046 C 
ENDBRANCH  22  23
ENDBRANCH   1  22
TORSDOF 8
