REMARK  Name = ZINC39851716
REMARK  13 active torsions:
REMARK  status: ('A' for Active; 'I' for Inactive)
REMARK    1  A    between atoms: C_1  and  C_2
REMARK    2  A    between atoms: C_2  and  C_3
REMARK    3  A    between atoms: C_3  and  N_4
REMARK    4  A    between atoms: C_5  and  N_26
REMARK    5  A    between atoms: C_6  and  C_14
REMARK    6  A    between atoms: C_7  and  C_13
REMARK    7  A    between atoms: C_8  and  C_11
REMARK    8  A    between atoms: N_18  and  C_22
REMARK    9  A    between atoms: C_22  and  C_23
REMARK   10  A    between atoms: C_23  and  O_24
REMARK   11  A    between atoms: O_24  and  C_25
REMARK   12  A    between atoms: N_26  and  C_27
REMARK   13  A    between atoms: C_27  and  C_28
REMARK                            x       y       z     vdW  Elec       q    Type
REMARK                         _______ _______ _______ _____ _____    ______ ____
ROOT
ATOM      1  N   UNL     1      -1.449  -2.307   0.247  0.00  0.00    -0.295 N 
ATOM      2  C   UNL     1      -1.499  -2.927  -0.960  0.00  0.00    +0.109 A 
ATOM      3  C   UNL     1      -1.994  -4.237  -1.068  0.00  0.00    +0.019 A 
ATOM      4  C   UNL     1      -2.439  -4.905   0.085  0.00  0.00    -0.017 A 
ATOM      5  C   UNL     1      -2.377  -4.248   1.310  0.00  0.00    +0.120 A 
ATOM      6  C   UNL     1      -1.864  -2.927   1.367  0.00  0.00    +0.270 A 
ATOM      7  O   UNL     1      -1.802  -2.348   2.437  0.00  0.00    -0.266 OA
ATOM      8  C   UNL     1      -2.976  -6.311  -0.004  0.00  0.00    +0.046 C 
ENDROOT
BRANCH   3   9
ATOM      9  C   UNL     1      -2.047  -4.900  -2.373  0.00  0.00    +0.032 C 
ATOM     10  C   UNL     1      -1.273  -5.993  -2.612  0.00  0.00    +0.077 C 
ATOM     11  C   UNL     1      -0.278  -6.600  -1.786  0.00  0.00    +0.258 C 
ATOM     12  O   UNL     1      -0.011  -6.145  -0.688  0.00  0.00    -0.269 OA
ATOM     13  N   UNL     1       0.345  -7.670  -2.249  0.00  0.00    -0.253 N 
ATOM     14  C   UNL     1       0.048  -8.174  -3.468  0.00  0.00    +0.121 C 
ATOM     15  S   UNL     1       0.722  -9.536  -4.258  0.00  0.00    -0.027 S 
ATOM     16  S   UNL     1      -1.229  -7.065  -4.042  0.00  0.00    -0.061 S 
BRANCH  13  17
ATOM     17  C   UNL     1       1.371  -8.319  -1.430  0.00  0.00    +0.143 C 
BRANCH  17  18
ATOM     18  C   UNL     1       0.721  -9.389  -0.550  0.00  0.00    +0.179 C 
BRANCH  18  19
ATOM     19  O   UNL     1       0.186 -10.425  -1.376  0.00  0.00    -0.381 OA
ATOM     20  C   UNL     1      -0.448 -11.479  -0.649  0.00  0.00    +0.194 C 
ENDBRANCH  18  19
ENDBRANCH  17  18
ENDBRANCH  13  17
ENDBRANCH   3   9
BRANCH   5  21
ATOM     21  C   UNL     1      -2.823  -4.901   2.504  0.00  0.00    +0.105 C 
ATOM     22  N   UNL     1      -3.176  -5.419   3.451  0.00  0.00    -0.191 NA
ENDBRANCH   5  21
BRANCH   2  23
ATOM     23  N   UNL     1      -1.066  -2.273  -2.075  0.00  0.00    -0.326 N 
ATOM     24  H   UNL     1      -0.125  -2.287  -2.311  0.00  0.00    +0.148 HD
BRANCH  23  25
ATOM     25  C   UNL     1      -2.021  -1.549  -2.918  0.00  0.00    +0.139 C 
BRANCH  25  26
ATOM     26  C   UNL     1      -1.278  -0.809  -3.999  0.00  0.00    -0.012 A 
ATOM     27  C   UNL     1      -1.021   0.542  -3.862  0.00  0.00    +0.006 A 
ATOM     28  C   UNL     1      -0.338   1.221  -4.854  0.00  0.00    +0.000 A 
ATOM     29  C   UNL     1       0.088   0.549  -5.985  0.00  0.00    +0.001 A 
ATOM     30  C   UNL     1      -0.169  -0.802  -6.123  0.00  0.00    +0.020 A 
ATOM     31  C   UNL     1      -0.847  -1.483  -5.128  0.00  0.00    +0.046 A 
ATOM     32 CL   UNL     1      -1.163  -3.182  -5.298  0.00  0.00    -0.083 Cl
ENDBRANCH  25  26
ENDBRANCH  23  25
ENDBRANCH   2  23
BRANCH   1  33
ATOM     33  C   UNL     1      -0.928  -0.940   0.333  0.00  0.00    +0.126 C 
BRANCH  33  35
ATOM     34  C   UNL     1       1.149   0.443   0.450  0.00  0.00    +0.005 C 
ATOM     35  C   UNL     1       0.594  -0.982   0.481  0.00  0.00    +0.018 C 
ENDBRANCH  33  35
ENDBRANCH   1  33
TORSDOF 10
