REMARK  Name = ZINC49587544
REMARK  12 active torsions:
REMARK  status: ('A' for Active; 'I' for Inactive)
REMARK    1  A    between atoms: C_1  and  C_2
REMARK    2  A    between atoms: C_2  and  N_3
REMARK    3  A    between atoms: N_3  and  C_4
REMARK    4  A    between atoms: N_3  and  S_6
REMARK    5  A    between atoms: C_4  and  C_5
REMARK    6  A    between atoms: S_6  and  N_9
REMARK    7  A    between atoms: N_9  and  C_10
REMARK    8  A    between atoms: C_10  and  C_12
REMARK    9  A    between atoms: C_10  and  C_13
REMARK   10  A    between atoms: C_16  and  C_19
REMARK   11  A    between atoms: C_20  and  C_21
REMARK   12  A    between atoms: C_21  and  N_22
REMARK                            x       y       z     vdW  Elec       q    Type
REMARK                         _______ _______ _______ _____ _____    ______ ____
ROOT
ATOM      1  C   UNL     1      -4.975   1.580   2.254  0.00  0.00    -0.029 A 
ATOM      2  C   UNL     1      -4.538   2.258   3.377  0.00  0.00    +0.006 A 
ATOM      3  C   UNL     1      -5.450   2.779   4.272  0.00  0.00    +0.017 A 
ATOM      4  C   UNL     1      -6.817   2.620   4.041  0.00  0.00    +0.025 A 
ATOM      5  C   UNL     1      -7.252   1.935   2.906  0.00  0.00    +0.017 A 
ATOM      6  C   UNL     1      -6.329   1.423   2.017  0.00  0.00    +0.006 A 
ENDROOT
BRANCH   1   7
ATOM      7  C   UNL     1      -3.973   1.014   1.282  0.00  0.00    +0.104 C 
ATOM      8  C   UNL     1      -3.461   2.131   0.369  0.00  0.00    +0.031 C 
BRANCH   7   9
ATOM      9  N   UNL     1      -2.849   0.433   2.021  0.00  0.00    -0.173 NA
ATOM     10  H   UNL     1      -2.549   0.843   2.847  0.00  0.00    +0.150 HD
BRANCH   9  11
ATOM     11  S   UNL     1      -2.092  -0.923   1.446  0.00  0.00    +0.098 S 
ATOM     12  O   UNL     1      -3.116  -1.857   1.133  0.00  0.00    -0.141 OA
ATOM     13  O   UNL     1      -1.043  -1.219   2.357  0.00  0.00    -0.141 OA
BRANCH  11  14
ATOM     14  N   UNL     1      -1.372  -0.511   0.012  0.00  0.00    -0.167 NA
BRANCH  14  16
ATOM     15  C   UNL     1      -0.019   1.526   0.010  0.00  0.00    +0.022 C 
ATOM     16  C   UNL     1       0.002  -0.004   0.002  0.00  0.00    +0.107 C 
ENDBRANCH  14  16
BRANCH  14  17
ATOM     17  C   UNL     1      -2.110  -0.654  -1.245  0.00  0.00    +0.107 C 
ATOM     18  C   UNL     1      -1.773  -2.003  -1.884  0.00  0.00    +0.022 C 
ENDBRANCH  14  17
ENDBRANCH  11  14
ENDBRANCH   9  11
ENDBRANCH   7   9
ENDBRANCH   1   7
BRANCH   4  19
ATOM     19  C   UNL     1      -7.770   3.158   4.965  0.00  0.00    -0.068 C 
ATOM     20  C   UNL     1      -8.551   3.598   5.723  0.00  0.00    -0.117 C 
BRANCH  20  21
ATOM     21  C   UNL     1      -9.530   4.151   6.673  0.00  0.00    +0.005 C 
BRANCH  21  22
ATOM     22  N   UNL     1     -10.890   3.850   6.205  0.00  0.00    +0.385 N 
ATOM     23  H   UNL     1     -11.561   4.229   6.857  0.00  0.00    -0.089 HD
ATOM     24  H   UNL     1     -11.032   4.265   5.296  0.00  0.00    -0.089 HD
ATOM     25  H   UNL     1     -11.010   2.850   6.142  0.00  0.00    -0.089 HD
ENDBRANCH  21  22
ENDBRANCH  20  21
ENDBRANCH   4  19
TORSDOF 9
