REMARK  Name = ZINC22714594
REMARK  13 active torsions:
REMARK  status: ('A' for Active; 'I' for Inactive)
REMARK    1  A    between atoms: C_1  and  C_2
REMARK    2  A    between atoms: C_5  and  O_35
REMARK    3  A    between atoms: C_6  and  C_8
REMARK    4  A    between atoms: C_8  and  O_10
REMARK    5  A    between atoms: O_10  and  C_11
REMARK    6  A    between atoms: C_11  and  C_12
REMARK    7  A    between atoms: C_12  and  C_14
REMARK    8  A    between atoms: C_16  and  C_34
REMARK    9  A    between atoms: N_17  and  C_20
REMARK   10  A    between atoms: C_18  and  C_19
REMARK   11  A    between atoms: C_21  and  C_33
REMARK   12  A    between atoms: N_22  and  C_32
REMARK   13  A    between atoms: N_23  and  C_26
REMARK                            x       y       z     vdW  Elec       q    Type
REMARK                         _______ _______ _______ _____ _____    ______ ____
ROOT
ATOM      1  C   UNL     1       0.326  -2.263   7.365  0.00  0.00    +0.042 A 
ATOM      2  C   UNL     1       0.011  -3.680   7.594  0.00  0.00    +0.034 A 
ATOM      3  C   UNL     1      -0.093  -3.835   8.925  0.00  0.00    +0.022 A 
ATOM      4  N   UNL     1       0.131  -2.634   9.536  0.00  0.00    -0.311 N 
ATOM      5  C   UNL     1       0.389  -1.682   8.620  0.00  0.00    +0.032 A 
ATOM      6  C   UNL     1       0.691  -0.234   8.910  0.00  0.00    +0.064 C 
ATOM      7  C   UNL     1      -0.406  -5.128   9.632  0.00  0.00    +0.064 C 
ENDROOT
BRANCH   4   8
ATOM      8  C   UNL     1       0.102  -2.422  10.927  0.00  0.00    +0.134 A 
ATOM      9  C   UNL     1       1.151  -2.523  11.776  0.00  0.00    +0.062 A 
ATOM     10  N   UNL     1       0.716  -2.242  13.042  0.00  0.00    -0.282 N 
ATOM     11  N   UNL     1      -0.653  -1.953  13.005  0.00  0.00    -0.215 N 
ATOM     12  C   UNL     1      -1.066  -2.046  11.724  0.00  0.00    +0.296 A 
ATOM     13  O   UNL     1      -2.196  -1.857  11.311  0.00  0.00    -0.264 OA
ATOM     14  C   UNL     1       1.551  -2.245  14.246  0.00  0.00    +0.171 C 
ATOM     15  C   UNL     1       2.562  -2.884  11.392  0.00  0.00    +0.067 C 
BRANCH  11  16
ATOM     16  C   UNL     1      -1.451  -1.619  14.104  0.00  0.00    +0.067 A 
ATOM     17  C   UNL     1      -1.023  -0.656  15.008  0.00  0.00    +0.028 A 
ATOM     18  C   UNL     1      -1.815  -0.328  16.091  0.00  0.00    +0.002 A 
ATOM     19  C   UNL     1      -3.032  -0.957  16.276  0.00  0.00    +0.000 A 
ATOM     20  C   UNL     1      -3.461  -1.917  15.377  0.00  0.00    +0.002 A 
ATOM     21  C   UNL     1      -2.677  -2.245  14.289  0.00  0.00    +0.028 A 
ENDBRANCH  11  16
ENDBRANCH   4   8
BRANCH   1  22
ATOM     22  C   UNL     1       0.535  -1.603   6.076  0.00  0.00    +0.202 C 
ATOM     23  O   UNL     1       0.796  -0.418   6.036  0.00  0.00    -0.288 OA
BRANCH  22  24
ATOM     24  C   UNL     1       0.427  -2.394   4.798  0.00  0.00    +0.311 C 
BRANCH  24  25
ATOM     25  O   UNL     1       0.671  -1.534   3.683  0.00  0.00    -0.453 OA
BRANCH  25  26
ATOM     26  C   UNL     1       0.612  -2.090   2.457  0.00  0.00    +0.343 C 
ATOM     27  O   UNL     1       0.359  -3.272   2.338  0.00  0.00    -0.245 OA
BRANCH  26  33
ATOM     28  C   UNL     1       1.680   2.332   0.415  0.00  0.00    +0.044 C 
ATOM     29  C   UNL     1       1.367   0.864   0.271  0.00  0.00    -0.049 A 
ATOM     30  C   UNL     1       1.306   0.293  -0.990  0.00  0.00    +0.007 A 
ATOM     31  C   UNL     1       1.020  -1.050  -1.135  0.00  0.00    +0.046 A 
ATOM     32  C   UNL     1       0.792  -1.837  -0.017  0.00  0.00    +0.131 A 
ATOM     33  C   UNL     1       0.853  -1.263   1.261  0.00  0.00    +0.101 A 
ATOM     34  C   UNL     1       1.148   0.096   1.393  0.00  0.00    +0.022 A 
BRANCH  32  35
ATOM     35  O   UNL     1       0.510  -3.156  -0.158  0.00  0.00    -0.506 OA
ATOM     36  H   UNL     1       1.291  -3.728  -0.156  0.00  0.00    +0.292 HD
ENDBRANCH  32  35
ENDBRANCH  26  33
ENDBRANCH  25  26
ENDBRANCH  24  25
ENDBRANCH  22  24
ENDBRANCH   1  22
TORSDOF 8
