REMARK  Name = ZINC06357032
REMARK  10 active torsions:
REMARK  status: ('A' for Active; 'I' for Inactive)
REMARK    1  A    between atoms: C_1  and  C_2
REMARK    2  A    between atoms: C_2  and  C_4
REMARK    3  A    between atoms: C_4  and  O_32
REMARK    4  A    between atoms: C_7  and  C_31
REMARK    5  A    between atoms: C_19  and  C_30
REMARK    6  A    between atoms: C_24  and  O_26
REMARK    7  A    between atoms: O_26  and  C_27
REMARK    8  A    between atoms: C_27  and  C_29
REMARK    9  A    between atoms: O_32  and  C_33
REMARK   10  A    between atoms: C_33  and  C_35
REMARK                            x       y       z     vdW  Elec       q    Type
REMARK                         _______ _______ _______ _____ _____    ______ ____
ROOT
ATOM      1  C   UNL     1       2.172  -0.346  -1.289  0.00  0.00    +0.171 C 
ATOM      2  C   UNL     1       0.957  -1.249  -1.122  0.00  0.00    +0.056 C 
ATOM      3  C   UNL     1       0.240  -1.037   0.212  0.00  0.00    +0.011 C 
ATOM      4  C   UNL     1      -0.122   0.433   0.374  0.00  0.00    -0.026 C 
ATOM      5  C   UNL     1       1.167   1.257   0.347  0.00  0.00    -0.001 C 
ATOM      6  C   UNL     1       1.847   1.123  -1.006  0.00  0.00    +0.060 C 
ATOM      7  C   UNL     1       0.882   2.703   0.732  0.00  0.00    +0.004 C 
ATOM      8  C   UNL     1       0.521   2.746   2.227  0.00  0.00    +0.004 C 
ATOM      9  C   UNL     1       0.107   1.351   2.678  0.00  0.00    -0.004 C 
ATOM     10  C   UNL     1      -0.863   0.727   1.675  0.00  0.00    -0.001 C 
ATOM     11  C   UNL     1      -1.504  -0.519   2.268  0.00  0.00    +0.005 C 
ATOM     12  C   UNL     1      -2.407  -0.168   3.459  0.00  0.00    +0.011 C 
ATOM     13  C   UNL     1      -1.975   1.122   4.107  0.00  0.00    +0.008 C 
ATOM     14  C   UNL     1      -0.443   1.287   4.069  0.00  0.00    +0.002 C 
ATOM     15  C   UNL     1      -0.231   2.519   4.962  0.00  0.00    +0.008 C 
ATOM     16  C   UNL     1      -1.264   2.313   6.104  0.00  0.00    +0.045 C 
ATOM     17  C   UNL     1      -2.225   1.193   5.630  0.00  0.00    +0.183 C 
ATOM     18  C   UNL     1      -2.705   2.316   3.486  0.00  0.00    +0.015 C 
ATOM     19  C   UNL     1      -1.039   0.852  -0.777  0.00  0.00    +0.012 C 
ENDROOT
BRANCH   1  21
ATOM     20  C   UNL     1       4.202  -1.923  -0.832  0.00  0.00    +0.090 C 
ATOM     21  C   UNL     1       3.285  -0.813  -0.385  0.00  0.00    +0.174 C 
ATOM     22  O   UNL     1       3.442  -0.298   0.696  0.00  0.00    -0.293 OA
ENDBRANCH   1  21
BRANCH  17  23
ATOM     23  O   UNL     1      -1.878  -0.067   6.252  0.00  0.00    -0.461 OA
BRANCH  23  24
ATOM     24  C   UNL     1      -2.561  -0.410   7.355  0.00  0.00    +0.304 C 
ATOM     25  O   UNL     1      -3.421   0.321   7.786  0.00  0.00    -0.251 OA
ATOM     26  C   UNL     1      -2.255  -1.708   8.057  0.00  0.00    +0.136 C 
ENDBRANCH  23  24
ENDBRANCH  17  23
BRANCH   1  27
ATOM     27  O   UNL     1       2.637  -0.455  -2.670  0.00  0.00    -0.451 OA
BRANCH  27  28
ATOM     28  C   UNL     1       3.737   0.240  -2.999  0.00  0.00    +0.305 C 
ATOM     29  O   UNL     1       4.324   0.877  -2.157  0.00  0.00    -0.251 OA
ATOM     30  C   UNL     1       4.240   0.226  -4.420  0.00  0.00    +0.136 C 
ENDBRANCH  27  28
ENDBRANCH   1  27
TORSDOF 5
