REMARK  Name = ZINC03366068
REMARK  11 active torsions:
REMARK  status: ('A' for Active; 'I' for Inactive)
REMARK    1  A    between atoms: C_1  and  C_2
REMARK    2  A    between atoms: C_4  and  C_15
REMARK    3  A    between atoms: C_5  and  C_14
REMARK    4  A    between atoms: N_6  and  C_7
REMARK    5  A    between atoms: C_15  and  O_17
REMARK    6  A    between atoms: O_17  and  C_18
REMARK    7  A    between atoms: C_18  and  C_20
REMARK    8  A    between atoms: C_18  and  C_21
REMARK    9  A    between atoms: N_23  and  C_24
REMARK   10  A    between atoms: C_27  and  S_30
REMARK   11  A    between atoms: S_30  and  N_33
REMARK                            x       y       z     vdW  Elec       q    Type
REMARK                         _______ _______ _______ _____ _____    ______ ____
ROOT
ATOM      1  C   UNL     1      -2.569   4.140   0.252  0.00  0.00    +0.259 C 
ATOM      2  C   UNL     1      -3.427   3.858  -0.983  0.00  0.00    +0.062 C 
ENDROOT
BRANCH   1   3
ATOM      3  C   UNL     1      -1.255   3.412   0.128  0.00  0.00    +0.258 C 
ATOM      4  O   UNL     1      -0.215   4.035   0.127  0.00  0.00    -0.271 OA
ATOM      5  N   UNL     1      -1.237   2.069   0.019  0.00  0.00    -0.282 N 
ATOM      6  H   UNL     1      -2.070   1.577  -0.057  0.00  0.00    +0.155 HD
BRANCH   5   7
ATOM      7  C   UNL     1      -0.017   1.384   0.015  0.00  0.00    +0.034 A 
ATOM      8  C   UNL     1       0.126   0.222  -0.732  0.00  0.00    +0.025 A 
ATOM      9  C   UNL     1       1.331  -0.454  -0.730  0.00  0.00    +0.030 A 
ATOM     10  C   UNL     1       2.392   0.023   0.017  0.00  0.00    +0.105 A 
ATOM     11  C   UNL     1       2.252   1.180   0.762  0.00  0.00    +0.030 A 
ATOM     12  C   UNL     1       1.051   1.861   0.763  0.00  0.00    +0.025 A 
BRANCH  10  13
ATOM     13  S   UNL     1       3.927  -0.843   0.017  0.00  0.00    +0.056 S 
ATOM     14  O   UNL     1       3.970  -1.593  -1.189  0.00  0.00    -0.153 OA
ATOM     15  O   UNL     1       4.928   0.105   0.361  0.00  0.00    -0.153 OA
BRANCH  13  16
ATOM     16  N   UNL     1       3.869  -1.941   1.256  0.00  0.00    -0.204 NA
ATOM     17  H   UNL     1       3.077  -2.002   1.812  0.00  0.00    +0.144 HD
ATOM     18  H   UNL     1       4.627  -2.522   1.424  0.00  0.00    +0.144 HD
ENDBRANCH  13  16
ENDBRANCH  10  13
ENDBRANCH   5   7
ENDBRANCH   1   3
BRANCH   1  19
ATOM     19  O   UNL     1      -2.324   5.568   0.355  0.00  0.00    -0.449 OA
BRANCH  19  20
ATOM     20  C   UNL     1      -3.214   6.293   1.060  0.00  0.00    +0.342 C 
ATOM     21  O   UNL     1      -4.170   5.747   1.576  0.00  0.00    -0.245 OA
BRANCH  20  25
ATOM     22  C   UNL     1      -1.316  11.014   0.701  0.00  0.00    +0.064 C 
ATOM     23  C   UNL     1      -2.176   9.823   1.037  0.00  0.00    +0.022 A 
ATOM     24  C   UNL     1      -1.940   8.557   0.653  0.00  0.00    +0.038 A 
ATOM     25  C   UNL     1      -3.030   7.745   1.207  0.00  0.00    +0.080 A 
ATOM     26  C   UNL     1      -3.848   8.621   1.887  0.00  0.00    +0.035 A 
ATOM     27  N   UNL     1      -3.321   9.857   1.781  0.00  0.00    -0.317 N 
ATOM     28  C   UNL     1      -5.111   8.258   2.625  0.00  0.00    +0.065 C 
BRANCH  27  29
ATOM     29  C   UNL     1      -3.874  11.015   2.349  0.00  0.00    +0.047 A 
ATOM     30  C   UNL     1      -3.949  11.145   3.729  0.00  0.00    +0.029 A 
ATOM     31  C   UNL     1      -4.488  12.287   4.286  0.00  0.00    +0.040 A 
ATOM     32  C   UNL     1      -4.964  13.299   3.469  0.00  0.00    +0.124 A 
ATOM     33  C   UNL     1      -4.895  13.169   2.092  0.00  0.00    +0.040 A 
ATOM     34  C   UNL     1      -4.352  12.030   1.531  0.00  0.00    +0.029 A 
ATOM     35  F   UNL     1      -5.496  14.414   4.015  0.00  0.00    -0.205 F 
ENDBRANCH  27  29
ENDBRANCH  20  25
ENDBRANCH  19  20
ENDBRANCH   1  19
TORSDOF 8
