REMARK  Name = ZINC40135412
REMARK  6 active torsions:
REMARK  status: ('A' for Active; 'I' for Inactive)
REMARK    1  A    between atoms: C_3  and  O_31
REMARK    2  A    between atoms: C_4  and  N_8
REMARK    3  A    between atoms: C_9  and  C_11
REMARK    4  A    between atoms: N_14  and  C_17
REMARK    5  A    between atoms: C_17  and  C_18
REMARK    6  A    between atoms: N_20  and  C_21
REMARK                            x       y       z     vdW  Elec       q    Type
REMARK                         _______ _______ _______ _____ _____    ______ ____
ROOT
ATOM      1  C   UNL     1       4.960  -2.732   0.153  0.00  0.00    +0.072 C 
ATOM      2  C   UNL     1       5.710  -2.270   1.405  0.00  0.00    -0.006 C 
ATOM      3  C   UNL     1       7.008  -3.070   1.539  0.00  0.00    -0.077 C 
ATOM      4  N   UNL     1       6.696  -4.500   1.654  0.00  0.00    +0.385 N 
ATOM      5  C   UNL     1       6.040  -4.966   0.426  0.00  0.00    -0.077 C 
ATOM      6  C   UNL     1       4.705  -4.239   0.249  0.00  0.00    -0.006 C 
ATOM      7  H   UNL     1       6.080  -4.647   2.439  0.00  0.00    -0.081 HD
ENDROOT
BRANCH   1   9
ATOM      8  N   UNL     1       3.623  -0.659  -0.037  0.00  0.00    -0.282 N 
ATOM      9  C   UNL     1       3.644  -2.004   0.057  0.00  0.00    +0.220 C 
ATOM     10  O   UNL     1       2.603  -2.627   0.064  0.00  0.00    -0.275 OA
ATOM     11  H   UNL     1       4.455  -0.165  -0.109  0.00  0.00    +0.155 HD
BRANCH   8  15
ATOM     12  C   UNL     1      -0.018   1.377  -0.024  0.00  0.00    +0.023 A 
ATOM     13  C   UNL     1       1.091   1.949   0.572  0.00  0.00    +0.049 A 
ATOM     14  C   UNL     1       2.302   1.277   0.570  0.00  0.00    +0.138 A 
ATOM     15  C   UNL     1       2.400   0.024  -0.033  0.00  0.00    +0.077 A 
ATOM     16  C   UNL     1       1.284  -0.544  -0.628  0.00  0.00    +0.047 A 
ATOM     17  C   UNL     1       0.077   0.134  -0.623  0.00  0.00    +0.043 A 
ATOM     18 CL   UNL     1      -1.319  -0.578  -1.368  0.00  0.00    -0.083 Cl
BRANCH  14  19
ATOM     19  O   UNL     1       3.394   1.838   1.155  0.00  0.00    -0.505 OA
ATOM     20  H   UNL     1       3.498   1.616   2.090  0.00  0.00    +0.292 HD
ENDBRANCH  14  19
ENDBRANCH   8  15
ENDBRANCH   1   9
BRANCH   4  21
ATOM     21  C   UNL     1       7.938  -5.256   1.860  0.00  0.00    +0.019 C 
BRANCH  21  22
ATOM     22  C   UNL     1       7.610  -6.707   2.100  0.00  0.00    +0.197 C 
ATOM     23  O   UNL     1       6.454  -7.075   2.099  0.00  0.00    -0.278 OA
ATOM     24  N   UNL     1       8.600  -7.595   2.316  0.00  0.00    -0.311 N 
ATOM     25  H   UNL     1       9.524  -7.301   2.317  0.00  0.00    +0.149 HD
BRANCH  24  26
ATOM     26  C   UNL     1       8.280  -9.006   2.549  0.00  0.00    +0.035 C 
ATOM     27  C   UNL     1       7.395  -9.130   3.791  0.00  0.00    +0.029 C 
ATOM     28  C   UNL     1       7.062 -10.603   4.034  0.00  0.00    -0.008 C 
ATOM     29  C   UNL     1       8.356 -11.390   4.249  0.00  0.00    +0.007 C 
ATOM     30  C   UNL     1       9.241 -11.267   3.007  0.00  0.00    -0.008 C 
ATOM     31  C   UNL     1       9.574  -9.793   2.764  0.00  0.00    +0.029 C 
ATOM     32  C   UNL     1       8.498 -11.828   1.794  0.00  0.00    +0.007 C 
ATOM     33  C   UNL     1       7.204 -11.041   1.578  0.00  0.00    -0.008 C 
ATOM     34  C   UNL     1       6.319 -11.165   2.820  0.00  0.00    +0.007 C 
ATOM     35  C   UNL     1       7.537  -9.568   1.335  0.00  0.00    +0.029 C 
ENDBRANCH  24  26
ENDBRANCH  21  22
ENDBRANCH   4  21
TORSDOF 6
