REMARK  Name = ZINC34923789
REMARK  8 active torsions:
REMARK  status: ('A' for Active; 'I' for Inactive)
REMARK    1  A    between atoms: C_1  and  C_2
REMARK    2  A    between atoms: C_3  and  C_33
REMARK    3  A    between atoms: C_4  and  C_28
REMARK    4  A    between atoms: C_7  and  C_12
REMARK    5  A    between atoms: C_13  and  N_15
REMARK    6  A    between atoms: N_18  and  C_21
REMARK    7  A    between atoms: C_33  and  O_35
REMARK    8  A    between atoms: O_35  and  C_36
REMARK                            x       y       z     vdW  Elec       q    Type
REMARK                         _______ _______ _______ _____ _____    ______ ____
ROOT
ATOM      1  C   UNL     1      -0.040   1.599   0.911  0.00  0.00    +0.066 C 
ATOM      2  C   UNL     1      -0.077   0.110   0.681  0.00  0.00    +0.053 C 
ATOM      3  C   UNL     1      -1.292  -0.546   0.627  0.00  0.00    +0.082 C 
ATOM      4  C   UNL     1      -1.276  -2.040   0.394  0.00  0.00    +0.150 C 
ATOM      5  N   UNL     1       0.054  -2.688   0.241  0.00  0.00    -0.267 N 
ATOM      6  C   UNL     1       0.306  -4.027   0.023  0.00  0.00    +0.048 C 
ATOM      7  C   UNL     1       1.597  -4.413  -0.088  0.00  0.00    +0.072 C 
ATOM      8  S   UNL     1       2.461  -2.869   0.119  0.00  0.00    -0.060 S 
ATOM      9  C   UNL     1       1.137  -1.859   0.328  0.00  0.00    +0.166 C 
ATOM     10  N   UNL     1       1.054  -0.559   0.528  0.00  0.00    -0.230 NA
ENDROOT
BRANCH   4  11
ATOM     11  C   UNL     1      -2.075  -2.324  -0.852  0.00  0.00    -0.015 A 
ATOM     12  C   UNL     1      -3.331  -2.894  -0.766  0.00  0.00    +0.013 A 
ATOM     13  C   UNL     1      -4.023  -3.136  -1.906  0.00  0.00    +0.045 A 
ATOM     14  S   UNL     1      -2.891  -2.551  -3.156  0.00  0.00    -0.105 S 
ATOM     15  C   UNL     1      -1.574  -2.019  -2.075  0.00  0.00    +0.051 A 
ENDBRANCH   4  11
BRANCH   6  16
ATOM     16  C   UNL     1      -0.791  -5.000  -0.086  0.00  0.00    +0.091 C 
ATOM     17  C   UNL     1      -0.518  -6.318  -0.142  0.00  0.00    +0.241 C 
ATOM     18  O   UNL     1       0.753  -6.756   0.028  0.00  0.00    -0.271 OA
BRANCH  17  19
ATOM     19  N   UNL     1      -1.538  -7.226  -0.373  0.00  0.00    -0.295 N 
ATOM     20  C   UNL     1      -2.713  -6.845  -1.169  0.00  0.00    +0.127 C 
ATOM     21  C   UNL     1      -2.869  -7.843  -2.323  0.00  0.00    +0.124 C 
ATOM     22  N   UNL     1      -2.795  -9.206  -1.778  0.00  0.00    -0.325 N 
ATOM     23  C   UNL     1      -1.619  -9.587  -0.983  0.00  0.00    +0.124 C 
ATOM     24  C   UNL     1      -1.461  -8.591   0.166  0.00  0.00    +0.127 C 
BRANCH  22  25
ATOM     25  C   UNL     1      -3.825 -10.123  -2.012  0.00  0.00    +0.065 A 
ATOM     26  C   UNL     1      -3.778 -10.952  -3.125  0.00  0.00    +0.026 A 
ATOM     27  C   UNL     1      -4.796 -11.857  -3.353  0.00  0.00    +0.002 A 
ATOM     28  C   UNL     1      -5.862 -11.939  -2.476  0.00  0.00    +0.003 A 
ATOM     29  C   UNL     1      -5.913 -11.115  -1.366  0.00  0.00    +0.040 A 
ATOM     30  C   UNL     1      -4.894 -10.210  -1.128  0.00  0.00    +0.144 A 
ATOM     31  F   UNL     1      -4.941  -9.409  -0.041  0.00  0.00    -0.204 F 
ENDBRANCH  22  25
ENDBRANCH  17  19
ENDBRANCH   6  16
BRANCH   3  32
ATOM     32  C   UNL     1      -2.497   0.149   0.782  0.00  0.00    +0.339 C 
ATOM     33  O   UNL     1      -2.486   1.354   0.970  0.00  0.00    -0.245 OA
BRANCH  32  34
ATOM     34  O   UNL     1      -3.672  -0.515   0.725  0.00  0.00    -0.465 OA
ATOM     35  C   UNL     1      -4.863   0.258   0.892  0.00  0.00    +0.280 C 
ENDBRANCH  32  34
ENDBRANCH   3  32
TORSDOF 6
