REMARK  Name = ZINC28250516
REMARK  9 active torsions:
REMARK  status: ('A' for Active; 'I' for Inactive)
REMARK    1  A    between atoms: C_1  and  C_2
REMARK    2  A    between atoms: C_2  and  S_3
REMARK    3  A    between atoms: S_3  and  C_4
REMARK    4  A    between atoms: C_9  and  C_26
REMARK    5  A    between atoms: C_11  and  C_15
REMARK    6  A    between atoms: C_12  and  C_14
REMARK    7  A    between atoms: N_17  and  C_18
REMARK    8  A    between atoms: C_22  and  C_25
REMARK    9  A    between atoms: C_23  and  C_24
REMARK                            x       y       z     vdW  Elec       q    Type
REMARK                         _______ _______ _______ _____ _____    ______ ____
ROOT
ATOM      1  C   UNL     1       8.942   5.661   0.720  0.00  0.00    +0.210 A 
ATOM      2  N   UNL     1       7.984   6.590   0.588  0.00  0.00    -0.187 NA
ATOM      3  C   UNL     1       6.849   6.009   0.306  0.00  0.00    +0.220 A 
ATOM      4  N   UNL     1       7.065   4.672   0.244  0.00  0.00    -0.217 N 
ATOM      5  N   UNL     1       8.417   4.472   0.517  0.00  0.00    -0.141 NA
ATOM      6  C   UNL     1       6.020   3.698  -0.056  0.00  0.00    +0.213 C 
ATOM      7  C   UNL     1       4.674   4.369   0.006  0.00  0.00    +0.063 C 
ATOM      8  C   UNL     1       4.522   5.700   0.070  0.00  0.00    +0.018 C 
ATOM      9  N   UNL     1       5.594   6.559   0.089  0.00  0.00    -0.287 N 
ATOM     10  C   UNL     1       3.129   6.272   0.123  0.00  0.00    +0.061 C 
ATOM     11  H   UNL     1       5.486   7.643  -0.059  0.00  0.00    +0.155 HD
ENDROOT
BRANCH   6  12
ATOM     12  C   UNL     1       6.241   3.142  -1.439  0.00  0.00    +0.134 A 
ATOM     13  C   UNL     1       6.450   1.848  -1.742  0.00  0.00    +0.047 A 
ATOM     14  C   UNL     1       6.607   1.776  -3.146  0.00  0.00    +0.041 A 
ATOM     15  C   UNL     1       6.483   3.031  -3.616  0.00  0.00    +0.195 A 
ATOM     16  O   UNL     1       6.256   3.852  -2.578  0.00  0.00    -0.465 OA
ENDBRANCH   6  12
BRANCH   7  17
ATOM     17  C   UNL     1       3.515   3.557   0.003  0.00  0.00    +0.248 C 
ATOM     18  O   UNL     1       3.103   3.081   1.045  0.00  0.00    -0.270 OA
ATOM     19  N   UNL     1       2.868   3.311  -1.153  0.00  0.00    -0.281 N 
ATOM     20  H   UNL     1       3.291   3.663  -2.106  0.00  0.00    +0.155 HD
BRANCH  19  21
ATOM     21  C   UNL     1       1.660   2.608  -1.142  0.00  0.00    +0.037 A 
ATOM     22  C   UNL     1       0.866   2.606  -0.002  0.00  0.00    +0.023 A 
ATOM     23  C   UNL     1      -0.327   1.911   0.006  0.00  0.00    +0.002 A 
ATOM     24  C   UNL     1      -0.733   1.217  -1.120  0.00  0.00    +0.004 A 
ATOM     25  C   UNL     1       0.055   1.217  -2.256  0.00  0.00    -0.046 A 
ATOM     26  C   UNL     1       1.250   1.910  -2.271  0.00  0.00    -0.026 A 
ATOM     27  C   UNL     1       2.107   1.910  -3.510  0.00  0.00    +0.046 C 
ATOM     28  C   UNL     1      -0.390   0.460  -3.481  0.00  0.00    +0.044 C 
ENDBRANCH  19  21
ENDBRANCH   7  17
BRANCH   1  29
ATOM     29  S   UNL     1      10.632   5.982   1.101  0.00  0.00    -0.085 S 
BRANCH  29  31
ATOM     30  C   UNL     1      12.145   8.208   1.592  0.00  0.00    +0.016 C 
ATOM     31  C   UNL     1      10.712   7.787   1.257  0.00  0.00    +0.074 C 
ENDBRANCH  29  31
ENDBRANCH   1  29
TORSDOF 5
