REMARK  Name = ZINC06049161
REMARK  6 active torsions:
REMARK  status: ('A' for Active; 'I' for Inactive)
REMARK    1  A    between atoms: C_4  and  C_7
REMARK    2  A    between atoms: C_8  and  C_9
REMARK    3  A    between atoms: N_11  and  C_12
REMARK    4  A    between atoms: C_16  and  S_18
REMARK    5  A    between atoms: S_18  and  N_21
REMARK    6  A    between atoms: N_21  and  C_22
REMARK                            x       y       z     vdW  Elec       q    Type
REMARK                         _______ _______ _______ _____ _____    ______ ____
ROOT
ATOM      1  C   UNL     1       6.262  -4.716   0.006  0.00  0.00    +0.036 A 
ATOM      2  C   UNL     1       7.421  -3.956   0.100  0.00  0.00    +0.023 A 
ATOM      3  C   UNL     1       8.650  -4.581   0.173  0.00  0.00    +0.004 A 
ATOM      4  C   UNL     1       8.728  -5.962   0.153  0.00  0.00    +0.029 A 
ATOM      5  C   UNL     1       7.577  -6.721   0.060  0.00  0.00    +0.112 A 
ATOM      6  C   UNL     1       6.343  -6.102  -0.008  0.00  0.00    +0.052 A 
ENDROOT
BRANCH   1   9
ATOM      7  C   UNL     1       3.942  -4.645   0.524  0.00  0.00    +0.241 C 
ATOM      8  O   UNL     1       4.038  -5.737   1.052  0.00  0.00    -0.270 OA
ATOM      9  N   UNL     1       5.016  -4.086  -0.069  0.00  0.00    -0.282 N 
ATOM     10  H   UNL     1       4.924  -3.247  -0.547  0.00  0.00    +0.155 HD
BRANCH   7  12
ATOM     11  C   UNL     1       1.586  -4.497   1.127  0.00  0.00    +0.013 C 
ATOM     12  C   UNL     1       2.660  -3.938   0.533  0.00  0.00    +0.068 C 
BRANCH  11  16
ATOM     13  C   UNL     1      -2.128  -2.447   1.154  0.00  0.00    +0.000 A 
ATOM     14  C   UNL     1      -2.022  -3.689   1.755  0.00  0.00    +0.001 A 
ATOM     15  C   UNL     1      -0.819  -4.362   1.750  0.00  0.00    +0.008 A 
ATOM     16  C   UNL     1       0.297  -3.785   1.136  0.00  0.00    -0.025 A 
ATOM     17  C   UNL     1       0.183  -2.530   0.531  0.00  0.00    +0.008 A 
ATOM     18  C   UNL     1      -1.027  -1.870   0.544  0.00  0.00    +0.001 A 
ENDBRANCH  11  16
ENDBRANCH   7  12
ENDBRANCH   1   9
BRANCH   5  19
ATOM     19  S   UNL     1       7.681  -8.479   0.034  0.00  0.00    +0.092 S 
ATOM     20  O   UNL     1       6.503  -8.947  -0.608  0.00  0.00    -0.148 OA
ATOM     21  O   UNL     1       8.984  -8.802  -0.434  0.00  0.00    -0.148 OA
BRANCH  19  22
ATOM     22  N   UNL     1       7.602  -8.998   1.605  0.00  0.00    -0.095 NA
BRANCH  22  23
ATOM     23  C   UNL     1       7.662 -10.364   1.894  0.00  0.00    +0.109 A 
ATOM     24  C   UNL     1       7.794 -11.288   0.866  0.00  0.00    +0.029 A 
ATOM     25  C   UNL     1       7.853 -12.638   1.155  0.00  0.00    +0.002 A 
ATOM     26  C   UNL     1       7.781 -13.070   2.467  0.00  0.00    +0.003 A 
ATOM     27  C   UNL     1       7.649 -12.154   3.494  0.00  0.00    +0.040 A 
ATOM     28  C   UNL     1       7.595 -10.802   3.213  0.00  0.00    +0.148 A 
ATOM     29  F   UNL     1       7.472  -9.906   4.217  0.00  0.00    -0.203 F 
ENDBRANCH  22  23
ENDBRANCH  19  22
ENDBRANCH   5  19
TORSDOF 6
