REMARK  Name = ZINC21539267
REMARK  7 active torsions:
REMARK  status: ('A' for Active; 'I' for Inactive)
REMARK    1  A    between atoms: C_1  and  C_2
REMARK    2  A    between atoms: C_5  and  O_37
REMARK    3  A    between atoms: C_6  and  N_8
REMARK    4  A    between atoms: C_23  and  C_25
REMARK    5  A    between atoms: C_28  and  S_31
REMARK    6  A    between atoms: S_31  and  C_32
REMARK    7  A    between atoms: O_37  and  C_38
REMARK                            x       y       z     vdW  Elec       q    Type
REMARK                         _______ _______ _______ _____ _____    ______ ____
ROOT
ATOM      1  N   UNL     1       4.306   1.654  -3.190  0.00  0.00    -0.266 N 
ATOM      2  C   UNL     1       3.486   1.095  -2.277  0.00  0.00    +0.308 C 
ATOM      3  O   UNL     1       2.877   0.078  -2.549  0.00  0.00    -0.252 OA
ATOM      4  N   UNL     1       3.341   1.664  -1.064  0.00  0.00    -0.268 N 
ATOM      5  C   UNL     1       4.062   2.896  -0.697  0.00  0.00    +0.148 C 
ATOM      6  C   UNL     1       3.212   3.851   0.111  0.00  0.00    +0.005 A 
ATOM      7  C   UNL     1       2.766   5.092  -0.388  0.00  0.00    -0.030 A 
ATOM      8  C   UNL     1       2.053   5.890   0.450  0.00  0.00    -0.005 A 
ATOM      9  S   UNL     1       1.951   4.947   1.950  0.00  0.00    -0.075 S 
ATOM     10  C   UNL     1       2.859   3.540   1.387  0.00  0.00    +0.090 A 
ATOM     11  N   UNL     1       3.189   2.347   2.017  0.00  0.00    -0.312 N 
ATOM     12  C   UNL     1       3.700   2.094   3.244  0.00  0.00    +0.092 A 
ATOM     13  C   UNL     1       3.934   0.765   3.334  0.00  0.00    +0.020 A 
ATOM     14  C   UNL     1       3.530   0.178   2.115  0.00  0.00    +0.025 A 
ATOM     15  C   UNL     1       3.051   1.159   1.336  0.00  0.00    +0.049 A 
ATOM     16  C   UNL     1       2.448   1.080  -0.034  0.00  0.00    +0.155 C 
ATOM     17  C   UNL     1       1.488   7.243   0.162  0.00  0.00    +0.043 C 
ATOM     18  C   UNL     1       2.133   7.770  -1.129  0.00  0.00    +0.005 C 
ATOM     19  C   UNL     1       2.087   6.665  -2.188  0.00  0.00    +0.005 C 
ATOM     20  C   UNL     1       3.059   5.544  -1.816  0.00  0.00    +0.036 C 
ATOM     21  H   UNL     1       4.929   2.518  -2.913  0.00  0.00    +0.156 HD
ENDROOT
BRANCH   1  27
ATOM     22  C   UNL     1       2.052  -0.485  -7.001  0.00  0.00    +0.044 C 
ATOM     23  C   UNL     1       3.289   0.091  -6.362  0.00  0.00    -0.048 A 
ATOM     24  C   UNL     1       4.482   0.108  -7.060  0.00  0.00    +0.007 A 
ATOM     25  C   UNL     1       5.620   0.636  -6.479  0.00  0.00    +0.048 A 
ATOM     26  C   UNL     1       5.566   1.155  -5.196  0.00  0.00    +0.141 A 
ATOM     27  C   UNL     1       4.366   1.134  -4.490  0.00  0.00    +0.077 A 
ATOM     28  C   UNL     1       3.228   0.603  -5.079  0.00  0.00    +0.030 A 
BRANCH  26  29
ATOM     29  O   UNL     1       6.684   1.679  -4.625  0.00  0.00    -0.493 OA
ATOM     30  C   UNL     1       7.879   1.667  -5.408  0.00  0.00    +0.277 C 
ENDBRANCH  26  29
ENDBRANCH   1  27
BRANCH  16  31
ATOM     31  C   UNL     1       1.139   1.827  -0.039  0.00  0.00    -0.021 A 
ATOM     32  C   UNL     1       0.380   1.896   1.116  0.00  0.00    +0.007 A 
ATOM     33  C   UNL     1      -0.822   2.574   1.114  0.00  0.00    +0.015 A 
ATOM     34  C   UNL     1      -1.265   3.197  -0.047  0.00  0.00    +0.008 A 
ATOM     35  C   UNL     1      -0.500   3.125  -1.205  0.00  0.00    +0.015 A 
ATOM     36  C   UNL     1       0.699   2.441  -1.197  0.00  0.00    +0.007 A 
BRANCH  34  37
ATOM     37  S   UNL     1      -2.796   4.069  -0.052  0.00  0.00    -0.129 S 
ATOM     38  C   UNL     1      -3.411   3.886   1.645  0.00  0.00    +0.090 C 
ENDBRANCH  34  37
ENDBRANCH  16  31
TORSDOF 4
