REMARK  Name = ZINC08790867
REMARK  5 active torsions:
REMARK  status: ('A' for Active; 'I' for Inactive)
REMARK    1  A    between atoms: C_2  and  C_3
REMARK    2  A    between atoms: C_3  and  O_4
REMARK    3  A    between atoms: O_4  and  C_5
REMARK    4  A    between atoms: C_10  and  C_11
REMARK    5  A    between atoms: C_11  and  C_13
REMARK                            x       y       z     vdW  Elec       q    Type
REMARK                         _______ _______ _______ _____ _____    ______ ____
ROOT
ATOM      1  C   UNL     1       2.909   4.495   1.225  0.00  0.00    +0.066 C 
ATOM      2  C   UNL     1       4.131   5.322   0.752  0.00  0.00    -0.055 C 
ATOM      3  C   UNL     1       4.151   6.665   1.498  0.00  0.00    -0.016 C 
ATOM      4  C   UNL     1       3.917   7.737   0.409  0.00  0.00    -0.020 C 
ATOM      5  C   UNL     1       3.200   6.943  -0.710  0.00  0.00    -0.076 C 
ATOM      6  C   UNL     1       2.938   4.591  -1.191  0.00  0.00    +0.060 C 
ATOM      7  C   UNL     1       2.593   3.661  -0.032  0.00  0.00    +0.085 C 
ATOM      8  C   UNL     1       1.159   3.223  -0.058  0.00  0.00    -0.011 A 
ATOM      9  C   UNL     1      -0.042   3.897  -0.049  0.00  0.00    +0.006 A 
ATOM     10  C   UNL     1      -1.232   3.193  -0.084  0.00  0.00    +0.000 A 
ATOM     11  C   UNL     1      -1.214   1.811  -0.132  0.00  0.00    +0.002 A 
ATOM     12  C   UNL     1      -0.014   1.131  -0.134  0.00  0.00    +0.023 A 
ATOM     13  C   UNL     1       1.190   1.832  -0.101  0.00  0.00    +0.038 A 
ATOM     14  N   UNL     1       2.510   1.377  -0.101  0.00  0.00    -0.285 N 
ATOM     15  C   UNL     1       3.397   2.392  -0.062  0.00  0.00    +0.228 C 
ATOM     16  O   UNL     1       4.606   2.299  -0.053  0.00  0.00    -0.275 OA
ATOM     17  C   UNL     1       3.545   3.834  -2.341  0.00  0.00    -0.027 A 
ATOM     18  C   UNL     1       4.670   3.051  -2.468  0.00  0.00    +0.004 A 
ATOM     19  C   UNL     1       4.977   2.472  -3.687  0.00  0.00    +0.000 A 
ATOM     20  C   UNL     1       4.150   2.681  -4.776  0.00  0.00    +0.002 A 
ATOM     21  C   UNL     1       3.022   3.465  -4.653  0.00  0.00    +0.023 A 
ATOM     22  C   UNL     1       2.705   4.051  -3.429  0.00  0.00    +0.036 A 
ATOM     23  N   UNL     1       1.637   4.870  -3.059  0.00  0.00    -0.286 N 
ATOM     24  C   UNL     1       1.698   5.230  -1.764  0.00  0.00    +0.212 C 
ATOM     25  O   UNL     1       0.907   5.933  -1.171  0.00  0.00    -0.277 OA
ATOM     26  H   UNL     1       2.761   0.441  -0.127  0.00  0.00    +0.155 HD
ATOM     27  H   UNL     1       0.932   5.147  -3.665  0.00  0.00    +0.155 HD
ATOM     28  N   UNL     1       3.850   5.621  -0.650  0.00  0.00    +0.395 N 
ATOM     29  H   UNL     1       4.722   5.632  -1.192  0.00  0.00    -0.079 HD
ENDROOT
BRANCH   1  30
ATOM     30  C   UNL     1       1.753   5.394   1.582  0.00  0.00    +0.169 C 
ATOM     31  O   UNL     1       1.721   6.533   1.167  0.00  0.00    -0.292 OA
BRANCH  30  37
ATOM     32  C   UNL     1      -0.412   5.725   2.766  0.00  0.00    +0.131 A 
ATOM     33  C   UNL     1      -1.433   5.238   3.569  0.00  0.00    +0.046 A 
ATOM     34  C   UNL     1      -1.386   3.940   4.037  0.00  0.00    +0.004 A 
ATOM     35  C   UNL     1      -0.323   3.112   3.709  0.00  0.00    +0.001 A 
ATOM     36  C   UNL     1       0.697   3.575   2.908  0.00  0.00    +0.015 A 
ATOM     37  C   UNL     1       0.667   4.891   2.431  0.00  0.00    +0.059 A 
BRANCH  32  38
ATOM     38  O   UNL     1      -0.457   7.000   2.307  0.00  0.00    -0.487 OA
BRANCH  38  39
ATOM     39  C   UNL     1      -1.585   7.789   2.689  0.00  0.00    +0.256 C 
BRANCH  39  41
ATOM     40  C   UNL     1      -2.499   9.726   1.517  0.00  0.00    +0.007 C 
ATOM     41  C   UNL     1      -1.462   9.166   2.090  0.00  0.00    +0.006 C 
ENDBRANCH  39  41
ENDBRANCH  38  39
ENDBRANCH  32  38
ENDBRANCH  30  37
ENDBRANCH   1  30
TORSDOF 5
