REMARK  Name = ZINC02461044
REMARK  8 active torsions:
REMARK  status: ('A' for Active; 'I' for Inactive)
REMARK    1  A    between atoms: C_1  and  C_2
REMARK    2  A    between atoms: C_2  and  C_3
REMARK    3  A    between atoms: C_3  and  C_5
REMARK    4  A    between atoms: C_3  and  S_6
REMARK    5  A    between atoms: S_6  and  C_7
REMARK    6  A    between atoms: C_8  and  S_17
REMARK    7  A    between atoms: C_10  and  C_12
REMARK    8  A    between atoms: S_17  and  C_20
REMARK                            x       y       z     vdW  Elec       q    Type
REMARK                         _______ _______ _______ _____ _____    ______ ____
ROOT
ATOM      1  C   UNL     1      -1.753   3.813  -0.112  0.00  0.00    +0.208 A 
ATOM      2  C   UNL     1      -2.071   5.065  -0.526  0.00  0.00    +0.234 A 
ATOM      3  N   UNL     1      -2.846   4.952  -1.615  0.00  0.00    -0.186 NA
ATOM      4  C   UNL     1      -3.014   3.676  -1.882  0.00  0.00    +0.266 A 
ATOM      5  O   UNL     1      -2.341   2.950  -0.966  0.00  0.00    -0.424 OA
ENDROOT
BRANCH   4   6
ATOM      6  C   UNL     1      -3.799   3.131  -2.998  0.00  0.00    +0.189 A 
ATOM      7  C   UNL     1      -3.978   1.809  -3.281  0.00  0.00    +0.055 A 
ATOM      8  C   UNL     1      -4.794   1.747  -4.426  0.00  0.00    +0.042 A 
ATOM      9  C   UNL     1      -5.072   3.017  -4.784  0.00  0.00    +0.196 A 
ATOM     10  O   UNL     1      -4.474   3.850  -3.917  0.00  0.00    -0.458 OA
ENDBRANCH   4   6
BRANCH   2  11
ATOM     11  S   UNL     1      -1.558   6.571   0.232  0.00  0.00    +0.046 S 
ATOM     12  O   UNL     1      -2.513   7.556  -0.135  0.00  0.00    -0.163 OA
ATOM     13  O   UNL     1      -1.262   6.263   1.587  0.00  0.00    -0.163 OA
BRANCH  11  14
ATOM     14  C   UNL     1      -0.035   7.040  -0.522  0.00  0.00    +0.095 A 
ATOM     15  C   UNL     1       1.163   6.608   0.014  0.00  0.00    +0.027 A 
ATOM     16  C   UNL     1       2.357   6.973  -0.580  0.00  0.00    +0.002 A 
ATOM     17  C   UNL     1       2.353   7.778  -1.703  0.00  0.00    +0.000 A 
ATOM     18  C   UNL     1       1.154   8.215  -2.236  0.00  0.00    +0.002 A 
ATOM     19  C   UNL     1      -0.040   7.846  -1.645  0.00  0.00    +0.027 A 
ENDBRANCH  11  14
ENDBRANCH   2  11
BRANCH   1  20
ATOM     20  S   UNL     1      -0.753   3.393   1.277  0.00  0.00    -0.081 S 
BRANCH  20  21
ATOM     21  C   UNL     1      -0.729   1.579   1.267  0.00  0.00    +0.051 C 
ATOM     22  C   UNL     1      -0.013   1.086   0.008  0.00  0.00    +0.019 C 
BRANCH  21  24
ATOM     23  C   UNL     1      -0.772   1.460   3.762  0.00  0.00    +0.005 C 
ATOM     24  C   UNL     1       0.011   1.072   2.506  0.00  0.00    +0.011 C 
ENDBRANCH  21  24
ENDBRANCH  20  21
ENDBRANCH   1  20
TORSDOF 6
