REMARK  Name = ZINC09253792
REMARK  5 active torsions:
REMARK  status: ('A' for Active; 'I' for Inactive)
REMARK    1  A    between atoms: C_1  and  C_2
REMARK    2  A    between atoms: C_2  and  C_26
REMARK    3  A    between atoms: N_5  and  C_9
REMARK    4  A    between atoms: C_9  and  C_10
REMARK    5  A    between atoms: N_12  and  C_13
REMARK                            x       y       z     vdW  Elec       q    Type
REMARK                         _______ _______ _______ _____ _____    ______ ____
ROOT
ATOM      1  C   UNL     1       1.012   5.549  -3.147  0.00  0.00    +0.214 C 
ENDROOT
BRANCH   1   6
ATOM      2  C   UNL     1       1.855   4.144   1.257  0.00  0.00    +0.047 C 
ATOM      3  C   UNL     1       1.155   3.598   0.011  0.00  0.00    +0.138 C 
ATOM      4  C   UNL     1       1.797   4.152  -1.246  0.00  0.00    +0.251 C 
ATOM      5  O   UNL     1       2.944   4.004  -1.609  0.00  0.00    -0.272 OA
ATOM      6  N   UNL     1       0.827   4.842  -1.877  0.00  0.00    -0.215 N 
ATOM      7  C   UNL     1      -0.327   4.803  -1.200  0.00  0.00    +0.310 C 
ATOM      8  O   UNL     1      -1.346   5.352  -1.569  0.00  0.00    -0.252 OA
ATOM      9  N   UNL     1      -0.232   4.088  -0.060  0.00  0.00    -0.281 N 
ATOM     10  H   UNL     1      -0.938   3.925   0.585  0.00  0.00    +0.152 HD
BRANCH   3  11
ATOM     11  C   UNL     1       1.188   2.092   0.003  0.00  0.00    +0.022 A 
ATOM     12  C   UNL     1       0.006   1.375   0.010  0.00  0.00    +0.047 A 
ATOM     13  C   UNL     1       0.035  -0.009   0.003  0.00  0.00    +0.124 A 
ATOM     14  C   UNL     1       1.249  -0.675  -0.011  0.00  0.00    +0.041 A 
ATOM     15  C   UNL     1       2.430   0.041  -0.018  0.00  0.00    +0.041 A 
ATOM     16  C   UNL     1       2.401   1.425  -0.011  0.00  0.00    +0.129 A 
ATOM     17  F   UNL     1       3.556   2.126  -0.018  0.00  0.00    -0.205 F 
ATOM     18  F   UNL     1      -1.120  -0.709   0.009  0.00  0.00    -0.205 F 
ENDBRANCH   3  11
ENDBRANCH   1   6
BRANCH   1  19
ATOM     19  C   UNL     1       0.699   4.617  -4.290  0.00  0.00    +0.235 C 
ATOM     20  O   UNL     1       0.355   3.476  -4.065  0.00  0.00    -0.274 OA
ATOM     21  N   UNL     1       0.801   5.053  -5.561  0.00  0.00    -0.284 N 
ATOM     22  H   UNL     1       1.010   5.983  -5.740  0.00  0.00    +0.155 HD
BRANCH  21  23
ATOM     23  C   UNL     1       0.605   4.162  -6.625  0.00  0.00    +0.037 A 
ATOM     24  C   UNL     1      -0.333   3.144  -6.513  0.00  0.00    +0.027 A 
ATOM     25  C   UNL     1      -0.529   2.264  -7.561  0.00  0.00    +0.051 A 
ATOM     26  C   UNL     1       0.210   2.395  -8.723  0.00  0.00    +0.167 A 
ATOM     27  C   UNL     1       1.153   3.417  -8.838  0.00  0.00    +0.169 A 
ATOM     28  C   UNL     1       1.344   4.301  -7.792  0.00  0.00    +0.072 A 
ATOM     29  O   UNL     1       1.740   3.324 -10.074  0.00  0.00    -0.447 OA
ATOM     30  C   UNL     1       1.495   1.966 -10.467  0.00  0.00    +0.254 C 
ATOM     31  O   UNL     1       0.215   1.673  -9.889  0.00  0.00    -0.448 OA
ATOM     32  C   UNL     1       1.464   1.825 -11.992  0.00  0.00    +0.093 C 
ATOM     33  C   UNL     1       2.874   1.284 -12.347  0.00  0.00    +0.008 C 
ATOM     34  C   UNL     1       3.179   0.320 -11.172  0.00  0.00    +0.008 C 
ATOM     35  C   UNL     1       2.577   1.026  -9.936  0.00  0.00    +0.093 C 
ENDBRANCH  21  23
ENDBRANCH   1  19
TORSDOF 4
