REMARK  Name = ZINC22364588
REMARK  11 active torsions:
REMARK  status: ('A' for Active; 'I' for Inactive)
REMARK    1  A    between atoms: C_1  and  C_2
REMARK    2  A    between atoms: C_2  and  C_3
REMARK    3  A    between atoms: C_3  and  C_5
REMARK    4  A    between atoms: C_3  and  C_12
REMARK    5  A    between atoms: C_5  and  C_6
REMARK    6  A    between atoms: C_12  and  N_13
REMARK    7  A    between atoms: C_14  and  C_16
REMARK    8  A    between atoms: C_16  and  N_17
REMARK    9  A    between atoms: N_17  and  C_18
REMARK   10  A    between atoms: N_17  and  S_25
REMARK   11  A    between atoms: S_25  and  C_28
REMARK                            x       y       z     vdW  Elec       q    Type
REMARK                         _______ _______ _______ _____ _____    ______ ____
ROOT
ATOM      1  N   UNL     1       4.242  -1.549  -1.641  0.00  0.00    -0.194 N 
ENDROOT
BRANCH   1   2
ATOM      2  C   UNL     1       5.116  -0.713  -2.343  0.00  0.00    +0.052 A 
ATOM      3  C   UNL     1       5.359   0.577  -1.888  0.00  0.00    +0.027 A 
ATOM      4  C   UNL     1       6.226   1.400  -2.580  0.00  0.00    +0.040 A 
ATOM      5  C   UNL     1       6.845   0.944  -3.731  0.00  0.00    +0.124 A 
ATOM      6  C   UNL     1       6.601  -0.340  -4.189  0.00  0.00    +0.040 A 
ATOM      7  C   UNL     1       5.738  -1.168  -3.498  0.00  0.00    +0.027 A 
ATOM      8  F   UNL     1       7.689   1.752  -4.409  0.00  0.00    -0.205 F 
ENDBRANCH   1   2
BRANCH   1   9
ATOM      9  S   UNL     1       4.020  -1.337  -0.014  0.00  0.00    +0.075 S 
ATOM     10  O   UNL     1       5.163  -0.641   0.465  0.00  0.00    -0.150 OA
ATOM     11  O   UNL     1       3.621  -2.596   0.509  0.00  0.00    -0.150 OA
BRANCH   9  12
ATOM     12  C   UNL     1       2.648  -0.250   0.187  0.00  0.00    +0.112 A 
ATOM     13  C   UNL     1       1.360  -0.753   0.162  0.00  0.00    +0.032 A 
ATOM     14  C   UNL     1       0.281   0.096   0.317  0.00  0.00    +0.051 A 
ATOM     15  C   UNL     1       0.487   1.456   0.499  0.00  0.00    +0.162 A 
ATOM     16  C   UNL     1       1.782   1.961   0.527  0.00  0.00    +0.164 A 
ATOM     17  C   UNL     1       2.860   1.103   0.369  0.00  0.00    +0.078 A 
ATOM     18  O   UNL     1       2.007   3.290   0.713  0.00  0.00    -0.485 OA
ATOM     19  C   UNL     1       0.897   4.168   0.493  0.00  0.00    +0.270 C 
ATOM     20  C   UNL     1      -0.330   3.576   1.200  0.00  0.00    +0.270 C 
ATOM     21  O   UNL     1      -0.585   2.281   0.643  0.00  0.00    -0.485 OA
ENDBRANCH   9  12
ENDBRANCH   1   9
BRANCH   1  22
ATOM     22  C   UNL     1       3.523  -2.614  -2.346  0.00  0.00    +0.227 C 
BRANCH  22  24
ATOM     23  N   UNL     1       1.440  -2.853  -3.658  0.00  0.00    -0.314 N 
ATOM     24  C   UNL     1       2.265  -2.051  -2.956  0.00  0.00    +0.232 C 
ATOM     25  O   UNL     1       1.996  -0.877  -2.816  0.00  0.00    -0.274 OA
ATOM     26  H   UNL     1       1.684  -3.918  -3.785  0.00  0.00    +0.149 HD
BRANCH  23  27
ATOM     27  C   UNL     1       0.216  -2.306  -4.250  0.00  0.00    +0.108 C 
BRANCH  27  28
ATOM     28  C   UNL     1      -0.534  -3.418  -4.987  0.00  0.00    +0.010 C 
BRANCH  28  30
ATOM     29  C   UNL     1      -1.614  -5.656  -4.728  0.00  0.00    +0.004 C 
ATOM     30  C   UNL     1      -1.007  -4.468  -3.979  0.00  0.00    +0.002 C 
ENDBRANCH  28  30
BRANCH  28  31
ATOM     31  C   UNL     1      -1.745  -2.823  -5.710  0.00  0.00    +0.040 C 
BRANCH  31  32
ATOM     32  C   UNL     1      -1.273  -1.899  -6.802  0.00  0.00    -0.047 A 
ATOM     33  C   UNL     1      -1.066  -0.559  -6.532  0.00  0.00    +0.003 A 
ATOM     34  C   UNL     1      -0.629   0.289  -7.533  0.00  0.00    +0.000 A 
ATOM     35  C   UNL     1      -0.408  -0.202  -8.806  0.00  0.00    +0.000 A 
ATOM     36  C   UNL     1      -0.620  -1.541  -9.078  0.00  0.00    +0.000 A 
ATOM     37  C   UNL     1      -1.052  -2.389  -8.075  0.00  0.00    +0.003 A 
ENDBRANCH  31  32
ENDBRANCH  28  31
ENDBRANCH  27  28
ENDBRANCH  23  27
ENDBRANCH  22  24
ENDBRANCH   1  22
TORSDOF 10
