REMARK  Name = ZINC36013852
REMARK  11 active torsions:
REMARK  status: ('A' for Active; 'I' for Inactive)
REMARK    1  A    between atoms: C_1  and  C_2
REMARK    2  A    between atoms: C_2  and  N_3
REMARK    3  A    between atoms: C_4  and  C_23
REMARK    4  A    between atoms: C_5  and  C_18
REMARK    5  A    between atoms: C_6  and  C_11
REMARK    6  A    between atoms: C_18  and  O_20
REMARK    7  A    between atoms: O_20  and  C_21
REMARK    8  A    between atoms: C_21  and  C_22
REMARK    9  A    between atoms: C_23  and  N_24
REMARK   10  A    between atoms: C_28  and  C_31
REMARK   11  A    between atoms: C_32  and  C_34
REMARK                            x       y       z     vdW  Elec       q    Type
REMARK                         _______ _______ _______ _____ _____    ______ ____
ROOT
ATOM      1  N   UNL     1      -2.511   0.308   1.843  0.00  0.00    -0.258 N 
ATOM      2  C   UNL     1      -2.915   0.184   3.142  0.00  0.00    +0.041 C 
ATOM      3  C   UNL     1      -4.200  -0.098   3.448  0.00  0.00    +0.080 C 
ATOM      4  C   UNL     1      -5.177  -0.270   2.302  0.00  0.00    +0.144 C 
ATOM      5  N   UNL     1      -4.640  -0.115   0.939  0.00  0.00    -0.288 N 
ATOM      6  C   UNL     1      -3.332   0.171   0.794  0.00  0.00    +0.307 C 
ATOM      7  O   UNL     1      -2.880   0.304  -0.327  0.00  0.00    -0.252 OA
ATOM      8  H   UNL     1      -5.216  -0.214   0.165  0.00  0.00    +0.151 HD
ENDROOT
BRANCH   4   9
ATOM      9  C   UNL     1      -6.285   0.735   2.481  0.00  0.00    -0.022 A 
ATOM     10  C   UNL     1      -6.096   2.049   2.095  0.00  0.00    +0.007 A 
ATOM     11  C   UNL     1      -7.112   2.971   2.259  0.00  0.00    +0.020 A 
ATOM     12  C   UNL     1      -8.319   2.580   2.810  0.00  0.00    +0.041 A 
ATOM     13  C   UNL     1      -8.508   1.265   3.196  0.00  0.00    +0.020 A 
ATOM     14  C   UNL     1      -7.493   0.342   3.026  0.00  0.00    +0.007 A 
ATOM     15 CL   UNL     1      -9.595   3.738   3.016  0.00  0.00    -0.084 Cl
ENDBRANCH   4   9
BRANCH   1  17
ATOM     16  C   UNL     1      -0.909   2.131   1.542  0.00  0.00    +0.025 C 
ATOM     17  C   UNL     1      -1.102   0.614   1.584  0.00  0.00    +0.111 C 
ENDBRANCH   1  17
BRANCH   3  18
ATOM     18  C   UNL     1      -4.620  -0.227   4.792  0.00  0.00    +0.339 C 
ATOM     19  O   UNL     1      -4.737  -1.332   5.289  0.00  0.00    -0.245 OA
BRANCH  18  20
ATOM     20  O   UNL     1      -4.890   0.874   5.524  0.00  0.00    -0.462 OA
BRANCH  20  21
ATOM     21  C   UNL     1      -5.309   0.668   6.875  0.00  0.00    +0.229 C 
ATOM     22  C   UNL     1      -5.568   2.022   7.540  0.00  0.00    +0.048 C 
ENDBRANCH  20  21
ENDBRANCH  18  20
ENDBRANCH   3  18
BRANCH   2  23
ATOM     23  C   UNL     1      -1.911   0.363   4.251  0.00  0.00    +0.136 C 
BRANCH  23  24
ATOM     24  N   UNL     1      -0.930  -0.729   4.204  0.00  0.00    -0.294 NA
ATOM     25  C   UNL     1      -1.565  -2.020   4.503  0.00  0.00    +0.104 C 
ATOM     26  C   UNL     1      -0.555  -3.148   4.268  0.00  0.00    +0.124 C 
ATOM     27  N   UNL     1       0.659  -2.858   5.046  0.00  0.00    -0.292 N 
ATOM     28  C   UNL     1       1.276  -1.531   4.902  0.00  0.00    +0.087 C 
ATOM     29  C   UNL     1       0.195  -0.466   5.112  0.00  0.00    +0.107 C 
ATOM     30  C   UNL     1       2.380  -1.361   5.948  0.00  0.00    +0.029 C 
ATOM     31  C   UNL     1       1.193  -3.784   5.867  0.00  0.00    +0.247 C 
ATOM     32  O   UNL     1       2.134  -3.494   6.579  0.00  0.00    -0.270 OA
BRANCH  31  33
ATOM     33  C   UNL     1       0.633  -5.152   5.902  0.00  0.00    +0.037 A 
ATOM     34  C   UNL     1       0.005  -5.681   4.773  0.00  0.00    +0.013 A 
ATOM     35  C   UNL     1      -0.514  -6.958   4.812  0.00  0.00    +0.001 A 
ATOM     36  C   UNL     1      -0.415  -7.714   5.966  0.00  0.00    +0.000 A 
ATOM     37  C   UNL     1       0.206  -7.195   7.089  0.00  0.00    +0.001 A 
ATOM     38  C   UNL     1       0.735  -5.922   7.061  0.00  0.00    +0.013 A 
ENDBRANCH  31  33
ENDBRANCH  23  24
ENDBRANCH   2  23
TORSDOF 8
