REMARK  Name = ZINC15676205
REMARK  9 active torsions:
REMARK  status: ('A' for Active; 'I' for Inactive)
REMARK    1  A    between atoms: C_1  and  C_2
REMARK    2  A    between atoms: C_7  and  N_8
REMARK    3  A    between atoms: C_13  and  C_28
REMARK    4  A    between atoms: C_17  and  C_18
REMARK    5  A    between atoms: C_17  and  C_19
REMARK    6  A    between atoms: N_21  and  C_22
REMARK    7  A    between atoms: C_28  and  C_29
REMARK    8  A    between atoms: C_28  and  C_30
REMARK    9  A    between atoms: C_28  and  C_31
REMARK                            x       y       z     vdW  Elec       q    Type
REMARK                         _______ _______ _______ _____ _____    ______ ____
ROOT
ATOM      1  N   UNL     1       0.006  -0.117  -0.103  0.00  0.00    -0.250 N 
ATOM      2  C   UNL     1       0.879  -0.794  -0.888  0.00  0.00    +0.270 C 
ATOM      3  O   UNL     1       0.823  -2.002  -1.015  0.00  0.00    -0.268 OA
ATOM      4  C   UNL     1       1.896   0.012  -1.579  0.00  0.00    +0.124 A 
ATOM      5  C   UNL     1       2.795  -0.304  -2.559  0.00  0.00    +0.058 A 
ATOM      6  C   UNL     1       3.493   0.884  -2.809  0.00  0.00    +0.069 A 
ATOM      7  N   UNL     1       3.018   1.809  -2.008  0.00  0.00    -0.175 NA
ATOM      8  N   UNL     1       2.097   1.338  -1.263  0.00  0.00    -0.256 N 
ATOM      9  C   UNL     1       1.317   1.992  -0.204  0.00  0.00    +0.179 C 
ATOM     10  C   UNL     1      -0.062   1.340  -0.119  0.00  0.00    +0.135 C 
ATOM     11  C   UNL     1      -0.893   1.782  -1.326  0.00  0.00    +0.044 C 
ENDROOT
BRANCH   1  18
ATOM     12  C   UNL     1       0.835  -0.555   2.583  0.00  0.00    +0.045 C 
ATOM     13  C   UNL     1      -0.483  -1.068   2.062  0.00  0.00    -0.029 A 
ATOM     14  C   UNL     1      -1.328  -1.774   2.896  0.00  0.00    +0.006 A 
ATOM     15  C   UNL     1      -2.537  -2.245   2.419  0.00  0.00    +0.020 A 
ATOM     16  C   UNL     1      -2.905  -2.011   1.105  0.00  0.00    +0.043 A 
ATOM     17  C   UNL     1      -2.065  -1.301   0.268  0.00  0.00    +0.043 A 
ATOM     18  C   UNL     1      -0.848  -0.831   0.743  0.00  0.00    +0.042 A 
ATOM     19 CL   UNL     1      -4.424  -2.604   0.511  0.00  0.00    -0.083 Cl
ENDBRANCH   1  18
BRANCH  10  20
ATOM     20  C   UNL     1      -0.746   1.810   1.139  0.00  0.00    +0.239 C 
ATOM     21  O   UNL     1      -0.134   2.468   1.953  0.00  0.00    -0.273 OA
ATOM     22  N   UNL     1      -2.039   1.500   1.359  0.00  0.00    -0.311 N 
ATOM     23  H   UNL     1      -2.506   0.907   0.750  0.00  0.00    +0.149 HD
BRANCH  22  24
ATOM     24  C   UNL     1      -2.739   2.057   2.519  0.00  0.00    +0.073 C 
ATOM     25  C   UNL     1      -2.472   1.182   3.745  0.00  0.00    +0.022 C 
ATOM     26  C   UNL     1      -3.203   1.764   4.956  0.00  0.00    +0.002 C 
ATOM     27  C   UNL     1      -4.707   1.803   4.675  0.00  0.00    +0.000 C 
ATOM     28  C   UNL     1      -4.974   2.678   3.449  0.00  0.00    +0.002 C 
ATOM     29  C   UNL     1      -4.243   2.096   2.237  0.00  0.00    +0.022 C 
ENDBRANCH  22  24
ENDBRANCH  10  20
BRANCH   6  30
ATOM     30  C   UNL     1       4.595   1.068  -3.820  0.00  0.00    +0.006 C 
ATOM     31  C   UNL     1       3.994   1.123  -5.226  0.00  0.00    +0.017 C 
ATOM     32  C   UNL     1       5.339   2.374  -3.532  0.00  0.00    +0.017 C 
ATOM     33  C   UNL     1       5.572  -0.106  -3.729  0.00  0.00    +0.017 C 
ENDBRANCH   6  30
TORSDOF 4
