REMARK  Name = ZINC12246128
REMARK  6 active torsions:
REMARK  status: ('A' for Active; 'I' for Inactive)
REMARK    1  A    between atoms: C_1  and  C_2
REMARK    2  A    between atoms: N_4  and  C_5
REMARK    3  A    between atoms: C_14  and  O_16
REMARK    4  A    between atoms: O_16  and  C_17
REMARK    5  A    between atoms: C_17  and  C_18
REMARK    6  A    between atoms: C_29  and  C_31
REMARK                            x       y       z     vdW  Elec       q    Type
REMARK                         _______ _______ _______ _____ _____    ______ ____
ROOT
ATOM      1  C   UNL     1      -6.679   5.245  -7.124  0.00  0.00    +0.133 C 
ATOM      2  C   UNL     1      -7.083   3.895  -7.679  0.00  0.00    -0.021 A 
ATOM      3  C   UNL     1      -7.848   3.574  -8.788  0.00  0.00    +0.006 A 
ATOM      4  C   UNL     1      -8.090   2.252  -9.106  0.00  0.00    +0.000 A 
ATOM      5  C   UNL     1      -7.567   1.245  -8.315  0.00  0.00    +0.000 A 
ATOM      6  C   UNL     1      -6.804   1.564  -7.209  0.00  0.00    +0.004 A 
ATOM      7  C   UNL     1      -6.559   2.889  -6.888  0.00  0.00    -0.034 A 
ATOM      8  C   UNL     1      -5.769   3.495  -5.753  0.00  0.00    +0.027 C 
ATOM      9  C   UNL     1      -5.502   4.954  -6.168  0.00  0.00    +0.154 C 
ATOM     10  C   UNL     1      -6.585   3.462  -4.464  0.00  0.00    +0.033 C 
ATOM     11  C   UNL     1      -5.791   4.138  -3.341  0.00  0.00    +0.109 C 
ATOM     12  N   UNL     1      -4.469   3.502  -3.249  0.00  0.00    -0.296 N 
ATOM     13  C   UNL     1      -3.634   3.429  -4.456  0.00  0.00    +0.109 C 
ATOM     14  C   UNL     1      -4.447   2.754  -5.572  0.00  0.00    +0.033 C 
ATOM     15  C   UNL     1      -4.029   3.000  -2.079  0.00  0.00    +0.267 C 
ATOM     16  O   UNL     1      -4.772   2.956  -1.118  0.00  0.00    -0.268 OA
ENDROOT
BRANCH  15  17
ATOM     17  C   UNL     1      -2.642   2.505  -1.963  0.00  0.00    +0.150 A 
ATOM     18  C   UNL     1      -2.075   1.841  -0.850  0.00  0.00    +0.005 A 
ATOM     19  C   UNL     1      -0.795   1.578  -1.193  0.00  0.00    +0.040 A 
ATOM     20  N   UNL     1      -0.612   2.060  -2.443  0.00  0.00    -0.281 N 
ATOM     21  H   UNL     1       0.245   2.007  -2.957  0.00  0.00    +0.189 HD
ATOM     22  N   UNL     1      -1.696   2.596  -2.877  0.00  0.00    -0.169 NA
ATOM     23  C   UNL     1      -0.090   0.862  -0.063  0.00  0.00    +0.055 C 
ATOM     24  C   UNL     1      -0.975   1.100   1.180  0.00  0.00    +0.011 C 
ATOM     25  C   UNL     1      -2.365   1.333   0.541  0.00  0.00    +0.039 C 
ENDBRANCH  15  17
BRANCH   1  29
ATOM     26  C   UNL     1      -9.865   7.198  -6.292  0.00  0.00    +0.109 C 
ATOM     27  C   UNL     1      -8.717   6.579  -7.047  0.00  0.00    +0.210 C 
ATOM     28  O   UNL     1      -8.622   6.739  -8.245  0.00  0.00    -0.276 OA
ATOM     29  N   UNL     1      -7.795   5.847  -6.390  0.00  0.00    -0.306 N 
ATOM     30  H   UNL     1      -7.871   5.719  -5.432  0.00  0.00    +0.149 HD
ENDBRANCH   1  29
BRANCH   9  31
ATOM     31  O   UNL     1      -4.252   5.066  -6.852  0.00  0.00    -0.367 OA
BRANCH  31  32
ATOM     32  C   UNL     1      -3.608   6.331  -6.682  0.00  0.00    +0.215 C 
BRANCH  32  33
ATOM     33  C   UNL     1      -2.307   6.338  -7.441  0.00  0.00    +0.067 A 
ATOM     34  C   UNL     1      -1.924   5.216  -8.152  0.00  0.00    +0.025 A 
ATOM     35  C   UNL     1      -0.725   5.234  -8.848  0.00  0.00    +0.003 A 
ATOM     36  C   UNL     1       0.047   6.384  -8.803  0.00  0.00    +0.020 A 
ATOM     37  C   UNL     1      -0.400   7.468  -8.071  0.00  0.00    +0.111 A 
ATOM     38  N   UNL     1      -1.549   7.417  -7.425  0.00  0.00    -0.258 NA
ENDBRANCH  32  33
ENDBRANCH  31  32
ENDBRANCH   9  31
TORSDOF 5
