REMARK  Name = ZINC64636665
REMARK  8 active torsions:
REMARK  status: ('A' for Active; 'I' for Inactive)
REMARK    1  A    between atoms: C_1  and  C_2
REMARK    2  A    between atoms: C_4  and  C_33
REMARK    3  A    between atoms: C_6  and  C_8
REMARK    4  A    between atoms: C_15  and  C_18
REMARK    5  A    between atoms: C_18  and  N_19
REMARK    6  A    between atoms: C_20  and  C_22
REMARK    7  A    between atoms: C_22  and  C_23
REMARK    8  A    between atoms: C_23  and  C_24
REMARK                            x       y       z     vdW  Elec       q    Type
REMARK                         _______ _______ _______ _____ _____    ______ ____
ROOT
ATOM      1  C   UNL     1       0.050  -2.728   2.432  0.00  0.00    +0.061 A 
ATOM      2  C   UNL     1       0.074  -4.120   2.452  0.00  0.00    +0.015 A 
ATOM      3  C   UNL     1       0.089  -4.797   3.654  0.00  0.00    +0.001 A 
ATOM      4  C   UNL     1       0.085  -4.090   4.845  0.00  0.00    +0.007 A 
ATOM      5  C   UNL     1       0.064  -2.713   4.835  0.00  0.00    -0.001 A 
ATOM      6  C   UNL     1       0.046  -2.010   3.638  0.00  0.00    +0.135 A 
ATOM      7  O   UNL     1       0.011  -0.668   3.855  0.00  0.00    -0.486 OA
ATOM      8  C   UNL     1       0.454  -0.392   5.194  0.00  0.00    +0.195 C 
ATOM      9  C   UNL     1       0.065  -1.688   5.952  0.00  0.00    +0.085 C 
ENDROOT
BRANCH   1  15
ATOM     10  C   UNL     1      -0.018   1.503   0.010  0.00  0.00    +0.066 C 
ATOM     11  C   UNL     1       0.002  -0.004   0.002  0.00  0.00    +0.042 A 
ATOM     12  C   UNL     1       0.006  -0.699  -1.198  0.00  0.00    +0.046 A 
ATOM     13  C   UNL     1       0.025  -2.086  -1.162  0.00  0.00    +0.042 A 
ATOM     14  N   UNL     1       0.039  -2.700   0.009  0.00  0.00    -0.232 NA
ATOM     15  C   UNL     1       0.035  -2.006   1.139  0.00  0.00    +0.164 A 
ATOM     16  N   UNL     1       0.022  -0.679   1.138  0.00  0.00    -0.232 NA
ATOM     17  C   UNL     1       0.029  -2.882  -2.441  0.00  0.00    +0.066 C 
ENDBRANCH   1  15
BRANCH   8  18
ATOM     18  C   UNL     1      -0.288   0.814   5.773  0.00  0.00    +0.149 C 
BRANCH  18  19
ATOM     19  N   UNL     1      -0.003   1.999   4.959  0.00  0.00    -0.312 N 
ATOM     20  C   UNL     1      -0.552   3.186   5.282  0.00  0.00    +0.213 C 
ATOM     21  O   UNL     1      -1.282   3.275   6.247  0.00  0.00    -0.276 OA
ATOM     22  H   UNL     1       0.580   1.928   4.187  0.00  0.00    +0.149 HD
BRANCH  20  23
ATOM     23  C   UNL     1      -0.260   4.404   4.445  0.00  0.00    +0.100 C 
BRANCH  23  24
ATOM     24  C   UNL     1      -1.001   5.611   5.023  0.00  0.00    +0.042 C 
BRANCH  24  25
ATOM     25  C   UNL     1      -0.709   6.830   4.186  0.00  0.00    -0.041 C 
ATOM     26  C   UNL     1      -1.458   7.318   3.171  0.00  0.00    -0.001 A 
ATOM     27  C   UNL     1      -2.721   6.878   2.567  0.00  0.00    +0.010 A 
ATOM     28  C   UNL     1      -3.239   7.588   1.539  0.00  0.00    +0.001 A 
ATOM     29  C   UNL     1      -2.602   8.731   1.038  0.00  0.00    +0.002 A 
ATOM     30  C   UNL     1      -1.439   9.197   1.541  0.00  0.00    +0.026 A 
ATOM     31  C   UNL     1      -0.805   8.528   2.624  0.00  0.00    +0.043 A 
ATOM     32  N   UNL     1       0.305   8.778   3.275  0.00  0.00    -0.380 N 
ATOM     33  C   UNL     1       0.479   7.757   4.313  0.00  0.00    +0.144 C 
ATOM     34  H   UNL     1       0.909   9.517   3.101  0.00  0.00    +0.160 HD
ENDBRANCH  24  25
ENDBRANCH  23  24
ENDBRANCH  20  23
ENDBRANCH  18  19
ENDBRANCH   8  18
TORSDOF 6
