REMARK  Name = ZINC03305723
REMARK  2 active torsions:
REMARK  status: ('A' for Active; 'I' for Inactive)
REMARK    1  A    between atoms: C_7  and  C_11
REMARK    2  A    between atoms: C_7  and  O_20
REMARK                            x       y       z     vdW  Elec       q    Type
REMARK                         _______ _______ _______ _____ _____    ______ ____
ROOT
ATOM      1  C   UNL     1      -4.372   2.835   0.599  0.00  0.00    +0.029 A 
ATOM      2  C   UNL     1      -5.466   2.079   0.985  0.00  0.00    +0.043 A 
ATOM      3  C   UNL     1      -5.433   1.379   2.178  0.00  0.00    +0.042 A 
ATOM      4  C   UNL     1      -4.314   1.430   2.985  0.00  0.00    +0.064 A 
ATOM      5  C   UNL     1      -3.209   2.189   2.603  0.00  0.00    +0.059 A 
ATOM      6  C   UNL     1      -3.256   2.888   1.403  0.00  0.00    +0.018 A 
ATOM      7  C   UNL     1      -1.929   3.601   1.275  0.00  0.00    +0.188 C 
ATOM      8  C   UNL     1      -1.177   3.208   2.529  0.00  0.00    +0.255 C 
ATOM      9  O   UNL     1      -0.058   3.559   2.837  0.00  0.00    -0.272 OA
ATOM     10  N   UNL     1      -1.982   2.397   3.236  0.00  0.00    -0.281 N 
ATOM     11 CL   UNL     1      -4.284   0.547   4.480  0.00  0.00    -0.082 Cl
ATOM     12 CL   UNL     1      -6.877   2.011  -0.026  0.00  0.00    -0.083 Cl
ATOM     13  H   UNL     1      -1.739   2.002   4.088  0.00  0.00    +0.155 HD
ENDROOT
BRANCH   7  14
ATOM     14  C   UNL     1      -1.181   3.121   0.029  0.00  0.00    +0.206 C 
ATOM     15  C   UNL     1      -1.200   1.605   0.017  0.00  0.00    +0.236 C 
ATOM     16  O   UNL     1      -2.245   0.989   0.018  0.00  0.00    -0.274 OA
ATOM     17  N   UNL     1      -0.011   0.966   0.007  0.00  0.00    -0.239 N 
ATOM     18  C   UNL     1       1.150   1.631  -0.000  0.00  0.00    +0.312 C 
ATOM     19  O   UNL     1       2.173   0.976  -0.013  0.00  0.00    -0.252 OA
ATOM     20  N   UNL     1       1.266   2.963   0.005  0.00  0.00    -0.239 N 
ATOM     21  C   UNL     1       0.188   3.775   0.020  0.00  0.00    +0.236 C 
ATOM     22  O   UNL     1       0.308   4.981   0.024  0.00  0.00    -0.274 OA
ATOM     23  H   UNL     1       0.002  -0.004   0.002  0.00  0.00    +0.159 HD
ATOM     24  H   UNL     1       2.152   3.358  -0.001  0.00  0.00    +0.159 HD
ENDBRANCH   7  14
BRANCH   7  25
ATOM     25  O   UNL     1      -2.124   5.016   1.227  0.00  0.00    -0.374 OA
ATOM     26  H   UNL     1      -2.594   5.374   1.993  0.00  0.00    +0.211 HD
ENDBRANCH   7  25
TORSDOF 2
