REMARK  Name = ZINC36206526
REMARK  15 active torsions:
REMARK  status: ('A' for Active; 'I' for Inactive)
REMARK    1  A    between atoms: C_1  and  C_2
REMARK    2  A    between atoms: C_5  and  C_37
REMARK    3  A    between atoms: C_6  and  C_8
REMARK    4  A    between atoms: C_17  and  C_19
REMARK    5  A    between atoms: C_19  and  N_20
REMARK    6  A    between atoms: N_20  and  C_21
REMARK    7  A    between atoms: N_20  and  C_31
REMARK    8  A    between atoms: C_21  and  C_22
REMARK    9  A    between atoms: C_22  and  C_24
REMARK   10  A    between atoms: C_22  and  O_30
REMARK   11  A    between atoms: C_24  and  O_25
REMARK   12  A    between atoms: O_25  and  C_26
REMARK   13  A    between atoms: C_26  and  C_27
REMARK   14  A    between atoms: C_27  and  C_28
REMARK   15  A    between atoms: C_27  and  C_29
REMARK                            x       y       z     vdW  Elec       q    Type
REMARK                         _______ _______ _______ _____ _____    ______ ____
ROOT
ATOM      1  C   UNL     1       0.002  -2.008   3.917  0.00  0.00    +0.004 A 
ATOM      2  C   UNL     1      -0.818  -1.953   4.994  0.00  0.00    +0.056 A 
ATOM      3  S   UNL     1      -0.149  -3.192   6.086  0.00  0.00    -0.076 S 
ATOM      4  C   UNL     1       1.203  -3.750   5.081  0.00  0.00    +0.116 A 
ATOM      5  C   UNL     1       1.101  -2.967   3.920  0.00  0.00    +0.080 A 
ATOM      6  C   UNL     1       2.088  -3.217   2.914  0.00  0.00    +0.260 A 
ATOM      7  O   UNL     1       2.084  -2.584   1.873  0.00  0.00    -0.267 OA
ATOM      8  N   UNL     1       3.020  -4.162   3.136  0.00  0.00    -0.312 N 
ATOM      9  H   UNL     1       3.692  -4.336   2.458  0.00  0.00    +0.170 HD
ATOM     10  C   UNL     1       3.039  -4.877   4.291  0.00  0.00    +0.094 A 
ATOM     11  N   UNL     1       2.158  -4.665   5.231  0.00  0.00    -0.229 NA
ENDROOT
BRANCH   1  17
ATOM     12  C   UNL     1      -0.118   2.582   1.957  0.00  0.00    +0.044 C 
ATOM     13  C   UNL     1      -0.276   1.090   1.808  0.00  0.00    -0.050 A 
ATOM     14  C   UNL     1      -0.628   0.552   0.582  0.00  0.00    +0.003 A 
ATOM     15  C   UNL     1      -0.775  -0.815   0.438  0.00  0.00    +0.004 A 
ATOM     16  C   UNL     1      -0.572  -1.652   1.517  0.00  0.00    -0.043 A 
ATOM     17  C   UNL     1      -0.217  -1.115   2.754  0.00  0.00    -0.013 A 
ATOM     18  C   UNL     1      -0.065   0.264   2.892  0.00  0.00    +0.012 A 
ATOM     19  C   UNL     1      -0.733  -3.142   1.358  0.00  0.00    +0.044 C 
ENDBRANCH   1  17
BRANCH  10  20
ATOM     20  C   UNL     1       4.103  -5.925   4.495  0.00  0.00    -0.003 C 
BRANCH  20  21
ATOM     21  N   UNL     1       3.827  -6.667   5.733  0.00  0.00    +0.388 N 
ATOM     22  H   UNL     1       3.454  -6.037   6.427  0.00  0.00    -0.081 HD
BRANCH  21  23
ATOM     23  C   UNL     1       2.850  -7.729   5.460  0.00  0.00    -0.068 C 
ATOM     24  C   UNL     1       3.448  -8.730   4.470  0.00  0.00    -0.015 C 
ATOM     25  C   UNL     1       2.430  -9.836   4.186  0.00  0.00    -0.002 C 
ATOM     26  C   UNL     1       1.163  -9.222   3.587  0.00  0.00    -0.000 C 
ATOM     27  C   UNL     1       0.565  -8.221   4.577  0.00  0.00    -0.002 C 
ATOM     28  C   UNL     1       1.583  -7.114   4.861  0.00  0.00    -0.015 C 
ENDBRANCH  21  23
BRANCH  21  29
ATOM     29  C   UNL     1       5.072  -7.264   6.233  0.00  0.00    -0.044 C 
BRANCH  29  30
ATOM     30  C   UNL     1       4.824  -7.883   7.610  0.00  0.00    +0.124 C 
BRANCH  30  31
ATOM     31  O   UNL     1       3.951  -9.007   7.476  0.00  0.00    -0.391 OA
ATOM     32  H   UNL     1       4.329  -9.741   6.972  0.00  0.00    +0.210 HD
ENDBRANCH  30  31
BRANCH  30  33
ATOM     33  C   UNL     1       6.155  -8.340   8.211  0.00  0.00    +0.189 C 
BRANCH  33  34
ATOM     34  O   UNL     1       5.939  -8.811   9.543  0.00  0.00    -0.377 OA
BRANCH  34  35
ATOM     35  C   UNL     1       7.125  -9.264  10.199  0.00  0.00    +0.163 C 
BRANCH  35  36
ATOM     36  C   UNL     1       6.776  -9.743  11.610  0.00  0.00    +0.009 C 
ATOM     37  C   UNL     1       5.869 -10.971  11.522  0.00  0.00    +0.009 C 
ATOM     38  C   UNL     1       8.061 -10.110  12.356  0.00  0.00    +0.009 C 
ENDBRANCH  35  36
ENDBRANCH  34  35
ENDBRANCH  33  34
ENDBRANCH  30  33
ENDBRANCH  29  30
ENDBRANCH  21  29
ENDBRANCH  20  21
ENDBRANCH  10  20
TORSDOF 11
