REMARK  Name = ZINC39231246
REMARK  3 active torsions:
REMARK  status: ('A' for Active; 'I' for Inactive)
REMARK    1  A    between atoms: C_4  and  C_7
REMARK    2  A    between atoms: C_17  and  C_20
REMARK    3  A    between atoms: N_32  and  C_33
REMARK                            x       y       z     vdW  Elec       q    Type
REMARK                         _______ _______ _______ _____ _____    ______ ____
ROOT
ATOM      1  C   UNL     1       4.213  -3.452  -0.129  0.00  0.00    -0.023 C 
ATOM      2  C   UNL     1       5.225  -2.311  -0.281  0.00  0.00    +0.095 C 
ATOM      3  N   UNL     1       5.098  -1.753  -1.636  0.00  0.00    -0.318 N 
ATOM      4  C   UNL     1       3.756  -1.383  -2.111  0.00  0.00    +0.087 C 
ATOM      5  C   UNL     1       2.813  -2.567  -1.872  0.00  0.00    -0.062 C 
ATOM      6  N   UNL     1       2.869  -2.960  -0.458  0.00  0.00    +0.386 N 
ATOM      7  C   UNL     1       6.211  -1.580  -2.441  0.00  0.00    +0.121 A 
ATOM      8  C   UNL     1       7.469  -1.940  -1.962  0.00  0.00    +0.044 A 
ATOM      9  C   UNL     1       8.567  -1.768  -2.760  0.00  0.00    +0.018 A 
ATOM     10  C   UNL     1       8.383  -1.230  -4.044  0.00  0.00    +0.055 A 
ATOM     11  C   UNL     1       7.094  -0.892  -4.459  0.00  0.00    +0.126 A 
ATOM     12  N   UNL     1       6.064  -1.080  -3.660  0.00  0.00    -0.240 NA
ATOM     13  H   UNL     1       2.193  -3.689  -0.286  0.00  0.00    -0.085 HD
ATOM     14  H   UNL     1       2.653  -2.161   0.119  0.00  0.00    -0.085 HD
ENDROOT
BRANCH  10  15
ATOM     15  C   UNL     1       9.536  -1.026  -4.941  0.00  0.00    +0.248 C 
ATOM     16  O   UNL     1       9.558  -0.072  -5.695  0.00  0.00    -0.270 OA
ATOM     17  N   UNL     1      10.565  -1.896  -4.926  0.00  0.00    -0.297 N 
ATOM     18  C   UNL     1      10.503  -3.114  -4.107  0.00  0.00    +0.110 C 
ATOM     19  C   UNL     1      10.784  -4.325  -5.003  0.00  0.00    +0.054 C 
ATOM     20  C   UNL     1      12.112  -4.118  -5.733  0.00  0.00    +0.115 C 
ATOM     21  C   UNL     1      12.041  -2.867  -6.609  0.00  0.00    +0.054 C 
ATOM     22  C   UNL     1      11.768  -1.647  -5.732  0.00  0.00    +0.110 C 
ATOM     23  C   UNL     1      12.431  -5.323  -6.578  0.00  0.00    +0.238 C 
ATOM     24  O   UNL     1      11.751  -5.742  -7.491  0.00  0.00    -0.273 OA
ATOM     25  N   UNL     1      13.589  -5.860  -6.158  0.00  0.00    -0.298 N 
ATOM     26  C   UNL     1      14.127  -5.090  -5.037  0.00  0.00    +0.214 C 
ATOM     27  N   UNL     1      13.202  -3.985  -4.758  0.00  0.00    -0.300 N 
ATOM     28  H   UNL     1      14.007  -6.646  -6.543  0.00  0.00    +0.150 HD
BRANCH  27  29
ATOM     29  C   UNL     1      13.332  -3.007  -3.769  0.00  0.00    +0.032 A 
ATOM     30  C   UNL     1      12.408  -1.973  -3.687  0.00  0.00    +0.023 A 
ATOM     31  C   UNL     1      12.540  -1.008  -2.708  0.00  0.00    +0.002 A 
ATOM     32  C   UNL     1      13.590  -1.070  -1.810  0.00  0.00    +0.000 A 
ATOM     33  C   UNL     1      14.512  -2.098  -1.890  0.00  0.00    +0.002 A 
ATOM     34  C   UNL     1      14.383  -3.069  -2.863  0.00  0.00    +0.023 A 
ENDBRANCH  27  29
ENDBRANCH  10  15
BRANCH   1  38
ATOM     35  C   UNL     1       4.262  -4.870   3.901  0.00  0.00    +0.000 A 
ATOM     36  C   UNL     1       4.943  -5.561   2.916  0.00  0.00    +0.000 A 
ATOM     37  C   UNL     1       4.927  -5.102   1.612  0.00  0.00    +0.002 A 
ATOM     38  C   UNL     1       4.229  -3.952   1.293  0.00  0.00    -0.060 A 
ATOM     39  C   UNL     1       3.548  -3.261   2.277  0.00  0.00    +0.002 A 
ATOM     40  C   UNL     1       3.565  -3.720   3.581  0.00  0.00    +0.000 A 
ENDBRANCH   1  38
TORSDOF 3
