REMARK  Name = ZINC38915055
REMARK  13 active torsions:
REMARK  status: ('A' for Active; 'I' for Inactive)
REMARK    1  A    between atoms: C_1  and  C_2
REMARK    2  A    between atoms: C_8  and  C_14
REMARK    3  A    between atoms: C_14  and  N_15
REMARK    4  A    between atoms: N_15  and  C_16
REMARK    5  A    between atoms: C_19  and  O_22
REMARK    6  A    between atoms: O_22  and  C_23
REMARK    7  A    between atoms: C_24  and  C_26
REMARK    8  A    between atoms: C_28  and  O_36
REMARK    9  A    between atoms: C_29  and  O_34
REMARK   10  A    between atoms: C_30  and  O_32
REMARK   11  A    between atoms: O_32  and  C_33
REMARK   12  A    between atoms: O_34  and  C_35
REMARK   13  A    between atoms: O_36  and  C_37
REMARK                            x       y       z     vdW  Elec       q    Type
REMARK                         _______ _______ _______ _____ _____    ______ ____
ROOT
ATOM      1  N   UNL     1      -0.526  -1.819   6.209  0.00  0.00    -0.266 N 
ATOM      2  C   UNL     1       0.452  -2.508   6.829  0.00  0.00    +0.251 C 
ATOM      3  O   UNL     1       1.144  -1.962   7.666  0.00  0.00    -0.270 OA
ENDROOT
BRANCH   1   4
ATOM      4  C   UNL     1      -0.853  -0.527   6.640  0.00  0.00    +0.037 A 
ATOM      5  C   UNL     1      -1.966   0.119   6.116  0.00  0.00    +0.027 A 
ATOM      6  C   UNL     1      -2.288   1.392   6.541  0.00  0.00    +0.047 A 
ATOM      7  C   UNL     1      -1.500   2.027   7.491  0.00  0.00    +0.120 A 
ATOM      8  C   UNL     1      -0.389   1.382   8.014  0.00  0.00    +0.047 A 
ATOM      9  C   UNL     1      -0.069   0.106   7.595  0.00  0.00    +0.027 A 
BRANCH   7  10
ATOM     10  O   UNL     1      -1.818   3.281   7.909  0.00  0.00    -0.495 OA
ATOM     11  C   UNL     1      -0.904   3.917   8.805  0.00  0.00    +0.277 C 
ENDBRANCH   7  10
ENDBRANCH   1   4
BRANCH   2  12
ATOM     12  C   UNL     1       0.684  -3.926   6.491  0.00  0.00    +0.044 A 
ATOM     13  C   UNL     1       0.544  -4.363   5.171  0.00  0.00    +0.062 A 
ATOM     14  C   UNL     1       0.761  -5.691   4.857  0.00  0.00    +0.166 A 
ATOM     15  C   UNL     1       1.121  -6.594   5.854  0.00  0.00    +0.204 A 
ATOM     16  C   UNL     1       1.261  -6.161   7.170  0.00  0.00    +0.166 A 
ATOM     17  C   UNL     1       1.050  -4.833   7.489  0.00  0.00    +0.062 A 
BRANCH  16  18
ATOM     18  O   UNL     1       1.612  -7.045   8.143  0.00  0.00    -0.491 OA
ATOM     19  C   UNL     1       1.738  -6.533   9.470  0.00  0.00    +0.277 C 
ENDBRANCH  16  18
BRANCH  15  20
ATOM     20  O   UNL     1       1.334  -7.899   5.543  0.00  0.00    -0.488 OA
ATOM     21  C   UNL     1       2.665  -8.271   5.180  0.00  0.00    +0.277 C 
ENDBRANCH  15  20
BRANCH  14  22
ATOM     22  O   UNL     1       0.624  -6.117   3.573  0.00  0.00    -0.491 OA
ATOM     23  C   UNL     1       0.097  -5.180   2.631  0.00  0.00    +0.277 C 
ENDBRANCH  14  22
ENDBRANCH   2  12
BRANCH   1  24
ATOM     24  C   UNL     1      -1.248  -2.422   5.086  0.00  0.00    +0.131 C 
BRANCH  24  32
ATOM     25  C   UNL     1      -2.087   2.490   1.501  0.00  0.00    +0.045 C 
ATOM     26  C   UNL     1      -2.390   1.030   1.280  0.00  0.00    -0.029 A 
ATOM     27  C   UNL     1      -3.222   0.659   0.272  0.00  0.00    +0.005 A 
ATOM     28  C   UNL     1      -3.543  -0.673   0.013  0.00  0.00    +0.001 A 
ATOM     29  C   UNL     1      -3.033  -1.683   0.765  0.00  0.00    +0.009 A 
ATOM     30  C   UNL     1      -2.129  -1.354   1.868  0.00  0.00    -0.007 A 
ATOM     31  C   UNL     1      -1.594  -2.334   2.649  0.00  0.00    -0.003 C 
ATOM     32  C   UNL     1      -0.667  -1.902   3.769  0.00  0.00    +0.116 C 
ATOM     33  C   UNL     1      -0.413  -0.420   3.928  0.00  0.00    +0.226 C 
ATOM     34  O   UNL     1       0.322  -0.018   4.810  0.00  0.00    -0.275 OA
ATOM     35  N   UNL     1      -0.993   0.437   3.104  0.00  0.00    -0.284 N 
ATOM     36  C   UNL     1      -1.804   0.061   2.115  0.00  0.00    +0.043 A 
ATOM     37  H   UNL     1      -0.817   1.383   3.223  0.00  0.00    +0.155 HD
ENDBRANCH  24  32
ENDBRANCH   1  24
TORSDOF 8
