REMARK  Name = ZINC39327492
REMARK  5 active torsions:
REMARK  status: ('A' for Active; 'I' for Inactive)
REMARK    1  A    between atoms: C_1  and  N_2
REMARK    2  A    between atoms: N_2  and  C_11
REMARK    3  A    between atoms: N_14  and  C_17
REMARK    4  A    between atoms: N_26  and  C_27
REMARK    5  A    between atoms: C_27  and  C_28
REMARK                            x       y       z     vdW  Elec       q    Type
REMARK                         _______ _______ _______ _____ _____    ______ ____
ROOT
ATOM      1  C   UNL     1      -0.029  -1.231  -5.517  0.00  0.00    +0.236 C 
ATOM      2  N   UNL     1      -0.242  -2.682  -5.468  0.00  0.00    -0.312 N 
ATOM      3  C   UNL     1      -1.426  -2.954  -6.168  0.00  0.00    +0.051 A 
ATOM      4  C   UNL     1      -2.070  -4.160  -6.418  0.00  0.00    +0.025 A 
ATOM      5  C   UNL     1      -3.245  -4.182  -7.144  0.00  0.00    +0.002 A 
ATOM      6  C   UNL     1      -3.785  -3.004  -7.626  0.00  0.00    +0.002 A 
ATOM      7  C   UNL     1      -3.152  -1.800  -7.382  0.00  0.00    +0.025 A 
ATOM      8  C   UNL     1      -1.970  -1.768  -6.652  0.00  0.00    +0.054 A 
ATOM      9  N   UNL     1      -1.156  -0.686  -6.284  0.00  0.00    -0.293 N 
ATOM     10  H   UNL     1       0.331  -3.333  -5.033  0.00  0.00    +0.149 HD
ENDROOT
BRANCH   1  14
ATOM     11  C   UNL     1      -0.000  -0.730  -1.271  0.00  0.00    +0.078 C 
ATOM     12  C   UNL     1      -1.258  -0.367  -2.064  0.00  0.00    +0.038 C 
ATOM     13  C   UNL     1      -1.225  -1.081  -3.418  0.00  0.00    +0.089 C 
ATOM     14  N   UNL     1      -0.024  -0.673  -4.158  0.00  0.00    -0.269 NA
ATOM     15  C   UNL     1       1.198  -1.054  -3.437  0.00  0.00    +0.089 C 
ATOM     16  C   UNL     1       1.237  -0.339  -2.084  0.00  0.00    +0.038 C 
BRANCH  11  18
ATOM     17  C   UNL     1      -0.018   1.461   0.010  0.00  0.00    +0.132 C 
ATOM     18  N   UNL     1       0.002  -0.004   0.002  0.00  0.00    -0.301 N 
ATOM     19  C   UNL     1       0.023  -0.695   1.184  0.00  0.00    +0.198 A 
ATOM     20  N   UNL     1       0.019  -0.009   2.359  0.00  0.00    -0.295 N 
ATOM     21  H   UNL     1       0.002   0.961   2.357  0.00  0.00    +0.172 HD
ATOM     22  C   UNL     1       0.039  -0.684   3.529  0.00  0.00    +0.253 A 
ATOM     23  O   UNL     1       0.035  -0.085   4.591  0.00  0.00    -0.268 OA
ATOM     24  C   UNL     1       0.063  -2.089   3.498  0.00  0.00    +0.090 A 
ATOM     25  C   UNL     1       0.066  -2.723   2.289  0.00  0.00    +0.119 A 
ATOM     26  N   UNL     1       0.040  -2.013   1.163  0.00  0.00    -0.224 NA
ENDBRANCH  11  18
ENDBRANCH   1  14
BRANCH   9  27
ATOM     27  C   UNL     1      -1.387   0.725  -6.603  0.00  0.00    +0.143 C 
BRANCH  27  28
ATOM     28  C   UNL     1      -0.721   1.059  -7.913  0.00  0.00    -0.030 A 
ATOM     29  C   UNL     1       0.588   1.503  -7.929  0.00  0.00    +0.008 A 
ATOM     30  C   UNL     1       1.199   1.809  -9.130  0.00  0.00    +0.038 A 
ATOM     31  C   UNL     1       0.500   1.671 -10.318  0.00  0.00    +0.123 A 
ATOM     32  C   UNL     1      -0.810   1.226 -10.300  0.00  0.00    +0.038 A 
ATOM     33  C   UNL     1      -1.418   0.915  -9.099  0.00  0.00    +0.008 A 
ATOM     34  F   UNL     1       1.097   1.970 -11.492  0.00  0.00    -0.205 F 
ENDBRANCH  27  28
ENDBRANCH   9  27
TORSDOF 4
