REMARK  Name = ZINC24797152
REMARK  8 active torsions:
REMARK  status: ('A' for Active; 'I' for Inactive)
REMARK    1  A    between atoms: C_1  and  C_2
REMARK    2  A    between atoms: C_2  and  C_4
REMARK    3  A    between atoms: C_2  and  N_30
REMARK    4  A    between atoms: C_7  and  S_16
REMARK    5  A    between atoms: N_8  and  C_9
REMARK    6  A    between atoms: S_16  and  C_17
REMARK    7  A    between atoms: C_17  and  C_18
REMARK    8  A    between atoms: C_21  and  C_23
REMARK                            x       y       z     vdW  Elec       q    Type
REMARK                         _______ _______ _______ _____ _____    ______ ____
ROOT
ATOM      1  C   UNL     1       1.399  -0.406  -0.204  0.00  0.00    +0.125 A 
ATOM      2  N   UNL     1       0.228   0.164  -0.233  0.00  0.00    -0.135 NA
ATOM      3  N   UNL     1       0.357   1.432  -0.403  0.00  0.00    -0.122 NA
ATOM      4  C   UNL     1       1.629   1.744  -0.492  0.00  0.00    +0.196 A 
ATOM      5  N   UNL     1       2.336   0.579  -0.369  0.00  0.00    -0.275 N 
ENDROOT
BRANCH   5   6
ATOM      6  C   UNL     1       3.730   0.426  -0.403  0.00  0.00    +0.050 A 
ATOM      7  C   UNL     1       4.410  -0.005   0.729  0.00  0.00    +0.029 A 
ATOM      8  C   UNL     1       5.782  -0.159   0.692  0.00  0.00    +0.040 A 
ATOM      9  C   UNL     1       6.481   0.126  -0.469  0.00  0.00    +0.124 A 
ATOM     10  C   UNL     1       5.805   0.560  -1.597  0.00  0.00    +0.040 A 
ATOM     11  C   UNL     1       4.433   0.711  -1.565  0.00  0.00    +0.029 A 
ATOM     12  F   UNL     1       7.823  -0.021  -0.502  0.00  0.00    -0.205 F 
ENDBRANCH   5   6
BRANCH   1  14
ATOM     13  C   UNL     1       1.405  -2.271   1.430  0.00  0.00    -0.005 C 
ATOM     14  C   UNL     1       1.672  -1.877  -0.024  0.00  0.00    -0.002 C 
BRANCH  14  15
ATOM     15  N   UNL     1       0.791  -2.651  -0.910  0.00  0.00    +0.386 N 
ATOM     16  C   UNL     1       1.049  -4.091  -0.782  0.00  0.00    -0.078 C 
ATOM     17  C   UNL     1       0.021  -4.870  -1.605  0.00  0.00    -0.019 C 
ATOM     18  C   UNL     1       0.120  -4.443  -3.073  0.00  0.00    -0.004 C 
ATOM     19  C   UNL     1      -0.104  -2.932  -3.173  0.00  0.00    -0.019 C 
ATOM     20  C   UNL     1       0.928  -2.209  -2.304  0.00  0.00    -0.078 C 
ATOM     21  H   UNL     1      -0.248  -2.467  -0.601  0.00  0.00    -0.081 HD
ENDBRANCH  14  15
ENDBRANCH   1  14
BRANCH   4  22
ATOM     22  S   UNL     1       2.299   3.356  -0.728  0.00  0.00    -0.079 S 
BRANCH  22  23
ATOM     23  C   UNL     1       0.771   4.324  -0.794  0.00  0.00    +0.136 C 
BRANCH  23  24
ATOM     24  C   UNL     1       1.107   5.780  -0.996  0.00  0.00    +0.090 A 
ATOM     25  C   UNL     1       1.320   6.686  -0.024  0.00  0.00    +0.221 A 
ATOM     26  O   UNL     1       1.593   7.861  -0.626  0.00  0.00    -0.443 OA
ATOM     27  C   UNL     1       1.535   7.663  -1.954  0.00  0.00    +0.227 A 
ATOM     28  N   UNL     1       1.240   6.403  -2.176  0.00  0.00    -0.213 NA
BRANCH  27  29
ATOM     29  C   UNL     1       1.764   8.691  -2.991  0.00  0.00    +0.037 A 
ATOM     30  C   UNL     1       1.679   8.354  -4.343  0.00  0.00    +0.016 A 
ATOM     31  C   UNL     1       1.888   9.319  -5.306  0.00  0.00    +0.039 A 
ATOM     32  C   UNL     1       2.193  10.619  -4.933  0.00  0.00    +0.123 A 
ATOM     33  C   UNL     1       2.284  10.958  -3.592  0.00  0.00    +0.039 A 
ATOM     34  C   UNL     1       2.071  10.002  -2.621  0.00  0.00    +0.016 A 
ATOM     35  F   UNL     1       2.403  11.559  -5.880  0.00  0.00    -0.205 F 
ENDBRANCH  27  29
ENDBRANCH  23  24
ENDBRANCH  22  23
ENDBRANCH   4  22
TORSDOF 7
