REMARK  Name = ZINC65376035
REMARK  8 active torsions:
REMARK  status: ('A' for Active; 'I' for Inactive)
REMARK    1  A    between atoms: C_1  and  C_2
REMARK    2  A    between atoms: C_7  and  C_8
REMARK    3  A    between atoms: C_10  and  C_13
REMARK    4  A    between atoms: C_13  and  N_14
REMARK    5  A    between atoms: N_14  and  C_15
REMARK    6  A    between atoms: C_15  and  C_16
REMARK    7  A    between atoms: C_16  and  C_17
REMARK    8  A    between atoms: C_22  and  C_26
REMARK                            x       y       z     vdW  Elec       q    Type
REMARK                         _______ _______ _______ _____ _____    ______ ____
ROOT
ATOM      1  N   UNL     1       1.370  -0.059   6.640  0.00  0.00    +0.385 N 
ATOM      2  H   UNL     1       1.944  -0.711   6.127  0.00  0.00    -0.085 HD
ATOM      3  H   UNL     1       1.697   0.881   6.474  0.00  0.00    -0.085 HD
ENDROOT
BRANCH   1   4
ATOM      4  C   UNL     1      -0.025  -0.178   6.195  0.00  0.00    +0.018 C 
BRANCH   4   7
ATOM      5  C   UNL     1      -0.122  -0.120   2.567  0.00  0.00    +0.202 A 
ATOM      6  N   UNL     1       0.006  -0.736   3.756  0.00  0.00    -0.193 NA
ATOM      7  C   UNL     1      -0.110   0.129   4.722  0.00  0.00    +0.211 A 
ATOM      8  O   UNL     1      -0.317   1.339   4.186  0.00  0.00    -0.340 OA
ATOM      9  N   UNL     1      -0.316   1.159   2.777  0.00  0.00    -0.056 NA
BRANCH   5  16
ATOM     10  C   UNL     1       2.011  -1.993   2.010  0.00  0.00    +0.044 C 
ATOM     11  C   UNL     1       0.975  -1.681   0.961  0.00  0.00    -0.040 A 
ATOM     12  C   UNL     1       1.035  -2.294  -0.274  0.00  0.00    +0.004 A 
ATOM     13  C   UNL     1       0.085  -2.008  -1.238  0.00  0.00    +0.000 A 
ATOM     14  C   UNL     1      -0.930  -1.107  -0.970  0.00  0.00    +0.001 A 
ATOM     15  C   UNL     1      -1.000  -0.489   0.262  0.00  0.00    +0.012 A 
ATOM     16  C   UNL     1      -0.048  -0.777   1.238  0.00  0.00    +0.025 A 
ENDBRANCH   5  16
ENDBRANCH   4   7
ENDBRANCH   1   4
BRANCH   1  17
ATOM     17  C   UNL     1       1.453  -0.359   8.076  0.00  0.00    -0.078 C 
BRANCH  17  18
ATOM     18  C   UNL     1       2.905  -0.234   8.540  0.00  0.00    +0.014 C 
BRANCH  18  19
ATOM     19  C   UNL     1       2.990  -0.542  10.013  0.00  0.00    -0.043 C 
ATOM     20  C   UNL     1       3.296  -1.732  10.579  0.00  0.00    -0.001 A 
ATOM     21  C   UNL     1       3.627  -3.045  10.014  0.00  0.00    +0.010 A 
ATOM     22  C   UNL     1       3.892  -4.072  10.854  0.00  0.00    +0.001 A 
ATOM     23  C   UNL     1       3.858  -3.914  12.246  0.00  0.00    +0.005 A 
ATOM     24  C   UNL     1       3.562  -2.738  12.839  0.00  0.00    -0.027 A 
ATOM     25  C   UNL     1       3.267  -1.590  12.052  0.00  0.00    +0.046 A 
ATOM     26  N   UNL     1       2.956  -0.361  12.384  0.00  0.00    -0.380 N 
ATOM     27  C   UNL     1       2.757   0.419  11.157  0.00  0.00    +0.144 C 
ATOM     28  C   UNL     1       3.543  -2.640  14.342  0.00  0.00    +0.046 C 
ATOM     29  H   UNL     1       2.874  -0.022  13.290  0.00  0.00    +0.160 HD
ENDBRANCH  18  19
ENDBRANCH  17  18
ENDBRANCH   1  17
TORSDOF 6
