REMARK  Name = ZINC08821790
REMARK  13 active torsions:
REMARK  status: ('A' for Active; 'I' for Inactive)
REMARK    1  A    between atoms: C_1  and  C_2
REMARK    2  A    between atoms: C_2  and  C_3
REMARK    3  A    between atoms: C_3  and  C_4
REMARK    4  A    between atoms: C_4  and  C_5
REMARK    5  A    between atoms: C_8  and  N_11
REMARK    6  A    between atoms: N_11  and  C_12
REMARK    7  A    between atoms: C_17  and  C_18
REMARK    8  A    between atoms: C_21  and  O_27
REMARK    9  A    between atoms: C_22  and  O_24
REMARK   10  A    between atoms: O_24  and  C_25
REMARK   11  A    between atoms: C_25  and  C_26
REMARK   12  A    between atoms: O_27  and  C_28
REMARK   13  A    between atoms: C_28  and  C_29
REMARK                            x       y       z     vdW  Elec       q    Type
REMARK                         _______ _______ _______ _____ _____    ______ ____
ROOT
ATOM      1  C   UNL     1      -6.997  -4.983  -1.207  0.00  0.00    +0.175 C 
ATOM      2  N   UNL     1      -6.685  -4.530  -2.412  0.00  0.00    -0.152 NA
ATOM      3  C   UNL     1      -7.572  -4.424  -3.377  0.00  0.00    +0.276 C 
ATOM      4  O   UNL     1      -7.272  -4.006  -4.484  0.00  0.00    -0.267 OA
ATOM      5  C   UNL     1      -8.955  -4.841  -3.047  0.00  0.00    +0.079 C 
ATOM      6  C   UNL     1     -10.069  -4.846  -3.821  0.00  0.00    +0.028 C 
ATOM      7  S   UNL     1      -8.742  -5.340  -1.343  0.00  0.00    -0.050 S 
ENDROOT
BRANCH   6   8
ATOM      8  C   UNL     1     -11.376  -5.152  -3.226  0.00  0.00    -0.020 A 
ATOM      9  C   UNL     1     -11.507  -5.259  -1.836  0.00  0.00    +0.012 A 
ATOM     10  C   UNL     1     -12.734  -5.545  -1.280  0.00  0.00    +0.050 A 
ATOM     11  C   UNL     1     -13.843  -5.730  -2.095  0.00  0.00    +0.162 A 
ATOM     12  C   UNL     1     -13.722  -5.626  -3.480  0.00  0.00    +0.162 A 
ATOM     13  C   UNL     1     -12.497  -5.333  -4.046  0.00  0.00    +0.057 A 
BRANCH  12  14
ATOM     14  O   UNL     1     -14.811  -5.809  -4.273  0.00  0.00    -0.489 OA
BRANCH  14  15
ATOM     15  C   UNL     1     -14.614  -5.688  -5.684  0.00  0.00    +0.226 C 
ATOM     16  C   UNL     1     -15.942  -5.924  -6.406  0.00  0.00    +0.048 C 
ENDBRANCH  14  15
ENDBRANCH  12  14
BRANCH  11  17
ATOM     17  O   UNL     1     -15.051  -6.013  -1.540  0.00  0.00    -0.484 OA
BRANCH  17  18
ATOM     18  C   UNL     1     -15.105  -6.105  -0.115  0.00  0.00    +0.266 C 
BRANCH  18  19
ATOM     19  C   UNL     1     -16.514  -6.423   0.315  0.00  0.00    +0.008 A 
ATOM     20  C   UNL     1     -17.507  -6.582  -0.634  0.00  0.00    +0.008 A 
ATOM     21  C   UNL     1     -18.799  -6.873  -0.240  0.00  0.00    +0.000 A 
ATOM     22  C   UNL     1     -19.099  -7.006   1.103  0.00  0.00    +0.001 A 
ATOM     23  C   UNL     1     -18.108  -6.848   2.052  0.00  0.00    +0.020 A 
ATOM     24  C   UNL     1     -16.812  -6.562   1.658  0.00  0.00    +0.047 A 
ATOM     25 CL   UNL     1     -15.565  -6.370   2.849  0.00  0.00    -0.083 Cl
ENDBRANCH  18  19
ENDBRANCH  17  18
ENDBRANCH  11  17
ENDBRANCH   6   8
BRANCH   1  26
ATOM     26  N   UNL     1      -6.178  -5.143  -0.120  0.00  0.00    -0.192 NA
BRANCH  26  30
ATOM     27  C   UNL     1      -2.332  -3.544  -0.156  0.00  0.00    -0.047 A 
ATOM     28  C   UNL     1      -3.313  -3.000  -0.965  0.00  0.00    +0.005 A 
ATOM     29  C   UNL     1      -4.589  -3.528  -0.955  0.00  0.00    +0.025 A 
ATOM     30  C   UNL     1      -4.887  -4.607  -0.133  0.00  0.00    +0.056 A 
ATOM     31  C   UNL     1      -3.899  -5.151   0.678  0.00  0.00    +0.025 A 
ATOM     32  C   UNL     1      -2.623  -4.622   0.660  0.00  0.00    +0.005 A 
BRANCH  27  33
ATOM     33  C   UNL     1      -0.941  -2.965  -0.169  0.00  0.00    +0.035 C 
BRANCH  33  34
ATOM     34  C   UNL     1      -0.104  -3.673  -1.236  0.00  0.00    +0.004 C 
BRANCH  34  36
ATOM     35  C   UNL     1       2.146  -3.793  -2.317  0.00  0.00    +0.004 C 
ATOM     36  C   UNL     1       1.309  -3.085  -1.249  0.00  0.00    -0.003 C 
ENDBRANCH  34  36
ENDBRANCH  33  34
ENDBRANCH  27  33
ENDBRANCH  26  30
ENDBRANCH   1  26
TORSDOF 11
