REMARK  Name = ZINC11416090
REMARK  12 active torsions:
REMARK  status: ('A' for Active; 'I' for Inactive)
REMARK    1  A    between atoms: C_1  and  C_2
REMARK    2  A    between atoms: C_2  and  C_3
REMARK    3  A    between atoms: C_6  and  C_9
REMARK    4  A    between atoms: C_9  and  N_10
REMARK    5  A    between atoms: N_10  and  C_11
REMARK    6  A    between atoms: C_12  and  C_14
REMARK    7  A    between atoms: C_14  and  S_15
REMARK    8  A    between atoms: S_15  and  C_16
REMARK    9  A    between atoms: C_19  and  C_28
REMARK   10  A    between atoms: N_20  and  C_21
REMARK   11  A    between atoms: C_28  and  C_30
REMARK   12  A    between atoms: C_28  and  N_69
REMARK                            x       y       z     vdW  Elec       q    Type
REMARK                         _______ _______ _______ _____ _____    ______ ____
ROOT
ATOM      1  C   UNL     1      -4.371   0.940  -4.840  0.00  0.00    +0.197 A 
ATOM      2  N   UNL     1      -3.997   2.101  -5.325  0.00  0.00    -0.122 NA
ATOM      3  N   UNL     1      -4.704   2.392  -6.358  0.00  0.00    -0.135 NA
ATOM      4  C   UNL     1      -5.565   1.443  -6.595  0.00  0.00    +0.125 A 
ATOM      5  N   UNL     1      -5.381   0.479  -5.639  0.00  0.00    -0.275 N 
ENDROOT
BRANCH   5   6
ATOM      6  C   UNL     1      -6.085  -0.728  -5.505  0.00  0.00    +0.050 A 
ATOM      7  C   UNL     1      -5.985  -1.703  -6.488  0.00  0.00    +0.029 A 
ATOM      8  C   UNL     1      -6.674  -2.892  -6.352  0.00  0.00    +0.040 A 
ATOM      9  C   UNL     1      -7.473  -3.107  -5.242  0.00  0.00    +0.124 A 
ATOM     10  C   UNL     1      -7.579  -2.133  -4.264  0.00  0.00    +0.040 A 
ATOM     11  C   UNL     1      -6.887  -0.945  -4.393  0.00  0.00    +0.029 A 
ATOM     12  F   UNL     1      -8.151  -4.269  -5.114  0.00  0.00    -0.205 F 
ENDBRANCH   5   6
BRANCH   4  13
ATOM     13  C   UNL     1      -6.572   1.409  -7.716  0.00  0.00    -0.002 C 
ATOM     14  C   UNL     1      -5.859   1.090  -9.032  0.00  0.00    -0.005 C 
BRANCH  13  20
ATOM     15  C   UNL     1      -7.842   3.103  -6.543  0.00  0.00    -0.078 C 
ATOM     16  C   UNL     1      -8.391   4.528  -6.647  0.00  0.00    -0.019 C 
ATOM     17  C   UNL     1      -9.431   4.588  -7.770  0.00  0.00    -0.004 C 
ATOM     18  C   UNL     1      -8.781   4.135  -9.081  0.00  0.00    -0.019 C 
ATOM     19  C   UNL     1      -8.221   2.722  -8.905  0.00  0.00    -0.078 C 
ATOM     20  N   UNL     1      -7.209   2.737  -7.828  0.00  0.00    +0.386 N 
ATOM     21  H   UNL     1      -6.491   3.434  -8.056  0.00  0.00    -0.081 HD
ENDBRANCH  13  20
ENDBRANCH   4  13
BRANCH   1  22
ATOM     22  S   UNL     1      -3.695   0.125  -3.432  0.00  0.00    -0.076 S 
BRANCH  22  23
ATOM     23  C   UNL     1      -2.437   1.331  -2.945  0.00  0.00    +0.173 C 
BRANCH  23  26
ATOM     24  N   UNL     1      -0.721   1.571  -1.179  0.00  0.00    -0.300 N 
ATOM     25  C   UNL     1      -0.357   2.860  -1.774  0.00  0.00    +0.132 C 
ATOM     26  C   UNL     1      -1.708   0.832  -1.724  0.00  0.00    +0.226 C 
ATOM     27  O   UNL     1      -2.010  -0.234  -1.231  0.00  0.00    -0.275 OA
BRANCH  24  28
ATOM     28  C   UNL     1      -0.013   1.086   0.008  0.00  0.00    +0.142 C 
BRANCH  28  32
ATOM     29  C   UNL     1      -2.012   2.463   3.523  0.00  0.00    -0.048 A 
ATOM     30  C   UNL     1      -2.366   1.254   2.955  0.00  0.00    +0.004 A 
ATOM     31  C   UNL     1      -1.719   0.808   1.818  0.00  0.00    +0.005 A 
ATOM     32  C   UNL     1      -0.718   1.572   1.248  0.00  0.00    -0.030 A 
ATOM     33  C   UNL     1      -0.360   2.779   1.819  0.00  0.00    +0.005 A 
ATOM     34  C   UNL     1      -1.010   3.227   2.953  0.00  0.00    +0.004 A 
BRANCH  29  36
ATOM     35  C   UNL     1      -1.979   2.442   6.002  0.00  0.00    +0.009 C 
ATOM     36  C   UNL     1      -2.718   2.950   4.762  0.00  0.00    +0.032 C 
ENDBRANCH  29  36
ENDBRANCH  28  32
ENDBRANCH  24  28
ENDBRANCH  23  26
ENDBRANCH  22  23
ENDBRANCH   1  22
TORSDOF 9
