REMARK  Name = ZINC21761754
REMARK  8 active torsions:
REMARK  status: ('A' for Active; 'I' for Inactive)
REMARK    1  A    between atoms: C_1  and  C_2
REMARK    2  A    between atoms: C_2  and  C_4
REMARK    3  A    between atoms: C_2  and  S_23
REMARK    4  A    between atoms: N_6  and  C_7
REMARK    5  A    between atoms: C_10  and  S_13
REMARK    6  A    between atoms: S_13  and  N_16
REMARK    7  A    between atoms: N_16  and  C_17
REMARK    8  A    between atoms: S_23  and  C_24
REMARK                            x       y       z     vdW  Elec       q    Type
REMARK                         _______ _______ _______ _____ _____    ______ ____
ROOT
ATOM      1  C   UNL     1       5.688   3.250   2.808  0.00  0.00    +0.034 A 
ATOM      2  C   UNL     1       6.015   1.915   3.009  0.00  0.00    +0.025 A 
ATOM      3  C   UNL     1       5.781   0.990   2.010  0.00  0.00    +0.031 A 
ATOM      4  C   UNL     1       5.222   1.393   0.811  0.00  0.00    +0.111 A 
ATOM      5  C   UNL     1       4.901   2.722   0.606  0.00  0.00    +0.031 A 
ATOM      6  C   UNL     1       5.127   3.650   1.603  0.00  0.00    +0.025 A 
ENDROOT
BRANCH   1   9
ATOM      7  C   UNL     1       6.981   4.043   4.641  0.00  0.00    +0.230 C 
ATOM      8  O   UNL     1       7.781   3.152   4.448  0.00  0.00    -0.274 OA
ATOM      9  N   UNL     1       5.923   4.189   3.818  0.00  0.00    -0.285 N 
ATOM     10  H   UNL     1       5.245   5.046   3.941  0.00  0.00    +0.155 HD
BRANCH   7  12
ATOM     11  C   UNL     1       7.788   6.294   5.298  0.00  0.00    +0.029 C 
ATOM     12  C   UNL     1       7.170   4.987   5.800  0.00  0.00    +0.134 C 
BRANCH  12  13
ATOM     13  S   UNL     1       8.272   4.228   7.025  0.00  0.00    -0.112 S 
BRANCH  13  14
ATOM     14  C   UNL     1       8.152   5.294   8.424  0.00  0.00    +0.023 A 
ATOM     15  C   UNL     1       7.240   6.342   8.425  0.00  0.00    +0.016 A 
ATOM     16  C   UNL     1       7.149   7.175   9.523  0.00  0.00    +0.001 A 
ATOM     17  C   UNL     1       7.965   6.966  10.620  0.00  0.00    +0.001 A 
ATOM     18  C   UNL     1       8.874   5.925  10.623  0.00  0.00    +0.016 A 
ATOM     19  C   UNL     1       8.967   5.084   9.530  0.00  0.00    +0.031 A 
ATOM     20 BR   UNL     1      10.205   3.655   9.538  0.00  0.00    -0.049 Br
ENDBRANCH  13  14
ENDBRANCH  12  13
ENDBRANCH   7  12
ENDBRANCH   1   9
BRANCH   4  21
ATOM     21  S   UNL     1       4.926   0.210  -0.461  0.00  0.00    +0.094 S 
ATOM     22  O   UNL     1       5.821  -0.869  -0.230  0.00  0.00    -0.148 OA
ATOM     23  O   UNL     1       4.900   0.929  -1.687  0.00  0.00    -0.148 OA
BRANCH  21  24
ATOM     24  N   UNL     1       3.397  -0.385  -0.230  0.00  0.00    -0.058 NA
BRANCH  24  25
ATOM     25  C   UNL     1       2.302   0.450  -0.364  0.00  0.00    +0.257 A 
ATOM     26  N   UNL     1       1.093  -0.081  -0.475  0.00  0.00    -0.220 NA
ATOM     27  C   UNL     1       0.026   0.689  -0.605  0.00  0.00    +0.116 A 
ATOM     28  C   UNL     1       0.183   2.066  -0.624  0.00  0.00    +0.039 A 
ATOM     29  C   UNL     1       1.462   2.588  -0.506  0.00  0.00    +0.116 A 
ATOM     30  N   UNL     1       2.487   1.762  -0.379  0.00  0.00    -0.220 NA
ENDBRANCH  24  25
ENDBRANCH  21  24
ENDBRANCH   4  21
TORSDOF 7
