REMARK  Name = ZINC35059906
REMARK  10 active torsions:
REMARK  status: ('A' for Active; 'I' for Inactive)
REMARK    1  A    between atoms: C_1  and  C_2
REMARK    2  A    between atoms: C_2  and  C_3
REMARK    3  A    between atoms: C_3  and  C_5
REMARK    4  A    between atoms: C_3  and  N_23
REMARK    5  A    between atoms: N_15  and  C_16
REMARK    6  A    between atoms: C_19  and  C_22
REMARK    7  A    between atoms: N_23  and  C_24
REMARK    8  A    between atoms: C_24  and  C_25
REMARK    9  A    between atoms: N_33  and  C_34
REMARK   10  A    between atoms: C_39  and  C_40
REMARK                            x       y       z     vdW  Elec       q    Type
REMARK                         _______ _______ _______ _____ _____    ______ ____
ROOT
ATOM      1  C   UNL     1      -1.460   0.285  -1.205  0.00  0.00    +0.144 C 
ENDROOT
BRANCH   1   2
ATOM      2  C   UNL     1      -1.982  -1.060  -0.771  0.00  0.00    +0.138 A 
ATOM      3  N   UNL     1      -1.240  -2.106  -0.981  0.00  0.00    -0.231 NA
ATOM      4  C   UNL     1      -1.644  -3.349  -0.618  0.00  0.00    +0.078 A 
ATOM      5  C   UNL     1      -0.846  -4.473  -0.842  0.00  0.00    +0.028 A 
ATOM      6  C   UNL     1      -1.295  -5.715  -0.457  0.00  0.00    +0.002 A 
ATOM      7  C   UNL     1      -2.534  -5.867   0.153  0.00  0.00    +0.001 A 
ATOM      8  C   UNL     1      -3.339  -4.774   0.385  0.00  0.00    +0.015 A 
ATOM      9  C   UNL     1      -2.903  -3.506   0.004  0.00  0.00    +0.065 A 
ATOM     10  C   UNL     1      -3.718  -2.304   0.227  0.00  0.00    +0.266 A 
ATOM     11  O   UNL     1      -4.812  -2.371   0.757  0.00  0.00    -0.267 OA
ATOM     12  N   UNL     1      -3.204  -1.118  -0.175  0.00  0.00    -0.263 N 
BRANCH  12  13
ATOM     13  C   UNL     1      -3.938   0.059   0.019  0.00  0.00    +0.051 A 
ATOM     14  C   UNL     1      -5.050   0.323  -0.769  0.00  0.00    +0.026 A 
ATOM     15  C   UNL     1      -5.772   1.484  -0.575  0.00  0.00    +0.005 A 
ATOM     16  C   UNL     1      -5.388   2.383   0.402  0.00  0.00    -0.050 A 
ATOM     17  C   UNL     1      -4.281   2.124   1.188  0.00  0.00    +0.005 A 
ATOM     18  C   UNL     1      -3.558   0.962   1.003  0.00  0.00    +0.026 A 
ATOM     19  C   UNL     1      -6.178   3.650   0.611  0.00  0.00    +0.044 C 
ENDBRANCH  12  13
ENDBRANCH   1   2
BRANCH   1  20
ATOM     20  N   UNL     1      -2.155   0.709  -2.423  0.00  0.00    -0.271 N 
ATOM     21  C   UNL     1      -2.820   1.881  -2.447  0.00  0.00    +0.307 C 
ATOM     22  O   UNL     1      -2.843   2.587  -1.458  0.00  0.00    -0.252 OA
ATOM     23  N   UNL     1      -3.458   2.270  -3.568  0.00  0.00    -0.269 N 
ATOM     24  H   UNL     1      -3.509   1.672  -4.330  0.00  0.00    +0.156 HD
BRANCH  23  25
ATOM     25  C   UNL     1      -4.049   3.538  -3.633  0.00  0.00    +0.038 A 
ATOM     26  C   UNL     1      -3.589   4.562  -2.816  0.00  0.00    +0.023 A 
ATOM     27  C   UNL     1      -4.173   5.811  -2.882  0.00  0.00    +0.002 A 
ATOM     28  C   UNL     1      -5.216   6.043  -3.760  0.00  0.00    +0.000 A 
ATOM     29  C   UNL     1      -5.677   5.025  -4.575  0.00  0.00    +0.005 A 
ATOM     30  C   UNL     1      -5.093   3.775  -4.517  0.00  0.00    -0.029 A 
ATOM     31  C   UNL     1      -5.591   2.667  -5.410  0.00  0.00    +0.045 C 
ENDBRANCH  23  25
BRANCH  20  32
ATOM     32  C   UNL     1      -2.127  -0.142  -3.615  0.00  0.00    +0.145 C 
BRANCH  32  33
ATOM     33  C   UNL     1      -3.332  -1.048  -3.615  0.00  0.00    -0.030 A 
ATOM     34  C   UNL     1      -3.222  -2.344  -3.146  0.00  0.00    +0.005 A 
ATOM     35  C   UNL     1      -4.327  -3.174  -3.146  0.00  0.00    +0.000 A 
ATOM     36  C   UNL     1      -5.542  -2.709  -3.613  0.00  0.00    +0.000 A 
ATOM     37  C   UNL     1      -5.652  -1.412  -4.081  0.00  0.00    +0.000 A 
ATOM     38  C   UNL     1      -4.548  -0.581  -4.078  0.00  0.00    +0.005 A 
ENDBRANCH  32  33
ENDBRANCH  20  32
ENDBRANCH   1  20
BRANCH   1  40
ATOM     39  C   UNL     1       0.598   1.579  -1.780  0.00  0.00    +0.006 C 
ATOM     40  C   UNL     1       0.041   0.185  -1.482  0.00  0.00    +0.027 C 
ENDBRANCH   1  40
TORSDOF 7
