REMARK  Name = ZINC38901438
REMARK  7 active torsions:
REMARK  status: ('A' for Active; 'I' for Inactive)
REMARK    1  A    between atoms: C_1  and  C_2
REMARK    2  A    between atoms: C_2  and  C_4
REMARK    3  A    between atoms: C_2  and  N_11
REMARK    4  A    between atoms: C_12  and  C_14
REMARK    5  A    between atoms: N_19  and  C_21
REMARK    6  A    between atoms: C_21  and  C_22
REMARK    7  A    between atoms: C_24  and  C_27
REMARK                            x       y       z     vdW  Elec       q    Type
REMARK                         _______ _______ _______ _____ _____    ______ ____
ROOT
ATOM      1  C   UNL     1       2.736  -1.073  -2.455  0.00  0.00    +0.058 C 
ATOM      2  C   UNL     1       2.435  -0.125  -3.619  0.00  0.00    +0.009 C 
ATOM      3  C   UNL     1       3.218  -0.583  -4.853  0.00  0.00    -0.018 C 
ATOM      4  C   UNL     1       4.710  -0.631  -4.515  0.00  0.00    -0.078 C 
ATOM      5  N   UNL     1       4.936  -1.573  -3.413  0.00  0.00    +0.386 N 
ATOM      6  C   UNL     1       4.246  -1.104  -2.205  0.00  0.00    -0.065 C 
ATOM      7  H   UNL     1       4.579  -2.482  -3.670  0.00  0.00    -0.081 HD
ENDROOT
BRANCH   1   9
ATOM      8  N   UNL     1       0.688  -0.476  -1.203  0.00  0.00    -0.309 N 
ATOM      9  C   UNL     1       2.031  -0.587  -1.215  0.00  0.00    +0.215 C 
ATOM     10  O   UNL     1       2.672  -0.295  -0.228  0.00  0.00    -0.276 OA
ATOM     11  H   UNL     1       0.175  -0.710  -1.993  0.00  0.00    +0.149 HD
BRANCH   8  13
ATOM     12  C   UNL     1      -0.019   1.526   0.010  0.00  0.00    +0.033 C 
ATOM     13  C   UNL     1       0.002  -0.004   0.002  0.00  0.00    +0.100 C 
BRANCH  13  14
ATOM     14  C   UNL     1      -1.412  -0.526   0.013  0.00  0.00    -0.027 A 
ATOM     15  C   UNL     1      -2.141  -0.569  -1.161  0.00  0.00    +0.008 A 
ATOM     16  C   UNL     1      -3.437  -1.047  -1.153  0.00  0.00    +0.038 A 
ATOM     17  C   UNL     1      -4.006  -1.484   0.032  0.00  0.00    +0.123 A 
ATOM     18  C   UNL     1      -3.275  -1.440   1.207  0.00  0.00    +0.038 A 
ATOM     19  C   UNL     1      -1.976  -0.966   1.195  0.00  0.00    +0.008 A 
ATOM     20  F   UNL     1      -5.273  -1.951   0.042  0.00  0.00    -0.205 F 
ENDBRANCH  13  14
ENDBRANCH   8  13
ENDBRANCH   1   9
BRANCH   5  21
ATOM     21  C   UNL     1       6.376  -1.674  -3.144  0.00  0.00    +0.022 C 
BRANCH  21  22
ATOM     22  C   UNL     1       7.069  -2.281  -4.337  0.00  0.00    +0.211 A 
ATOM     23  N   UNL     1       7.566  -1.623  -5.344  0.00  0.00    -0.193 NA
ATOM     24  C   UNL     1       8.110  -2.478  -6.229  0.00  0.00    +0.202 A 
ATOM     25  N   UNL     1       7.957  -3.699  -5.780  0.00  0.00    -0.056 NA
ATOM     26  O   UNL     1       7.281  -3.588  -4.537  0.00  0.00    -0.340 OA
BRANCH  24  27
ATOM     27  C   UNL     1       8.773  -2.100  -7.502  0.00  0.00    +0.023 A 
ATOM     28  C   UNL     1       8.877  -0.759  -7.865  0.00  0.00    +0.014 A 
ATOM     29  C   UNL     1       9.494  -0.412  -9.049  0.00  0.00    +0.039 A 
ATOM     30  C   UNL     1      10.011  -1.396  -9.877  0.00  0.00    +0.123 A 
ATOM     31  C   UNL     1       9.909  -2.731  -9.520  0.00  0.00    +0.039 A 
ATOM     32  C   UNL     1       9.298  -3.086  -8.335  0.00  0.00    +0.014 A 
ATOM     33  F   UNL     1      10.614  -1.052 -11.036  0.00  0.00    -0.205 F 
ENDBRANCH  24  27
ENDBRANCH  21  22
ENDBRANCH   5  21
TORSDOF 6
