REMARK  Name = ZINC11467436
REMARK  12 active torsions:
REMARK  status: ('A' for Active; 'I' for Inactive)
REMARK    1  A    between atoms: C_1  and  C_2
REMARK    2  A    between atoms: C_2  and  O_3
REMARK    3  A    between atoms: O_3  and  C_4
REMARK    4  A    between atoms: C_4  and  C_6
REMARK    5  A    between atoms: C_10  and  N_11
REMARK    6  A    between atoms: C_12  and  C_14
REMARK    7  A    between atoms: C_14  and  C_16
REMARK    8  A    between atoms: C_14  and  O_17
REMARK    9  A    between atoms: O_17  and  C_18
REMARK   10  A    between atoms: C_18  and  C_20
REMARK   11  A    between atoms: C_20  and  C_21
REMARK   12  A    between atoms: C_26  and  N_27
REMARK                            x       y       z     vdW  Elec       q    Type
REMARK                         _______ _______ _______ _____ _____    ______ ____
ROOT
ATOM      1  N   UNL     1      -1.002   2.885  -2.502  0.00  0.00    -0.276 N 
ATOM      2  C   UNL     1       0.281   2.867  -2.088  0.00  0.00    +0.258 C 
ATOM      3  O   UNL     1       1.153   3.328  -2.794  0.00  0.00    -0.271 OA
ATOM      4  H   UNL     1      -1.699   2.517  -1.937  0.00  0.00    +0.155 HD
ENDROOT
BRANCH   1   9
ATOM      5  C   UNL     1      -2.573   3.535  -4.332  0.00  0.00    +0.091 A 
ATOM      6  C   UNL     1      -2.640   4.160  -5.643  0.00  0.00    -0.021 A 
ATOM      7  C   UNL     1      -1.456   4.567  -6.147  0.00  0.00    -0.004 A 
ATOM      8  S   UNL     1      -0.265   4.141  -4.908  0.00  0.00    -0.077 S 
ATOM      9  C   UNL     1      -1.324   3.431  -3.735  0.00  0.00    +0.086 A 
ATOM     10  C   UNL     1      -1.217   5.232  -7.468  0.00  0.00    +0.043 C 
ATOM     11  C   UNL     1      -2.470   5.049  -8.335  0.00  0.00    +0.005 C 
ATOM     12  C   UNL     1      -3.704   5.413  -7.503  0.00  0.00    +0.005 C 
ATOM     13  C   UNL     1      -3.934   4.354  -6.424  0.00  0.00    +0.037 C 
BRANCH   5  14
ATOM     14  C   UNL     1      -3.778   3.038  -3.665  0.00  0.00    +0.342 C 
ATOM     15  O   UNL     1      -4.417   3.773  -2.936  0.00  0.00    -0.245 OA
BRANCH  14  16
ATOM     16  O   UNL     1      -4.180   1.765  -3.859  0.00  0.00    -0.461 OA
BRANCH  16  18
ATOM     17  C   UNL     1      -5.679  -0.121  -3.506  0.00  0.00    +0.048 C 
ATOM     18  C   UNL     1      -5.383   1.341  -3.166  0.00  0.00    +0.229 C 
ENDBRANCH  16  18
ENDBRANCH  14  16
ENDBRANCH   5  14
ENDBRANCH   1   9
BRANCH   2  19
ATOM     19  C   UNL     1       0.631   2.274  -0.747  0.00  0.00    +0.259 C 
ATOM     20  C   UNL     1       0.326   0.775  -0.757  0.00  0.00    +0.062 C 
BRANCH  19  21
ATOM     21  O   UNL     1       2.044   2.479  -0.482  0.00  0.00    -0.452 OA
BRANCH  21  22
ATOM     22  C   UNL     1       2.411   2.603   0.803  0.00  0.00    +0.312 C 
ATOM     23  O   UNL     1       1.579   2.543   1.678  0.00  0.00    -0.250 OA
BRANCH  22  24
ATOM     24  C   UNL     1       3.861   2.818   1.156  0.00  0.00    +0.158 C 
BRANCH  24  25
ATOM     25  C   UNL     1       4.003   2.924   2.652  0.00  0.00    -0.007 A 
ATOM     26  C   UNL     1       3.978   4.165   3.262  0.00  0.00    +0.006 A 
ATOM     27  C   UNL     1       4.104   4.262   4.635  0.00  0.00    +0.000 A 
ATOM     28  C   UNL     1       4.266   3.120   5.397  0.00  0.00    +0.002 A 
ATOM     29  C   UNL     1       4.297   1.880   4.787  0.00  0.00    +0.033 A 
ATOM     30  C   UNL     1       4.166   1.782   3.414  0.00  0.00    +0.130 A 
BRANCH  30  31
ATOM     31  N   UNL     1       4.199   0.455   2.760  0.00  0.00    +0.057 N 
ATOM     32  O   UNL     1       3.476   0.227   1.806  0.00  0.00    -0.126 OA
ATOM     33  O   UNL     1       4.950  -0.409   3.175  0.00  0.00    -0.126 OA
ENDBRANCH  30  31
ENDBRANCH  24  25
ENDBRANCH  22  24
ENDBRANCH  21  22
ENDBRANCH  19  21
ENDBRANCH   2  19
TORSDOF 10
