REMARK  Name = ZINC05130222
REMARK  8 active torsions:
REMARK  status: ('A' for Active; 'I' for Inactive)
REMARK    1  A    between atoms: C_1  and  C_2
REMARK    2  A    between atoms: C_2  and  C_3
REMARK    3  A    between atoms: C_2  and  O_4
REMARK    4  A    between atoms: O_4  and  C_5
REMARK    5  A    between atoms: C_10  and  C_11
REMARK    6  A    between atoms: C_14  and  C_25
REMARK    7  A    between atoms: C_20  and  N_24
REMARK    8  A    between atoms: C_21  and  C_22
REMARK                            x       y       z     vdW  Elec       q    Type
REMARK                         _______ _______ _______ _____ _____    ______ ____
ROOT
ATOM      1  C   UNL     1       2.152  -1.197   3.483  0.00  0.00    +0.105 C 
ATOM      2  C   UNL     1       2.381  -2.642   3.845  0.00  0.00    +0.054 A 
ATOM      3  C   UNL     1       2.168  -3.760   3.111  0.00  0.00    +0.074 A 
ATOM      4  N   UNL     1       2.531  -4.827   3.883  0.00  0.00    -0.273 N 
ATOM      5  H   UNL     1       2.489  -5.761   3.624  0.00  0.00    +0.189 HD
ATOM      6  N   UNL     1       2.977  -4.333   5.119  0.00  0.00    -0.135 NA
ATOM      7  C   UNL     1       2.890  -3.033   5.099  0.00  0.00    +0.245 A 
ATOM      8  O   UNL     1       3.208  -2.126   6.063  0.00  0.00    -0.421 OA
ATOM      9  C   UNL     1       3.282  -0.831   5.697  0.00  0.00    +0.201 C 
ATOM     10  C   UNL     1       2.820  -0.338   4.527  0.00  0.00    +0.098 C 
ENDROOT
BRANCH   1  16
ATOM     11  C   UNL     1       0.104  -0.302   2.347  0.00  0.00    +0.125 A 
ATOM     12  C   UNL     1      -1.259  -0.042   2.324  0.00  0.00    +0.046 A 
ATOM     13  C   UNL     1      -2.044  -0.382   3.409  0.00  0.00    +0.004 A 
ATOM     14  C   UNL     1      -1.473  -0.981   4.516  0.00  0.00    +0.001 A 
ATOM     15  C   UNL     1      -0.116  -1.241   4.542  0.00  0.00    +0.008 A 
ATOM     16  C   UNL     1       0.673  -0.908   3.457  0.00  0.00    +0.007 A 
BRANCH  11  17
ATOM     17  O   UNL     1       0.878   0.032   1.282  0.00  0.00    -0.489 OA
BRANCH  17  19
ATOM     18  C   UNL     1       0.149   2.185   0.463  0.00  0.00    +0.051 C 
ATOM     19  C   UNL     1       0.230   0.683   0.187  0.00  0.00    +0.167 C 
ATOM     20  C   UNL     1       1.030   0.442  -1.095  0.00  0.00    +0.051 C 
ENDBRANCH  17  19
ENDBRANCH  11  17
ENDBRANCH   1  16
BRANCH   3  21
ATOM     21  C   UNL     1       1.639  -3.816   1.730  0.00  0.00    +0.000 A 
ATOM     22  C   UNL     1       2.318  -4.538   0.749  0.00  0.00    +0.010 A 
ATOM     23  C   UNL     1       1.820  -4.587  -0.537  0.00  0.00    +0.001 A 
ATOM     24  C   UNL     1       0.650  -3.920  -0.854  0.00  0.00    +0.000 A 
ATOM     25  C   UNL     1      -0.028  -3.201   0.114  0.00  0.00    +0.001 A 
ATOM     26  C   UNL     1       0.457  -3.150   1.405  0.00  0.00    +0.010 A 
ENDBRANCH   3  21
BRANCH   9  27
ATOM     27  N   UNL     1       3.868   0.048   6.573  0.00  0.00    -0.328 N 
ATOM     28  H   UNL     1       4.211  -0.271   7.422  0.00  0.00    +0.145 HD
ATOM     29  H   UNL     1       3.938   0.987   6.343  0.00  0.00    +0.145 HD
ENDBRANCH   9  27
BRANCH  10  30
ATOM     30  C   UNL     1       2.971   1.062   4.266  0.00  0.00    +0.101 C 
ATOM     31  N   UNL     1       3.091   2.172   4.060  0.00  0.00    -0.191 NA
ENDBRANCH  10  30
TORSDOF 6
