REMARK  Name = ZINC05545049
REMARK  6 active torsions:
REMARK  status: ('A' for Active; 'I' for Inactive)
REMARK    1  A    between atoms: C_6  and  S_7
REMARK    2  A    between atoms: S_7  and  N_10
REMARK    3  A    between atoms: N_10  and  C_11
REMARK    4  A    between atoms: C_14  and  O_24
REMARK    5  A    between atoms: C_15  and  S_17
REMARK    6  A    between atoms: S_17  and  C_18
REMARK                            x       y       z     vdW  Elec       q    Type
REMARK                         _______ _______ _______ _____ _____    ______ ____
ROOT
ATOM      1  C   UNL     1      -0.963  -2.107  -2.252  0.00  0.00    +0.049 A 
ATOM      2  C   UNL     1       0.417  -2.010  -2.131  0.00  0.00    +0.028 A 
ATOM      3  C   UNL     1       1.239  -2.769  -2.942  0.00  0.00    +0.048 A 
ATOM      4  C   UNL     1       0.689  -3.629  -3.878  0.00  0.00    +0.131 A 
ATOM      5  C   UNL     1      -0.695  -3.729  -4.003  0.00  0.00    +0.059 A 
ATOM      6  C   UNL     1      -1.520  -2.971  -3.185  0.00  0.00    +0.043 A 
ENDROOT
BRANCH   1   7
ATOM      7  N   UNL     1      -1.793  -1.336  -1.430  0.00  0.00    -0.216 N 
ATOM      8  H   UNL     1      -2.250  -0.561  -1.792  0.00  0.00    +0.174 HD
BRANCH   7   9
ATOM      9  S   UNL     1      -1.995  -1.748   0.161  0.00  0.00    +0.072 S 
ATOM     10  O   UNL     1      -2.896  -0.799   0.715  0.00  0.00    -0.150 OA
ATOM     11  O   UNL     1      -0.695  -1.966   0.693  0.00  0.00    -0.150 OA
BRANCH   9  17
ATOM     12  C   UNL     1      -2.088  -4.476   0.148  0.00  0.00    +0.030 A 
ATOM     13  C   UNL     1      -2.735  -5.697   0.175  0.00  0.00    +0.022 A 
ATOM     14  C   UNL     1      -4.115  -5.747   0.251  0.00  0.00    +0.041 A 
ATOM     15  C   UNL     1      -4.848  -4.575   0.299  0.00  0.00    +0.022 A 
ATOM     16  C   UNL     1      -4.200  -3.354   0.272  0.00  0.00    +0.030 A 
ATOM     17  C   UNL     1      -2.820  -3.305   0.196  0.00  0.00    +0.109 A 
ATOM     18 CL   UNL     1      -4.928  -7.281   0.285  0.00  0.00    -0.084 Cl
ENDBRANCH   9  17
ENDBRANCH   7   9
ENDBRANCH   1   7
BRANCH   4  19
ATOM     19  O   UNL     1       1.500  -4.375  -4.677  0.00  0.00    -0.506 OA
ATOM     20  H   UNL     1       1.728  -5.239  -4.308  0.00  0.00    +0.292 HD
ENDBRANCH   4  19
BRANCH   5  21
ATOM     21  S   UNL     1      -1.397  -4.822  -5.194  0.00  0.00    -0.047 S 
BRANCH  21  22
ATOM     22  C   UNL     1      -1.141  -3.999  -6.731  0.00  0.00    +0.189 A 
ATOM     23  N   UNL     1      -1.594  -4.407  -7.936  0.00  0.00    -0.254 N 
ATOM     24  H   UNL     1      -2.118  -5.201  -8.123  0.00  0.00    +0.191 HD
ATOM     25  N   UNL     1      -1.156  -3.450  -8.866  0.00  0.00    -0.160 NA
ATOM     26  C   UNL     1      -0.486  -2.548  -8.200  0.00  0.00    +0.245 A 
ATOM     27  N   UNL     1      -0.480  -2.874  -6.907  0.00  0.00    -0.209 NA
ENDBRANCH  21  22
ENDBRANCH   5  21
TORSDOF 6
