REMARK  Name = ZINC63480014
REMARK  4 active torsions:
REMARK  status: ('A' for Active; 'I' for Inactive)
REMARK    1  A    between atoms: C_1  and  C_2
REMARK    2  A    between atoms: C_5  and  N_8
REMARK    3  A    between atoms: C_13  and  C_31
REMARK    4  A    between atoms: C_31  and  C_32
REMARK                            x       y       z     vdW  Elec       q    Type
REMARK                         _______ _______ _______ _____ _____    ______ ____
ROOT
ATOM      1  N   UNL     1       0.059  -4.172  -0.021  0.00  0.00    -0.210 N 
ATOM      2  C   UNL     1      -0.030  -4.891  -1.146  0.00  0.00    +0.232 C 
ATOM      3  O   UNL     1      -0.137  -4.433  -2.263  0.00  0.00    -0.274 OA
ATOM      4  C   UNL     1       0.025  -6.363  -0.807  0.00  0.00    +0.107 C 
ATOM      5  C   UNL     1      -1.343  -7.008  -1.114  0.00  0.00    +0.072 C 
ATOM      6  N   UNL     1      -2.147  -6.804   0.120  0.00  0.00    -0.295 NA
ATOM      7  C   UNL     1      -1.182  -7.006   1.217  0.00  0.00    +0.136 C 
ATOM      8  C   UNL     1       0.149  -6.371   0.742  0.00  0.00    +0.123 C 
ATOM      9  C   UNL     1       0.172  -4.901   1.096  0.00  0.00    +0.233 C 
ATOM     10  O   UNL     1       0.275  -4.452   2.217  0.00  0.00    -0.274 OA
ATOM     11  C   UNL     1      -1.007  -8.463   1.536  0.00  0.00    +0.006 A 
ATOM     12  C   UNL     1      -0.596  -9.552   0.800  0.00  0.00    +0.046 A 
ATOM     13  C   UNL     1      -0.537 -10.805   1.389  0.00  0.00    +0.124 A 
ATOM     14  C   UNL     1      -0.891 -10.957   2.719  0.00  0.00    +0.040 A 
ATOM     15  C   UNL     1      -1.302  -9.868   3.459  0.00  0.00    +0.026 A 
ATOM     16  C   UNL     1      -1.365  -8.605   2.873  0.00  0.00    +0.039 A 
ATOM     17  N   UNL     1      -1.744  -7.370   3.406  0.00  0.00    -0.283 N 
ATOM     18  C   UNL     1      -1.664  -6.380   2.496  0.00  0.00    +0.243 C 
ATOM     19  O   UNL     1      -1.931  -5.210   2.675  0.00  0.00    -0.273 OA
ATOM     20  F   UNL     1      -0.135 -11.874   0.668  0.00  0.00    -0.205 F 
ATOM     21  H   UNL     1      -2.537  -5.874   0.148  0.00  0.00    +0.124 HD
ATOM     22  H   UNL     1      -2.030  -7.241   4.323  0.00  0.00    +0.155 HD
ENDROOT
BRANCH   1  27
ATOM     23  C   UNL     1      -0.016   1.503   0.009  0.00  0.00    +0.044 C 
ATOM     24  C   UNL     1       0.004  -0.004   0.001  0.00  0.00    -0.050 A 
ATOM     25  C   UNL     1       1.156  -0.681   0.356  0.00  0.00    +0.005 A 
ATOM     26  C   UNL     1       1.177  -2.062   0.350  0.00  0.00    +0.024 A 
ATOM     27  C   UNL     1       0.040  -2.771  -0.013  0.00  0.00    +0.044 A 
ATOM     28  C   UNL     1      -1.115  -2.088  -0.369  0.00  0.00    +0.024 A 
ATOM     29  C   UNL     1      -1.132  -0.707  -0.357  0.00  0.00    +0.005 A 
ENDBRANCH   1  27
BRANCH   5  30
ATOM     30  C   UNL     1      -2.006  -6.312  -2.304  0.00  0.00    +0.052 C 
BRANCH  30  31
ATOM     31  C   UNL     1      -3.279  -7.033  -2.664  0.00  0.00    -0.040 C 
ATOM     32  C   UNL     1      -4.531  -6.725  -2.256  0.00  0.00    -0.001 A 
ATOM     33  C   UNL     1      -5.062  -5.667  -1.388  0.00  0.00    +0.010 A 
ATOM     34  C   UNL     1      -6.394  -5.613  -1.158  0.00  0.00    +0.001 A 
ATOM     35  C   UNL     1      -7.277  -6.540  -1.727  0.00  0.00    +0.002 A 
ATOM     36  C   UNL     1      -6.865  -7.540  -2.534  0.00  0.00    +0.026 A 
ATOM     37  C   UNL     1      -5.485  -7.692  -2.844  0.00  0.00    +0.043 A 
ATOM     38  N   UNL     1      -4.848  -8.564  -3.587  0.00  0.00    -0.380 N 
ATOM     39  C   UNL     1      -3.416  -8.245  -3.558  0.00  0.00    +0.144 C 
ATOM     40  H   UNL     1      -5.255  -9.295  -4.077  0.00  0.00    +0.160 HD
ENDBRANCH  30  31
ENDBRANCH   5  30
TORSDOF 3
