REMARK  Name = ZINC15879947
REMARK  8 active torsions:
REMARK  status: ('A' for Active; 'I' for Inactive)
REMARK    1  A    between atoms: C_1  and  C_2
REMARK    2  A    between atoms: C_5  and  C_36
REMARK    3  A    between atoms: C_6  and  C_8
REMARK    4  A    between atoms: C_8  and  N_9
REMARK    5  A    between atoms: C_14  and  C_16
REMARK    6  A    between atoms: N_21  and  S_23
REMARK    7  A    between atoms: S_23  and  C_26
REMARK    8  A    between atoms: C_26  and  C_27
REMARK                            x       y       z     vdW  Elec       q    Type
REMARK                         _______ _______ _______ _____ _____    ______ ____
ROOT
ATOM      1  N   UNL     1       1.436  -3.177   2.842  0.00  0.00    -0.222 N 
ATOM      2  C   UNL     1       2.119  -4.300   2.485  0.00  0.00    +0.186 A 
ATOM      3  C   UNL     1       3.394  -4.175   3.051  0.00  0.00    +0.195 A 
ATOM      4  C   UNL     1       4.353  -5.259   2.823  0.00  0.00    +0.281 A 
ATOM      5  N   UNL     1       3.942  -6.312   2.079  0.00  0.00    -0.309 N 
ATOM      6  C   UNL     1       2.685  -6.344   1.571  0.00  0.00    +0.117 A 
ATOM      7  N   UNL     1       1.821  -5.391   1.764  0.00  0.00    -0.213 NA
ATOM      8  O   UNL     1       5.479  -5.214   3.286  0.00  0.00    -0.265 OA
ATOM      9  N   UNL     1       3.442  -3.012   3.715  0.00  0.00    -0.122 NA
ATOM     10  N   UNL     1       2.315  -2.398   3.610  0.00  0.00    -0.063 NA
ATOM     11  H   UNL     1       4.551  -7.048   1.907  0.00  0.00    +0.170 HD
ENDROOT
BRANCH   6  12
ATOM     12  C   UNL     1       2.271  -7.536   0.748  0.00  0.00    +0.071 C 
ATOM     13  C   UNL     1       1.780  -8.651   1.674  0.00  0.00    +0.014 C 
ATOM     14  C   UNL     1       1.389  -9.874   0.841  0.00  0.00    +0.018 C 
ATOM     15  C   UNL     1       0.248  -9.497  -0.109  0.00  0.00    +0.109 C 
ATOM     16  N   UNL     1       0.660  -8.332  -0.904  0.00  0.00    -0.180 NA
ATOM     17  C   UNL     1       1.140  -7.132  -0.204  0.00  0.00    +0.120 C 
BRANCH  16  18
ATOM     18  S   UNL     1       0.585  -8.369  -2.558  0.00  0.00    +0.036 S 
ATOM     19  O   UNL     1       1.568  -7.436  -2.987  0.00  0.00    -0.158 OA
ATOM     20  O   UNL     1       0.697  -9.745  -2.895  0.00  0.00    -0.158 OA
BRANCH  18  21
ATOM     21  C   UNL     1      -1.074  -7.760  -2.964  0.00  0.00    +0.220 C 
BRANCH  21  22
ATOM     22  C   UNL     1      -1.254  -7.751  -4.460  0.00  0.00    -0.025 A 
ATOM     23  C   UNL     1      -0.910  -6.630  -5.191  0.00  0.00    +0.005 A 
ATOM     24  C   UNL     1      -1.075  -6.622  -6.564  0.00  0.00    +0.000 A 
ATOM     25  C   UNL     1      -1.585  -7.736  -7.205  0.00  0.00    +0.000 A 
ATOM     26  C   UNL     1      -1.929  -8.857  -6.473  0.00  0.00    +0.000 A 
ATOM     27  C   UNL     1      -1.759  -8.867  -5.101  0.00  0.00    +0.005 A 
ENDBRANCH  21  22
ENDBRANCH  18  21
ENDBRANCH  16  18
ENDBRANCH   6  12
BRANCH   1  28
ATOM     28  C   UNL     1       0.054  -2.845   2.489  0.00  0.00    +0.183 C 
BRANCH  28  34
ATOM     29  C   UNL     1      -0.018   1.503   0.010  0.00  0.00    +0.044 C 
ATOM     30  C   UNL     1       0.002  -0.004   0.002  0.00  0.00    -0.050 A 
ATOM     31  C   UNL     1       0.006  -0.689  -1.199  0.00  0.00    +0.003 A 
ATOM     32  C   UNL     1       0.025  -2.071  -1.207  0.00  0.00    +0.004 A 
ATOM     33  C   UNL     1       0.040  -2.768  -0.013  0.00  0.00    -0.046 A 
ATOM     34  C   UNL     1       0.037  -2.084   1.188  0.00  0.00    -0.023 A 
ATOM     35  C   UNL     1       0.023  -0.702   1.195  0.00  0.00    +0.009 A 
ATOM     36  C   UNL     1       0.059  -4.275  -0.021  0.00  0.00    +0.044 C 
ENDBRANCH  28  34
ENDBRANCH   1  28
TORSDOF 6
