REMARK  Name = ZINC36207588
REMARK  13 active torsions:
REMARK  status: ('A' for Active; 'I' for Inactive)
REMARK    1  A    between atoms: C_1  and  C_2
REMARK    2  A    between atoms: C_2  and  C_3
REMARK    3  A    between atoms: C_2  and  C_4
REMARK    4  A    between atoms: C_4  and  N_5
REMARK    5  A    between atoms: N_5  and  C_6
REMARK    6  A    between atoms: N_5  and  C_25
REMARK    7  A    between atoms: C_6  and  C_7
REMARK    8  A    between atoms: C_13  and  C_18
REMARK    9  A    between atoms: C_25  and  C_26
REMARK   10  A    between atoms: C_26  and  C_28
REMARK   11  A    between atoms: C_26  and  O_36
REMARK   12  A    between atoms: C_28  and  O_29
REMARK   13  A    between atoms: O_29  and  C_30
REMARK                            x       y       z     vdW  Elec       q    Type
REMARK                         _______ _______ _______ _____ _____    ______ ____
ROOT
ATOM      1  C   UNL     1      -3.597  -0.282  -1.108  0.00  0.00    -0.003 C 
ENDROOT
BRANCH   1   2
ATOM      2  C   UNL     1      -4.173   0.492   0.050  0.00  0.00    +0.094 A 
ATOM      3  N   UNL     1      -5.505   0.420   0.304  0.00  0.00    -0.312 N 
ATOM      4  H   UNL     1      -6.068  -0.129  -0.263  0.00  0.00    +0.170 HD
ATOM      5  C   UNL     1      -6.059   1.096   1.328  0.00  0.00    +0.260 A 
ATOM      6  O   UNL     1      -7.256   1.020   1.544  0.00  0.00    -0.267 OA
ATOM      7  C   UNL     1      -5.220   1.904   2.161  0.00  0.00    +0.080 A 
ATOM      8  C   UNL     1      -5.577   2.719   3.316  0.00  0.00    +0.005 A 
ATOM      9  C   UNL     1      -4.600   3.406   3.955  0.00  0.00    +0.056 A 
ATOM     10  S   UNL     1      -3.133   2.992   3.032  0.00  0.00    -0.076 S 
ATOM     11  C   UNL     1      -3.858   1.917   1.821  0.00  0.00    +0.116 A 
ATOM     12  N   UNL     1      -3.382   1.217   0.795  0.00  0.00    -0.229 NA
BRANCH   8  13
ATOM     13  C   UNL     1      -6.983   2.795   3.781  0.00  0.00    +0.002 A 
ATOM     14  C   UNL     1      -7.678   4.001   3.713  0.00  0.00    +0.010 A 
ATOM     15  C   UNL     1      -8.987   4.066   4.147  0.00  0.00    +0.001 A 
ATOM     16  C   UNL     1      -9.609   2.937   4.650  0.00  0.00    +0.001 A 
ATOM     17  C   UNL     1      -8.924   1.737   4.721  0.00  0.00    +0.020 A 
ATOM     18  C   UNL     1      -7.616   1.658   4.284  0.00  0.00    +0.049 A 
ATOM     19 CL   UNL     1      -6.761   0.150   4.367  0.00  0.00    -0.083 Cl
ENDBRANCH   8  13
ENDBRANCH   1   2
BRANCH   1  20
ATOM     20  N   UNL     1      -2.148  -0.053  -1.177  0.00  0.00    +0.386 N 
ATOM     21  H   UNL     1      -1.966   0.939  -1.226  0.00  0.00    -0.081 HD
BRANCH  20  22
ATOM     22  C   UNL     1      -1.506  -0.610   0.021  0.00  0.00    -0.075 C 
BRANCH  22  24
ATOM     23  C   UNL     1       0.122   1.280   0.165  0.00  0.00    +0.005 C 
ATOM     24  C   UNL     1      -0.022  -0.237   0.025  0.00  0.00    -0.034 C 
ATOM     25  C   UNL     1       0.674  -0.927   1.199  0.00  0.00    +0.005 C 
ENDBRANCH  22  24
ENDBRANCH  20  22
BRANCH  20  26
ATOM     26  C   UNL     1      -1.605  -0.710  -2.374  0.00  0.00    -0.043 C 
BRANCH  26  27
ATOM     27  C   UNL     1      -2.164  -0.030  -3.626  0.00  0.00    +0.135 C 
BRANCH  27  28
ATOM     28  O   UNL     1      -1.781   1.347  -3.632  0.00  0.00    -0.390 OA
ATOM     29  H   UNL     1      -0.828   1.490  -3.708  0.00  0.00    +0.210 HD
ENDBRANCH  27  28
BRANCH  27  30
ATOM     30  C   UNL     1      -1.605  -0.720  -4.872  0.00  0.00    +0.258 C 
BRANCH  30  31
ATOM     31  O   UNL     1      -2.215  -0.163  -6.039  0.00  0.00    -0.489 OA
BRANCH  31  32
ATOM     32  C   UNL     1      -1.826  -0.668  -7.239  0.00  0.00    +0.121 A 
ATOM     33  C   UNL     1      -0.882  -1.683  -7.293  0.00  0.00    +0.045 A 
ATOM     34  C   UNL     1      -0.489  -2.195  -8.514  0.00  0.00    +0.004 A 
ATOM     35  C   UNL     1      -1.036  -1.697  -9.682  0.00  0.00    +0.000 A 
ATOM     36  C   UNL     1      -1.977  -0.685  -9.631  0.00  0.00    +0.004 A 
ATOM     37  C   UNL     1      -2.378  -0.174  -8.412  0.00  0.00    +0.045 A 
ENDBRANCH  31  32
ENDBRANCH  30  31
ENDBRANCH  27  30
ENDBRANCH  26  27
ENDBRANCH  20  26
ENDBRANCH   1  20
TORSDOF 11
