REMARK  Name = ZINC25521465
REMARK  14 active torsions:
REMARK  status: ('A' for Active; 'I' for Inactive)
REMARK    1  A    between atoms: C_1  and  C_2
REMARK    2  A    between atoms: C_2  and  C_3
REMARK    3  A    between atoms: C_2  and  C_4
REMARK    4  A    between atoms: C_2  and  N_5
REMARK    5  A    between atoms: N_5  and  S_6
REMARK    6  A    between atoms: S_6  and  C_9
REMARK    7  A    between atoms: C_12  and  C_15
REMARK    8  A    between atoms: N_17  and  C_18
REMARK    9  A    between atoms: C_18  and  C_19
REMARK   10  A    between atoms: C_24  and  C_25
REMARK   11  A    between atoms: C_28  and  C_31
REMARK   12  A    between atoms: C_31  and  N_32
REMARK   13  A    between atoms: N_32  and  C_33
REMARK   14  A    between atoms: N_32  and  C_34
REMARK                            x       y       z     vdW  Elec       q    Type
REMARK                         _______ _______ _______ _____ _____    ______ ____
ROOT
ATOM      1  C   UNL     1      -3.758   4.947   5.392  0.00  0.00    +0.244 C 
ATOM      2  O   UNL     1      -4.671   4.517   6.069  0.00  0.00    -0.270 OA
ATOM      3  N   UNL     1      -3.097   6.056   5.778  0.00  0.00    -0.307 N 
ATOM      4  H   UNL     1      -2.271   6.446   5.165  0.00  0.00    +0.149 HD
ENDROOT
BRANCH   1   8
ATOM      5  C   UNL     1      -2.653   2.957   1.806  0.00  0.00    +0.105 A 
ATOM      6  C   UNL     1      -1.968   4.092   2.203  0.00  0.00    +0.029 A 
ATOM      7  C   UNL     1      -2.325   4.746   3.364  0.00  0.00    +0.015 A 
ATOM      8  C   UNL     1      -3.373   4.255   4.144  0.00  0.00    +0.037 A 
ATOM      9  C   UNL     1      -4.056   3.106   3.741  0.00  0.00    +0.015 A 
ATOM     10  C   UNL     1      -3.692   2.464   2.575  0.00  0.00    +0.029 A 
BRANCH   5  11
ATOM     11  S   UNL     1      -2.195   2.132   0.318  0.00  0.00    +0.059 S 
ATOM     12  O   UNL     1      -2.342   0.740   0.564  0.00  0.00    -0.153 OA
ATOM     13  O   UNL     1      -0.964   2.705  -0.102  0.00  0.00    -0.153 OA
BRANCH  11  14
ATOM     14  N   UNL     1      -3.320   2.531  -0.830  0.00  0.00    -0.185 NA
ATOM     15  H   UNL     1      -4.119   1.815  -1.072  0.00  0.00    +0.149 HD
BRANCH  14  17
ATOM     16  C   UNL     1      -2.100   4.200  -2.137  0.00  0.00    +0.029 C 
ATOM     17  C   UNL     1      -3.379   3.898  -1.353  0.00  0.00    +0.032 C 
ATOM     18  C   UNL     1      -4.589   4.038  -2.279  0.00  0.00    +0.029 C 
ATOM     19  C   UNL     1      -3.509   4.884  -0.191  0.00  0.00    +0.029 C 
ENDBRANCH  14  17
ENDBRANCH  11  14
ENDBRANCH   5  11
ENDBRANCH   1   8
BRANCH   3  20
ATOM     20  C   UNL     1      -3.478   6.743   7.015  0.00  0.00    +0.140 C 
BRANCH  20  21
ATOM     21  C   UNL     1      -2.675   8.011   7.154  0.00  0.00    -0.023 A 
ATOM     22  C   UNL     1      -1.652   8.083   8.078  0.00  0.00    +0.006 A 
ATOM     23  C   UNL     1      -0.913   9.245   8.206  0.00  0.00    +0.000 A 
ATOM     24  C   UNL     1      -1.195  10.341   7.410  0.00  0.00    +0.001 A 
ATOM     25  C   UNL     1      -2.216  10.280   6.483  0.00  0.00    +0.009 A 
ATOM     26  C   UNL     1      -2.960   9.110   6.346  0.00  0.00    -0.013 A 
BRANCH  26  27
ATOM     27  C   UNL     1      -4.055   9.036   5.348  0.00  0.00    -0.018 A 
ATOM     28  C   UNL     1      -3.799   9.322   4.008  0.00  0.00    +0.009 A 
ATOM     29  C   UNL     1      -4.820   9.245   3.082  0.00  0.00    +0.002 A 
ATOM     30  C   UNL     1      -6.097   8.898   3.484  0.00  0.00    -0.064 A 
ATOM     31  C   UNL     1      -6.357   8.618   4.813  0.00  0.00    +0.002 A 
ATOM     32  C   UNL     1      -5.343   8.686   5.747  0.00  0.00    +0.009 A 
BRANCH  30  33
ATOM     33  C   UNL     1      -7.209   8.823   2.469  0.00  0.00    -0.044 C 
BRANCH  33  34
ATOM     34  N   UNL     1      -7.864  10.133   2.362  0.00  0.00    +0.379 N 
ATOM     35  C   UNL     1      -8.790  10.168   1.223  0.00  0.00    -0.096 C 
ATOM     36  C   UNL     1      -8.554  10.480   3.612  0.00  0.00    -0.096 C 
ATOM     37  H   UNL     1      -7.083  10.888   2.187  0.00  0.00    -0.082 HD
ENDBRANCH  33  34
ENDBRANCH  30  33
ENDBRANCH  26  27
ENDBRANCH  20  21
ENDBRANCH   3  20
TORSDOF 9
