REMARK  Name = ZINC40003922
REMARK  10 active torsions:
REMARK  status: ('A' for Active; 'I' for Inactive)
REMARK    1  A    between atoms: C_1  and  C_2
REMARK    2  A    between atoms: C_9  and  C_38
REMARK    3  A    between atoms: C_10  and  C_11
REMARK    4  A    between atoms: C_11  and  C_13
REMARK    5  A    between atoms: N_17  and  C_30
REMARK    6  A    between atoms: C_18  and  C_20
REMARK    7  A    between atoms: C_23  and  C_26
REMARK    8  A    between atoms: C_26  and  O_28
REMARK    9  A    between atoms: O_28  and  C_29
REMARK   10  A    between atoms: C_30  and  C_31
REMARK                            x       y       z     vdW  Elec       q    Type
REMARK                         _______ _______ _______ _____ _____    ______ ____
ROOT
ATOM      1  C   UNL     1      -0.367  -4.838   4.696  0.00  0.00    +0.078 C 
ATOM      2  C   UNL     1      -0.446  -5.989   5.402  0.00  0.00    +0.249 C 
ATOM      3  C   UNL     1      -0.901  -5.688   6.773  0.00  0.00    +0.288 C 
ATOM      4  O   UNL     1      -1.071  -6.514   7.648  0.00  0.00    -0.266 OA
ATOM      5  N   UNL     1      -1.101  -4.365   6.911  0.00  0.00    -0.279 N 
ATOM      6  C   UNL     1      -0.779  -3.724   5.630  0.00  0.00    +0.145 C 
ATOM      7  O   UNL     1      -0.155  -7.223   4.925  0.00  0.00    -0.282 OA
ENDROOT
BRANCH   6   8
ATOM      8  C   UNL     1       0.356  -2.749   5.806  0.00  0.00    -0.022 A 
ATOM      9  C   UNL     1       1.505  -3.141   6.471  0.00  0.00    +0.006 A 
ATOM     10  C   UNL     1       2.547  -2.253   6.636  0.00  0.00    +0.015 A 
ATOM     11  C   UNL     1       2.442  -0.956   6.130  0.00  0.00    +0.059 A 
ATOM     12  C   UNL     1       1.280  -0.567   5.460  0.00  0.00    +0.015 A 
ATOM     13  C   UNL     1       0.247  -1.466   5.298  0.00  0.00    +0.006 A 
BRANCH  11  14
ATOM     14  C   UNL     1       3.554   0.001   6.303  0.00  0.00    +0.339 C 
ATOM     15  O   UNL     1       4.564  -0.340   6.886  0.00  0.00    -0.245 OA
BRANCH  14  16
ATOM     16  O   UNL     1       3.449   1.252   5.813  0.00  0.00    -0.464 OA
ATOM     17  C   UNL     1       4.563   2.123   6.016  0.00  0.00    +0.280 C 
ENDBRANCH  14  16
ENDBRANCH  11  14
ENDBRANCH   6   8
BRANCH   1  18
ATOM     18  C   UNL     1       0.046  -4.697   3.294  0.00  0.00    +0.213 C 
ATOM     19  O   UNL     1       1.163  -4.286   3.026  0.00  0.00    -0.285 OA
BRANCH  18  29
ATOM     20  C   UNL     1      -3.009  -5.970  -1.847  0.00  0.00    +0.047 C 
ATOM     21  C   UNL     1      -1.752  -5.540  -1.135  0.00  0.00    -0.008 A 
ATOM     22  C   UNL     1      -0.625  -5.247  -1.845  0.00  0.00    +0.008 A 
ATOM     23  C   UNL     1       0.535  -4.849  -1.168  0.00  0.00    +0.018 A 
ATOM     24  C   UNL     1       0.536  -4.757   0.182  0.00  0.00    +0.093 A 
ATOM     25  N   UNL     1      -0.583  -5.048   0.896  0.00  0.00    -0.296 N 
ATOM     26  C   UNL     1      -1.733  -5.433   0.266  0.00  0.00    +0.141 A 
ATOM     27  N   UNL     1      -2.672  -5.649   1.187  0.00  0.00    -0.232 NA
ATOM     28  C   UNL     1      -2.182  -5.415   2.392  0.00  0.00    +0.068 A 
ATOM     29  C   UNL     1      -0.852  -5.039   2.253  0.00  0.00    +0.116 A 
ATOM     30  C   UNL     1      -2.933  -5.547   3.692  0.00  0.00    +0.068 C 
ENDBRANCH  18  29
ENDBRANCH   1  18
BRANCH   5  31
ATOM     31  C   UNL     1      -1.554  -3.683   8.127  0.00  0.00    +0.145 C 
BRANCH  31  32
ATOM     32  C   UNL     1      -0.359  -3.289   8.956  0.00  0.00    -0.012 A 
ATOM     33  C   UNL     1       0.152  -4.157   9.909  0.00  0.00    +0.008 A 
ATOM     34  C   UNL     1       1.252  -3.752  10.649  0.00  0.00    +0.020 A 
ATOM     35  C   UNL     1       1.800  -2.505  10.414  0.00  0.00    +0.111 A 
ATOM     36  N   UNL     1       1.287  -1.705   9.499  0.00  0.00    -0.263 NA
ATOM     37  C   UNL     1       0.245  -2.060   8.773  0.00  0.00    +0.115 A 
ENDBRANCH  31  32
ENDBRANCH   5  31
TORSDOF 7
