REMARK  Name = ZINC02640275
REMARK  10 active torsions:
REMARK  status: ('A' for Active; 'I' for Inactive)
REMARK    1  A    between atoms: C_1  and  C_2
REMARK    2  A    between atoms: C_2  and  C_4
REMARK    3  A    between atoms: C_2  and  O_15
REMARK    4  A    between atoms: N_6  and  C_7
REMARK    5  A    between atoms: C_7  and  C_8
REMARK    6  A    between atoms: C_8  and  C_9
REMARK    7  A    between atoms: O_15  and  C_16
REMARK    8  A    between atoms: C_16  and  C_18
REMARK    9  A    between atoms: C_21  and  S_24
REMARK   10  A    between atoms: S_24  and  N_27
REMARK                            x       y       z     vdW  Elec       q    Type
REMARK                         _______ _______ _______ _____ _____    ______ ____
ROOT
ATOM      1  C   UNL     1       0.546  -1.157  -3.538  0.00  0.00    +0.059 A 
ATOM      2  C   UNL     1       1.922  -1.387  -3.593  0.00  0.00    +0.017 A 
ATOM      3  C   UNL     1       2.497  -1.836  -4.764  0.00  0.00    +0.029 A 
ATOM      4  C   UNL     1       1.715  -2.049  -5.885  0.00  0.00    +0.106 A 
ATOM      5  C   UNL     1       0.351  -1.818  -5.839  0.00  0.00    +0.029 A 
ATOM      6  C   UNL     1      -0.237  -1.374  -4.673  0.00  0.00    +0.017 A 
ENDROOT
BRANCH   4   7
ATOM      7  S   UNL     1       2.458  -2.615  -7.378  0.00  0.00    +0.061 S 
ATOM      8  O   UNL     1       3.660  -3.277  -7.008  0.00  0.00    -0.153 OA
ATOM      9  O   UNL     1       1.433  -3.258  -8.124  0.00  0.00    -0.153 OA
BRANCH   7  10
ATOM     10  N   UNL     1       2.903  -1.275  -8.243  0.00  0.00    -0.172 NA
ATOM     11  C   UNL     1       1.986  -0.649  -9.211  0.00  0.00    +0.114 C 
ATOM     12  C   UNL     1       1.659   0.757  -8.698  0.00  0.00    +0.052 C 
ATOM     13  C   UNL     1       2.914   1.483  -8.288  0.00  0.00    -0.042 A 
ATOM     14  C   UNL     1       2.858   2.869  -8.204  0.00  0.00    +0.004 A 
ATOM     15  C   UNL     1       3.967   3.594  -7.822  0.00  0.00    +0.000 A 
ATOM     16  C   UNL     1       5.147   2.939  -7.522  0.00  0.00    +0.000 A 
ATOM     17  C   UNL     1       5.207   1.563  -7.609  0.00  0.00    +0.005 A 
ATOM     18  C   UNL     1       4.092   0.833  -7.996  0.00  0.00    -0.028 A 
ATOM     19  C   UNL     1       4.228  -0.667  -8.080  0.00  0.00    +0.144 C 
ENDBRANCH   7  10
ENDBRANCH   4   7
BRANCH   1  20
ATOM     20  C   UNL     1      -0.077  -0.680  -2.286  0.00  0.00    +0.340 C 
ATOM     21  O   UNL     1      -1.274  -0.476  -2.243  0.00  0.00    -0.245 OA
BRANCH  20  22
ATOM     22  O   UNL     1       0.682  -0.472  -1.193  0.00  0.00    -0.449 OA
BRANCH  22  24
ATOM     23  C   UNL     1      -0.019   1.526   0.010  0.00  0.00    +0.062 C 
ATOM     24  C   UNL     1       0.002  -0.004   0.002  0.00  0.00    +0.259 C 
BRANCH  24  25
ATOM     25  C   UNL     1       0.731  -0.503   1.223  0.00  0.00    +0.254 C 
ATOM     26  O   UNL     1       1.774  -1.109   1.101  0.00  0.00    -0.272 OA
ATOM     27  N   UNL     1       0.223  -0.277   2.451  0.00  0.00    -0.312 N 
ATOM     28  H   UNL     1      -0.611   0.208   2.548  0.00  0.00    +0.149 HD
BRANCH  27  29
ATOM     29  C   UNL     1       0.932  -0.762   3.638  0.00  0.00    +0.108 C 
BRANCH  29  30
ATOM     30  C   UNL     1       0.148  -0.374   4.893  0.00  0.00    +0.049 C 
BRANCH  30  31
ATOM     31  C   UNL     1       0.877  -0.874   6.114  0.00  0.00    -0.072 C 
ATOM     32  C   UNL     1       1.675  -0.056   6.721  0.00  0.00    -0.028 C 
ATOM     33  C   UNL     1       2.475  -0.410   7.940  0.00  0.00    +0.027 C 
ATOM     34  C   UNL     1       1.909  -1.674   8.593  0.00  0.00    +0.004 C 
ATOM     35  C   UNL     1       1.736  -2.744   7.507  0.00  0.00    +0.005 C 
ATOM     36  C   UNL     1       0.627  -2.287   6.554  0.00  0.00    +0.030 C 
ENDBRANCH  30  31
ENDBRANCH  29  30
ENDBRANCH  27  29
ENDBRANCH  24  25
ENDBRANCH  22  24
ENDBRANCH  20  22
ENDBRANCH   1  20
TORSDOF 9
