REMARK  Name = ZINC03933527
REMARK  5 active torsions:
REMARK  status: ('A' for Active; 'I' for Inactive)
REMARK    1  A    between atoms: C_6  and  C_7
REMARK    2  A    between atoms: C_13  and  C_16
REMARK    3  A    between atoms: C_14  and  N_15
REMARK    4  A    between atoms: C_17  and  C_18
REMARK    5  A    between atoms: C_22  and  C_27
REMARK                            x       y       z     vdW  Elec       q    Type
REMARK                         _______ _______ _______ _____ _____    ______ ____
ROOT
ATOM      1  C   UNL     1       1.191  -0.669  -0.013  0.00  0.00    +0.012 A 
ATOM      2  C   UNL     1       0.002  -0.004   0.002  0.00  0.00    +0.012 A 
ATOM      3  C   UNL     1      -0.017   1.396   0.010  0.00  0.00    +0.021 A 
ATOM      4  C   UNL     1       1.193   2.120   0.002  0.00  0.00    +0.049 A 
ATOM      5  C   UNL     1       2.398   1.433  -0.013  0.00  0.00    +0.037 A 
ATOM      6  C   UNL     1       2.399   0.041  -0.021  0.00  0.00    +0.014 A 
ATOM      7  N   UNL     1       0.882   3.464   0.012  0.00  0.00    -0.353 N 
ATOM      8  H   UNL     1       1.529   4.186   0.010  0.00  0.00    +0.166 HD
ATOM      9  C   UNL     1      -0.493   3.628   0.026  0.00  0.00    +0.061 A 
ATOM     10  C   UNL     1      -1.094   2.385   0.019  0.00  0.00    +0.057 A 
ENDROOT
BRANCH   6  11
ATOM     11  C   UNL     1       3.683  -0.693  -0.037  0.00  0.00    +0.100 C 
ATOM     12  C   UNL     1       5.914  -1.093  -0.061  0.00  0.00    +0.132 C 
ATOM     13  C   UNL     1       5.179  -2.448  -0.061  0.00  0.00    +0.124 C 
ATOM     14  N   UNL     1       3.758  -2.063  -0.041  0.00  0.00    -0.329 N 
ATOM     15  H   UNL     1       3.005  -2.673  -0.033  0.00  0.00    +0.147 HD
ATOM     16  N   UNL     1       4.832  -0.095  -0.045  0.00  0.00    -0.371 N 
ATOM     17  H   UNL     1       4.968   0.923  -0.040  0.00  0.00    +0.161 HD
ENDBRANCH   6  11
BRANCH  10  18
ATOM     18  N   UNL     1      -2.467   2.123   0.024  0.00  0.00    -0.356 N 
ATOM     19  H   UNL     1      -2.786   1.207   0.020  0.00  0.00    +0.142 HD
ATOM     20  H   UNL     1      -3.101   2.857   0.030  0.00  0.00    +0.142 HD
ENDBRANCH  10  18
BRANCH   9  21
ATOM     21  C   UNL     1      -1.173   4.871   0.039  0.00  0.00    +0.031 C 
ATOM     22  C   UNL     1      -0.469   6.028   0.039  0.00  0.00    +0.048 C 
BRANCH  22  23
ATOM     23  C   UNL     1      -1.171   7.311   0.052  0.00  0.00    +0.129 A 
ATOM     24  C   UNL     1      -0.570   8.533   0.058  0.00  0.00    +0.057 A 
ATOM     25  C   UNL     1      -1.655   9.516   0.068  0.00  0.00    +0.021 A 
ATOM     26  C   UNL     1      -1.699  10.910   0.076  0.00  0.00    +0.023 A 
ATOM     27  C   UNL     1      -2.930  11.555   0.092  0.00  0.00    +0.013 A 
ATOM     28  C   UNL     1      -4.113  10.806   0.098  0.00  0.00    +0.015 A 
ATOM     29  C   UNL     1      -4.071   9.431   0.090  0.00  0.00    +0.047 A 
ATOM     30  C   UNL     1      -2.848   8.768   0.076  0.00  0.00    +0.136 A 
ATOM     31  O   UNL     1      -2.511   7.462   0.065  0.00  0.00    -0.455 OA
BRANCH  27  32
ATOM     32  C   UNL     1      -2.991  13.034   0.101  0.00  0.00    +0.100 C 
ATOM     33  C   UNL     1      -2.318  15.198   0.107  0.00  0.00    +0.132 C 
ATOM     34  C   UNL     1      -3.860  15.170   0.122  0.00  0.00    +0.124 C 
ATOM     35  N   UNL     1      -4.171  13.731   0.112  0.00  0.00    -0.329 N 
ATOM     36  H   UNL     1      -5.060  13.342   0.113  0.00  0.00    +0.147 HD
ATOM     37  N   UNL     1      -1.931  13.778   0.095  0.00  0.00    -0.371 N 
ATOM     38  H   UNL     1      -0.965  13.430   0.084  0.00  0.00    +0.161 HD
ENDBRANCH  27  32
ENDBRANCH  22  23
ENDBRANCH   9  21
TORSDOF 5
