REMARK  Name = ZINC12566888
REMARK  7 active torsions:
REMARK  status: ('A' for Active; 'I' for Inactive)
REMARK    1  A    between atoms: C_1  and  C_2
REMARK    2  A    between atoms: C_4  and  C_37
REMARK    3  A    between atoms: C_9  and  C_14
REMARK    4  A    between atoms: C_14  and  C_16
REMARK    5  A    between atoms: C_14  and  N_26
REMARK    6  A    between atoms: N_20  and  C_21
REMARK    7  A    between atoms: C_34  and  C_36
REMARK                            x       y       z     vdW  Elec       q    Type
REMARK                         _______ _______ _______ _____ _____    ______ ____
ROOT
ATOM      1  C   UNL     1      -1.659  -1.187  -0.901  0.00  0.00    +0.179 C 
ENDROOT
BRANCH   1  10
ATOM      2  C   UNL     1      -5.760   0.603  -6.867  0.00  0.00    +0.044 C 
ATOM      3  C   UNL     1      -4.446   0.598  -6.129  0.00  0.00    -0.050 A 
ATOM      4  C   UNL     1      -3.328   1.181  -6.710  0.00  0.00    +0.008 A 
ATOM      5  C   UNL     1      -2.116   1.188  -6.053  0.00  0.00    -0.026 A 
ATOM      6  C   UNL     1      -2.011   0.605  -4.794  0.00  0.00    +0.052 A 
ATOM      7  C   UNL     1      -3.146   0.015  -4.208  0.00  0.00    -0.001 A 
ATOM      8  C   UNL     1      -4.366   0.019  -4.894  0.00  0.00    +0.013 A 
ATOM      9  C   UNL     1      -3.024  -0.600  -2.885  0.00  0.00    +0.021 A 
ATOM     10  C   UNL     1      -1.818  -0.569  -2.265  0.00  0.00    +0.045 A 
ATOM     11  C   UNL     1      -0.710   0.036  -2.897  0.00  0.00    +0.255 A 
ATOM     12  O   UNL     1       0.366   0.050  -2.324  0.00  0.00    -0.268 OA
ATOM     13  N   UNL     1      -0.812   0.599  -4.114  0.00  0.00    -0.322 N 
ATOM     14  H   UNL     1      -0.030   1.006  -4.519  0.00  0.00    +0.169 HD
ATOM     15  C   UNL     1      -0.911   1.825  -6.695  0.00  0.00    +0.046 C 
ENDBRANCH   1  10
BRANCH   1  16
ATOM     16  N   UNL     1      -1.052  -0.210   0.013  0.00  0.00    -0.312 N 
ATOM     17  C   UNL     1      -1.907   0.879   0.223  0.00  0.00    +0.034 A 
ATOM     18  C   UNL     1      -2.727   1.560  -0.676  0.00  0.00    +0.023 A 
ATOM     19  C   UNL     1      -3.487   2.629  -0.249  0.00  0.00    +0.002 A 
ATOM     20  C   UNL     1      -3.440   3.033   1.073  0.00  0.00    +0.000 A 
ATOM     21  C   UNL     1      -2.632   2.360   1.972  0.00  0.00    +0.005 A 
ATOM     22  C   UNL     1      -1.873   1.289   1.550  0.00  0.00    -0.025 A 
ATOM     23  C   UNL     1      -0.924   0.373   2.298  0.00  0.00    +0.059 C 
ATOM     24  C   UNL     1      -0.764  -0.821   1.328  0.00  0.00    +0.076 C 
ATOM     25  C   UNL     1      -1.776  -1.924   1.647  0.00  0.00    +0.028 C 
ENDBRANCH   1  16
BRANCH   1  26
ATOM     26  C   UNL     1      -0.771  -2.401  -1.000  0.00  0.00    +0.177 A 
ATOM     27  N   UNL     1       0.536  -2.423  -0.913  0.00  0.00    -0.111 NA
ATOM     28  N   UNL     1       0.923  -3.645  -1.045  0.00  0.00    -0.023 NA
ATOM     29  N   UNL     1      -0.103  -4.402  -1.222  0.00  0.00    -0.044 NA
ATOM     30  N   UNL     1      -1.167  -3.672  -1.200  0.00  0.00    -0.224 N 
BRANCH  30  31
ATOM     31  C   UNL     1      -2.546  -4.138  -1.364  0.00  0.00    +0.111 C 
ATOM     32  C   UNL     1      -2.878  -5.193  -0.289  0.00  0.00    +0.027 C 
ATOM     33  C   UNL     1      -3.778  -6.217  -1.027  0.00  0.00    +0.002 C 
ATOM     34  C   UNL     1      -3.135  -6.286  -2.435  0.00  0.00    +0.002 C 
ATOM     35  C   UNL     1      -2.709  -4.832  -2.728  0.00  0.00    +0.027 C 
ENDBRANCH  30  31
ENDBRANCH   1  26
TORSDOF 4
