REMARK  Name = ZINC35921956
REMARK  11 active torsions:
REMARK  status: ('A' for Active; 'I' for Inactive)
REMARK    1  A    between atoms: C_1  and  O_2
REMARK    2  A    between atoms: O_2  and  C_3
REMARK    3  A    between atoms: C_8  and  N_9
REMARK    4  A    between atoms: C_12  and  C_14
REMARK    5  A    between atoms: C_14  and  N_15
REMARK    6  A    between atoms: N_15  and  C_16
REMARK    7  A    between atoms: N_15  and  S_20
REMARK    8  A    between atoms: C_16  and  C_17
REMARK    9  A    between atoms: S_20  and  C_23
REMARK   10  A    between atoms: N_30  and  C_33
REMARK   11  A    between atoms: C_33  and  C_34
REMARK                            x       y       z     vdW  Elec       q    Type
REMARK                         _______ _______ _______ _____ _____    ______ ____
ROOT
ATOM      1  N   UNL     1      -0.272  -3.552  -0.782  0.00  0.00    -0.233 N 
ATOM      2  C   UNL     1       0.023  -4.849  -0.600  0.00  0.00    +0.045 A 
ATOM      3  C   UNL     1       1.363  -4.947  -0.386  0.00  0.00    -0.018 A 
ATOM      4  C   UNL     1       1.901  -3.666  -0.445  0.00  0.00    +0.081 A 
ATOM      5  N   UNL     1       0.924  -2.824  -0.688  0.00  0.00    -0.169 NA
ATOM      6  C   UNL     1       2.067  -6.256  -0.133  0.00  0.00    -0.039 C 
ATOM      7  N   UNL     1       1.060  -7.259   0.248  0.00  0.00    +0.385 N 
ATOM      8  C   UNL     1      -0.019  -7.301  -0.748  0.00  0.00    -0.072 C 
ATOM      9  C   UNL     1      -0.894  -6.046  -0.616  0.00  0.00    +0.037 C 
ATOM     10  H   UNL     1       0.673  -7.020   1.149  0.00  0.00    -0.081 HD
ENDROOT
BRANCH   1  16
ATOM     11  C   UNL     1      -1.738  -2.121  -2.074  0.00  0.00    +0.145 A 
ATOM     12  C   UNL     1      -3.001  -1.603  -2.316  0.00  0.00    +0.048 A 
ATOM     13  C   UNL     1      -4.066  -1.976  -1.517  0.00  0.00    +0.004 A 
ATOM     14  C   UNL     1      -3.875  -2.866  -0.476  0.00  0.00    +0.002 A 
ATOM     15  C   UNL     1      -2.620  -3.386  -0.228  0.00  0.00    +0.031 A 
ATOM     16  C   UNL     1      -1.547  -3.021  -1.028  0.00  0.00    +0.107 A 
BRANCH  11  18
ATOM     17  C   UNL     1      -0.961  -0.828  -3.912  0.00  0.00    +0.277 C 
ATOM     18  O   UNL     1      -0.690  -1.755  -2.859  0.00  0.00    -0.493 OA
ENDBRANCH  11  18
ENDBRANCH   1  16
BRANCH   4  19
ATOM     19  C   UNL     1       3.354  -3.307  -0.267  0.00  0.00    +0.166 C 
BRANCH  19  20
ATOM     20  N   UNL     1       3.974  -3.115  -1.580  0.00  0.00    -0.170 NA
BRANCH  20  21
ATOM     21  S   UNL     1       3.543  -1.820  -2.518  0.00  0.00    +0.061 S 
ATOM     22  O   UNL     1       3.677  -2.235  -3.870  0.00  0.00    -0.153 OA
ATOM     23  O   UNL     1       2.319  -1.326  -1.990  0.00  0.00    -0.153 OA
BRANCH  21  24
ATOM     24  C   UNL     1       4.749  -0.562  -2.255  0.00  0.00    +0.105 A 
ATOM     25  C   UNL     1       4.628   0.297  -1.178  0.00  0.00    +0.028 A 
ATOM     26  C   UNL     1       5.574   1.283  -0.972  0.00  0.00    +0.002 A 
ATOM     27  C   UNL     1       6.641   1.411  -1.842  0.00  0.00    +0.000 A 
ATOM     28  C   UNL     1       6.762   0.552  -2.918  0.00  0.00    +0.002 A 
ATOM     29  C   UNL     1       5.818  -0.438  -3.122  0.00  0.00    +0.028 A 
ENDBRANCH  21  24
ENDBRANCH  20  21
BRANCH  20  30
ATOM     30  C   UNL     1       4.975  -4.068  -2.064  0.00  0.00    +0.113 C 
BRANCH  30  31
ATOM     31  C   UNL     1       4.272  -5.252  -2.732  0.00  0.00    +0.005 C 
ATOM     32  C   UNL     1       4.445  -6.630  -2.091  0.00  0.00    +0.005 C 
ATOM     33  C   UNL     1       5.151  -6.305  -3.409  0.00  0.00    +0.005 C 
ENDBRANCH  30  31
ENDBRANCH  20  30
ENDBRANCH  19  20
ENDBRANCH   4  19
BRANCH   7  34
ATOM     34  C   UNL     1       1.696  -8.581   0.332  0.00  0.00    -0.051 C 
BRANCH  34  35
ATOM     35  C   UNL     1       0.698  -9.588   0.840  0.00  0.00    -0.053 C 
ATOM     36  C   UNL     1       0.454 -10.674   0.149  0.00  0.00    +0.002 C 
ENDBRANCH  34  35
ENDBRANCH   7  34
TORSDOF 10
