REMARK  Name = ZINC39109248
REMARK  5 active torsions:
REMARK  status: ('A' for Active; 'I' for Inactive)
REMARK    1  A    between atoms: C_1  and  C_2
REMARK    2  A    between atoms: C_7  and  C_15
REMARK    3  A    between atoms: C_7  and  C_16
REMARK    4  A    between atoms: C_8  and  C_9
REMARK    5  A    between atoms: C_8  and  C_12
REMARK                            x       y       z     vdW  Elec       q    Type
REMARK                         _______ _______ _______ _____ _____    ______ ____
ROOT
ATOM      1  C   UNL     1      -0.291   0.992  -0.810  0.00  0.00    +0.013 C 
ATOM      2  C   UNL     1       0.019  -0.473  -0.478  0.00  0.00    +0.037 C 
ATOM      3  C   UNL     1       0.803  -1.082  -1.593  0.00  0.00    -0.026 C 
ATOM      4  C   UNL     1       1.879  -1.786  -1.440  0.00  0.00    -0.030 C 
ATOM      5  C   UNL     1       2.462  -2.048  -0.082  0.00  0.00    +0.035 C 
ATOM      6  C   UNL     1       2.177  -0.852   0.826  0.00  0.00    -0.005 C 
ATOM      7  C   UNL     1       0.680  -0.564   0.888  0.00  0.00    +0.183 C 
ATOM      8  C   UNL     1       2.941   0.375   0.318  0.00  0.00    +0.013 C 
ATOM      9  C   UNL     1       2.679  -1.182   2.243  0.00  0.00    +0.013 C 
ENDROOT
BRANCH   7  10
ATOM     10  C   UNL     1       0.476   0.755   1.612  0.00  0.00    +0.374 C 
ATOM     11  O   UNL     1      -0.248   0.807   2.591  0.00  0.00    -0.245 OA
ATOM     12  O   UNL     1       1.035   1.763   1.213  0.00  0.00    -0.245 OA
ENDBRANCH   7  10
BRANCH   7  13
ATOM     13  C   UNL     1      -0.004  -1.643   1.700  0.00  0.00    +0.374 C 
ATOM     14  O   UNL     1      -0.646  -2.514   1.138  0.00  0.00    -0.245 OA
ATOM     15  O   UNL     1       0.087  -1.641   2.916  0.00  0.00    -0.245 OA
ENDBRANCH   7  13
TORSDOF 2
