REMARK  Name = ZINC36343004
REMARK  12 active torsions:
REMARK  status: ('A' for Active; 'I' for Inactive)
REMARK    1  A    between atoms: C_1  and  C_2
REMARK    2  A    between atoms: C_2  and  O_3
REMARK    3  A    between atoms: O_3  and  C_4
REMARK    4  A    between atoms: C_4  and  C_6
REMARK    5  A    between atoms: N_12  and  C_13
REMARK    6  A    between atoms: C_13  and  C_14
REMARK    7  A    between atoms: C_17  and  C_30
REMARK    8  A    between atoms: C_20  and  C_22
REMARK    9  A    between atoms: C_27  and  O_28
REMARK   10  A    between atoms: O_28  and  C_29
REMARK   11  A    between atoms: C_35  and  O_36
REMARK   12  A    between atoms: O_36  and  C_37
REMARK                            x       y       z     vdW  Elec       q    Type
REMARK                         _______ _______ _______ _____ _____    ______ ____
ROOT
ATOM      1  C   UNL     1       2.347  -5.661  -1.065  0.00  0.00    +0.219 C 
ATOM      2  O   UNL     1       1.877  -6.370  -1.930  0.00  0.00    -0.276 OA
ATOM      3  N   UNL     1       2.950  -6.214   0.006  0.00  0.00    -0.187 N 
ATOM      4  C   UNL     1       3.114  -7.656   0.246  0.00  0.00    +0.140 C 
ATOM      5  C   UNL     1       3.861  -7.716   1.593  0.00  0.00    +0.087 C 
ATOM      6  C   UNL     1       4.041  -6.264   1.975  0.00  0.00    +0.072 C 
ATOM      7  N   UNL     1       3.527  -5.513   1.063  0.00  0.00    -0.181 NA
ENDROOT
BRANCH   6   8
ATOM      8  C   UNL     1       4.707  -5.783   3.198  0.00  0.00    +0.039 A 
ATOM      9  C   UNL     1       5.239  -6.694   4.113  0.00  0.00    +0.013 A 
ATOM     10  C   UNL     1       5.861  -6.237   5.256  0.00  0.00    +0.001 A 
ATOM     11  C   UNL     1       5.960  -4.878   5.501  0.00  0.00    +0.004 A 
ATOM     12  C   UNL     1       5.438  -3.966   4.603  0.00  0.00    +0.046 A 
ATOM     13  C   UNL     1       4.816  -4.408   3.447  0.00  0.00    +0.129 A 
BRANCH  13  14
ATOM     14  O   UNL     1       4.308  -3.513   2.561  0.00  0.00    -0.494 OA
ATOM     15  C   UNL     1       4.456  -2.128   2.881  0.00  0.00    +0.277 C 
ENDBRANCH  13  14
ENDBRANCH   6   8
BRANCH   4  16
ATOM     16  C   UNL     1       1.771  -8.332   0.350  0.00  0.00    +0.017 A 
ATOM     17  C   UNL     1       0.637  -7.583   0.599  0.00  0.00    +0.009 A 
ATOM     18  C   UNL     1      -0.595  -8.203   0.695  0.00  0.00    +0.001 A 
ATOM     19  C   UNL     1      -0.696  -9.573   0.541  0.00  0.00    +0.004 A 
ATOM     20  C   UNL     1       0.434 -10.327   0.292  0.00  0.00    +0.046 A 
ATOM     21  C   UNL     1       1.672  -9.707   0.190  0.00  0.00    +0.125 A 
BRANCH  21  22
ATOM     22  O   UNL     1       2.784 -10.445  -0.061  0.00  0.00    -0.495 OA
ATOM     23  C   UNL     1       2.607 -11.855  -0.215  0.00  0.00    +0.277 C 
ENDBRANCH  21  22
ENDBRANCH   4  16
BRANCH   1  24
ATOM     24  C   UNL     1       2.255  -4.162  -1.187  0.00  0.00    +0.022 C 
BRANCH  24  30
ATOM     25  C   UNL     1       1.319  -2.366  -2.470  0.00  0.00    +0.043 C 
ATOM     26  C   UNL     1       0.521  -2.010  -3.726  0.00  0.00    -0.004 C 
ATOM     27  C   UNL     1       1.316  -2.430  -4.965  0.00  0.00    -0.003 C 
ATOM     28  C   UNL     1       1.623  -3.928  -4.879  0.00  0.00    -0.019 C 
ATOM     29  C   UNL     1       2.380  -4.213  -3.580  0.00  0.00    -0.077 C 
ATOM     30  N   UNL     1       1.557  -3.814  -2.432  0.00  0.00    +0.394 N 
ATOM     31  H   UNL     1       0.673  -4.300  -2.467  0.00  0.00    -0.080 HD
BRANCH  25  32
ATOM     32  C   UNL     1       0.541  -1.953  -1.247  0.00  0.00    +0.293 C 
ATOM     33  O   UNL     1      -0.211  -2.737  -0.717  0.00  0.00    -0.253 OA
BRANCH  32  34
ATOM     34  O   UNL     1       0.682  -0.716  -0.747  0.00  0.00    -0.466 OA
BRANCH  34  36
ATOM     35  C   UNL     1       0.206   1.049   0.833  0.00  0.00    +0.048 C 
ATOM     36  C   UNL     1      -0.086  -0.393   0.413  0.00  0.00    +0.228 C 
ENDBRANCH  34  36
ENDBRANCH  32  34
ENDBRANCH  25  32
ENDBRANCH  24  30
ENDBRANCH   1  24
TORSDOF 9
