REMARK  Name = ZINC02155874
REMARK  7 active torsions:
REMARK  status: ('A' for Active; 'I' for Inactive)
REMARK    1  A    between atoms: C_4  and  N_11
REMARK    2  A    between atoms: C_5  and  C_7
REMARK    3  A    between atoms: N_14  and  N_15
REMARK    4  A    between atoms: C_16  and  C_18
REMARK    5  A    between atoms: C_18  and  N_19
REMARK    6  A    between atoms: N_22  and  C_23
REMARK    7  A    between atoms: C_23  and  C_24
REMARK                            x       y       z     vdW  Elec       q    Type
REMARK                         _______ _______ _______ _____ _____    ______ ____
ROOT
ATOM      1  N   UNL     1       1.125   3.301   0.029  0.00  0.00    -0.232 N 
ATOM      2  C   UNL     1       2.283   3.990   0.031  0.00  0.00    +0.246 C 
ATOM      3  O   UNL     1       3.341   3.398   0.023  0.00  0.00    -0.273 OA
ATOM      4  H   UNL     1       0.279   3.775   0.035  0.00  0.00    +0.173 HD
ENDROOT
BRANCH   1   8
ATOM      5  N   UNL     1      -1.191   1.870   0.018  0.00  0.00    -0.268 N 
ATOM      6  C   UNL     1      -0.015   1.211   0.014  0.00  0.00    +0.320 C 
ATOM      7  O   UNL     1       0.001  -0.004   0.004  0.00  0.00    -0.251 OA
ATOM      8  N   UNL     1       1.144   1.901   0.017  0.00  0.00    -0.218 N 
ATOM      9  H   UNL     1      -1.205   2.837   0.092  0.00  0.00    +0.156 HD
ATOM     10  H   UNL     1       1.990   1.427   0.010  0.00  0.00    +0.174 HD
BRANCH   5  14
ATOM     11  C   UNL     1      -4.765  -0.249  -0.291  0.00  0.00    +0.001 A 
ATOM     12  C   UNL     1      -3.698  -0.793   0.400  0.00  0.00    +0.002 A 
ATOM     13  C   UNL     1      -2.510  -0.096   0.499  0.00  0.00    +0.024 A 
ATOM     14  C   UNL     1      -2.391   1.158  -0.086  0.00  0.00    +0.046 A 
ATOM     15  C   UNL     1      -3.465   1.702  -0.779  0.00  0.00    +0.076 A 
ATOM     16  C   UNL     1      -4.648   0.997  -0.880  0.00  0.00    +0.014 A 
BRANCH  15  17
ATOM     17  C   UNL     1      -3.338   3.059  -1.421  0.00  0.00    +0.419 C 
ATOM     18  F   UNL     1      -4.540   3.389  -2.055  0.00  0.00    -0.166 F 
ATOM     19  F   UNL     1      -3.051   4.014  -0.440  0.00  0.00    -0.166 F 
ATOM     20  F   UNL     1      -2.305   3.035  -2.364  0.00  0.00    -0.166 F 
ENDBRANCH  15  17
ENDBRANCH   5  14
ENDBRANCH   1   8
BRANCH   2  21
ATOM     21  C   UNL     1       2.263   5.497   0.044  0.00  0.00    +0.203 C 
BRANCH  21  22
ATOM     22  N   UNL     1       3.638   6.004   0.044  0.00  0.00    -0.291 N 
ATOM     23  C   UNL     1       3.867   7.332   0.054  0.00  0.00    +0.300 C 
ATOM     24  O   UNL     1       2.932   8.110   0.064  0.00  0.00    -0.253 OA
ATOM     25  N   UNL     1       5.131   7.798   0.054  0.00  0.00    -0.292 N 
ATOM     26  H   UNL     1       4.383   5.383   0.036  0.00  0.00    +0.151 HD
ATOM     27  H   UNL     1       5.877   7.178   0.047  0.00  0.00    +0.151 HD
BRANCH  25  28
ATOM     28  C   UNL     1       5.380   9.242   0.066  0.00  0.00    +0.180 C 
BRANCH  28  29
ATOM     29  C   UNL     1       6.865   9.496   0.063  0.00  0.00    +0.122 A 
ATOM     30  C   UNL     1       7.638   9.637  -1.029  0.00  0.00    +0.046 A 
ATOM     31  C   UNL     1       8.957   9.859  -0.572  0.00  0.00    +0.041 A 
ATOM     32  C   UNL     1       8.912   9.839   0.772  0.00  0.00    +0.195 A 
ATOM     33  O   UNL     1       7.642   9.625   1.152  0.00  0.00    -0.466 OA
ENDBRANCH  28  29
ENDBRANCH  25  28
ENDBRANCH  21  22
ENDBRANCH   2  21
TORSDOF 7
