REMARK  Name = ZINC32582067
REMARK  7 active torsions:
REMARK  status: ('A' for Active; 'I' for Inactive)
REMARK    1  A    between atoms: C_1  and  C_2
REMARK    2  A    between atoms: C_5  and  C_7
REMARK    3  A    between atoms: C_8  and  C_19
REMARK    4  A    between atoms: N_10  and  C_12
REMARK    5  A    between atoms: C_19  and  N_20
REMARK    6  A    between atoms: N_20  and  C_21
REMARK    7  A    between atoms: C_21  and  C_22
REMARK                            x       y       z     vdW  Elec       q    Type
REMARK                         _______ _______ _______ _____ _____    ______ ____
ROOT
ATOM      1  C   UNL     1       1.667  -3.225  -0.025  0.00  0.00    +0.129 A 
ATOM      2  C   UNL     1       2.914  -3.284  -0.681  0.00  0.00    -0.016 A 
ATOM      3  C   UNL     1       3.447  -4.504  -0.452  0.00  0.00    +0.117 A 
ATOM      4  N   UNL     1       2.575  -5.202   0.322  0.00  0.00    -0.239 N 
ATOM      5  N   UNL     1       1.470  -4.380   0.582  0.00  0.00    -0.163 NA
ENDROOT
BRANCH   4   6
ATOM      6  C   UNL     1       2.751  -6.512   0.784  0.00  0.00    +0.068 A 
ATOM      7  C   UNL     1       3.905  -7.215   0.460  0.00  0.00    +0.028 A 
ATOM      8  C   UNL     1       4.077  -8.507   0.916  0.00  0.00    +0.005 A 
ATOM      9  C   UNL     1       3.103  -9.102   1.696  0.00  0.00    +0.038 A 
ATOM     10  C   UNL     1       1.952  -8.406   2.022  0.00  0.00    +0.125 A 
ATOM     11  C   UNL     1       1.776  -7.109   1.572  0.00  0.00    +0.066 A 
ATOM     12  F   UNL     1       1.001  -8.990   2.783  0.00  0.00    -0.205 F 
ENDBRANCH   4   6
BRANCH   1  17
ATOM     13  C   UNL     1      -0.018   1.503   0.010  0.00  0.00    +0.086 C 
ATOM     14  C   UNL     1       0.002  -0.004   0.002  0.00  0.00    +0.103 A 
ATOM     15  C   UNL     1      -1.082  -0.804   0.003  0.00  0.00    +0.045 A 
ATOM     16  C   UNL     1      -0.613  -2.134  -0.007  0.00  0.00    +0.052 A 
ATOM     17  C   UNL     1       0.745  -2.070  -0.013  0.00  0.00    +0.155 A 
ATOM     18  O   UNL     1       1.104  -0.772  -0.013  0.00  0.00    -0.458 OA
ENDBRANCH   1  17
BRANCH   2  19
ATOM     19  C   UNL     1       3.541  -2.182  -1.495  0.00  0.00    -0.042 C 
BRANCH  19  20
ATOM     20  N   UNL     1       4.167  -1.204  -0.594  0.00  0.00    +0.385 N 
ATOM     21  H   UNL     1       3.466  -0.814   0.018  0.00  0.00    -0.085 HD
ATOM     22  H   UNL     1       4.878  -1.661  -0.043  0.00  0.00    -0.085 HD
BRANCH  20  23
ATOM     23  C   UNL     1       4.778  -0.129  -1.387  0.00  0.00    -0.026 C 
BRANCH  23  24
ATOM     24  C   UNL     1       5.421   0.874  -0.464  0.00  0.00    +0.023 A 
ATOM     25  C   UNL     1       6.625   0.749   0.135  0.00  0.00    -0.006 A 
ATOM     26  C   UNL     1       6.843   1.893   0.912  0.00  0.00    +0.066 A 
ATOM     27  N   UNL     1       5.809   2.680   0.777  0.00  0.00    -0.178 NA
ATOM     28  H   UNL     1       4.042   2.421  -0.369  0.00  0.00    +0.188 HD
ATOM     29  N   UNL     1       4.898   2.061  -0.089  0.00  0.00    -0.283 N 
ATOM     30  C   UNL     1       8.063   2.150   1.762  0.00  0.00    +0.057 C 
ATOM     31  C   UNL     1       9.319   1.835   0.945  0.00  0.00    +0.006 C 
ATOM     32  C   UNL     1       9.688   0.364   1.107  0.00  0.00    +0.001 C 
ATOM     33  C   UNL     1       8.443  -0.502   1.257  0.00  0.00    +0.005 C 
ATOM     34  C   UNL     1       7.586  -0.406  -0.008  0.00  0.00    +0.039 C 
ENDBRANCH  23  24
ENDBRANCH  20  23
ENDBRANCH  19  20
ENDBRANCH   2  19
TORSDOF 6
