REMARK  Name = ZINC39453213
REMARK  6 active torsions:
REMARK  status: ('A' for Active; 'I' for Inactive)
REMARK    1  A    between atoms: C_1  and  C_2
REMARK    2  A    between atoms: C_2  and  C_3
REMARK    3  A    between atoms: C_2  and  S_4
REMARK    4  A    between atoms: S_4  and  C_7
REMARK    5  A    between atoms: C_26  and  S_29
REMARK    6  A    between atoms: S_29  and  C_30
REMARK                            x       y       z     vdW  Elec       q    Type
REMARK                         _______ _______ _______ _____ _____    ______ ____
ROOT
ATOM      1  C   UNL     1      -0.102  -0.072   2.666  0.00  0.00    +0.098 A 
ATOM      2  C   UNL     1      -0.664  -0.902   3.588  0.00  0.00    +0.028 A 
ATOM      3  C   UNL     1      -1.485  -0.416   4.602  0.00  0.00    +0.004 A 
ATOM      4  C   UNL     1      -1.766   0.910   4.722  0.00  0.00    +0.028 A 
ATOM      5  C   UNL     1      -1.218   1.823   3.802  0.00  0.00    +0.074 A 
ATOM      6  C   UNL     1      -0.350   1.308   2.740  0.00  0.00    +0.026 A 
ATOM      7  C   UNL     1       0.207   2.212   1.821  0.00  0.00    +0.027 A 
ATOM      8  C   UNL     1      -0.098   3.556   1.971  0.00  0.00    +0.068 A 
ATOM      9  C   UNL     1      -0.946   3.986   3.026  0.00  0.00    +0.100 A 
ATOM     10  N   UNL     1      -1.470   3.129   3.883  0.00  0.00    -0.245 NA
ATOM     11  C   UNL     1      -1.238   5.426   3.134  0.00  0.00    +0.083 A 
ATOM     12  C   UNL     1      -0.688   6.309   2.228  0.00  0.00    +0.122 A 
ATOM     13  N   UNL     1       0.140   5.862   1.204  0.00  0.00    -0.237 N 
ATOM     14  C   UNL     1       0.447   4.563   1.046  0.00  0.00    +0.271 A 
ATOM     15  O   UNL     1       1.178   4.218   0.136  0.00  0.00    -0.266 OA
ATOM     16 BR   UNL     1       0.843   7.096   0.019  0.00  0.00    +0.058 Br
ATOM     17  C   UNL     1      -0.963   7.692   2.338  0.00  0.00    +0.185 C 
ATOM     18  O   UNL     1      -0.518   8.462   1.511  0.00  0.00    -0.290 OA
ATOM     19  C   UNL     1      -1.802   8.220   3.472  0.00  0.00    +0.114 C 
ATOM     20  C   UNL     1      -2.804   7.144   3.906  0.00  0.00    +0.136 C 
ATOM     21  N   UNL     1      -2.066   5.893   4.137  0.00  0.00    -0.328 N 
ATOM     22  H   UNL     1      -2.156   5.409   4.973  0.00  0.00    +0.147 HD
ENDROOT
BRANCH   1  23
ATOM     23  S   UNL     1       0.932  -0.723   1.397  0.00  0.00    -0.000 S 
ATOM     24  O   UNL     1       0.414  -0.178   0.192  0.00  0.00    -0.169 OA
ATOM     25  O   UNL     1       0.933  -2.127   1.615  0.00  0.00    -0.169 OA
BRANCH  23  27
ATOM     26  C   UNL     1       3.040  -0.488   3.124  0.00  0.00    +0.032 C 
ATOM     27  C   UNL     1       2.576  -0.036   1.738  0.00  0.00    +0.130 C 
ATOM     28  C   UNL     1       3.565  -0.533   0.681  0.00  0.00    +0.032 C 
ENDBRANCH  23  27
ENDBRANCH   1  23
BRANCH  20  29
ATOM     29  S   UNL     1      -4.038   6.894   2.599  0.00  0.00    -0.142 S 
ATOM     30  C   UNL     1      -4.177   5.090   2.466  0.00  0.00    +0.086 C 
ENDBRANCH  20  29
TORSDOF 3
