REMARK  Name = ZINC18193391
REMARK  9 active torsions:
REMARK  status: ('A' for Active; 'I' for Inactive)
REMARK    1  A    between atoms: C_1  and  C_2
REMARK    2  A    between atoms: C_2  and  C_3
REMARK    3  A    between atoms: C_2  and  C_4
REMARK    4  A    between atoms: C_2  and  C_5
REMARK    5  A    between atoms: C_8  and  C_11
REMARK    6  A    between atoms: C_14  and  C_16
REMARK    7  A    between atoms: N_18  and  N_19
REMARK    8  A    between atoms: N_27  and  C_30
REMARK    9  A    between atoms: C_30  and  C_31
REMARK                            x       y       z     vdW  Elec       q    Type
REMARK                         _______ _______ _______ _____ _____    ______ ____
ROOT
ATOM      1  N   UNL     1       0.391   6.346  -0.173  0.00  0.00    -0.175 NA
ATOM      2  C   UNL     1      -0.421   5.318  -0.131  0.00  0.00    +0.153 C 
ATOM      3  C   UNL     1      -0.083   3.892  -0.345  0.00  0.00    +0.028 A 
ATOM      4  C   UNL     1       1.104   3.229  -0.638  0.00  0.00    +0.012 A 
ATOM      5  C   UNL     1       1.103   1.856  -0.783  0.00  0.00    +0.001 A 
ATOM      6  C   UNL     1      -0.076   1.143  -0.637  0.00  0.00    +0.002 A 
ATOM      7  C   UNL     1      -1.259   1.794  -0.352  0.00  0.00    +0.024 A 
ATOM      8  C   UNL     1      -1.277   3.175  -0.197  0.00  0.00    +0.046 A 
ATOM      9  N   UNL     1      -2.311   4.060   0.091  0.00  0.00    -0.261 N 
ATOM     10  C   UNL     1      -1.872   5.329   0.143  0.00  0.00    +0.272 C 
ATOM     11  O   UNL     1      -2.550   6.312   0.375  0.00  0.00    -0.268 OA
ENDROOT
BRANCH   1  14
ATOM     12  C   UNL     1       2.591   7.200  -0.485  0.00  0.00    +0.236 C 
ATOM     13  O   UNL     1       2.137   8.324  -0.512  0.00  0.00    -0.274 OA
ATOM     14  N   UNL     1       1.770   6.145  -0.318  0.00  0.00    -0.206 N 
ATOM     15  H   UNL     1       2.133   5.246  -0.296  0.00  0.00    +0.177 HD
BRANCH  12  18
ATOM     16  C   UNL     1       4.954   8.221  -0.828  0.00  0.00    +0.032 C 
ATOM     17  C   UNL     1       4.981   7.457   0.497  0.00  0.00    +0.022 C 
ATOM     18  C   UNL     1       4.075   6.983  -0.640  0.00  0.00    +0.085 C 
BRANCH  16  22
ATOM     19  C   UNL     1       3.016  12.027  -0.872  0.00  0.00    -0.042 A 
ATOM     20  C   UNL     1       3.741  11.608  -1.972  0.00  0.00    +0.004 A 
ATOM     21  C   UNL     1       4.368  10.377  -1.958  0.00  0.00    +0.004 A 
ATOM     22  C   UNL     1       4.270   9.564  -0.844  0.00  0.00    -0.044 A 
ATOM     23  C   UNL     1       3.541   9.981   0.254  0.00  0.00    +0.004 A 
ATOM     24  C   UNL     1       2.918  11.215   0.242  0.00  0.00    +0.004 A 
BRANCH  19  26
ATOM     25  C   UNL     1       1.321  13.414  -2.036  0.00  0.00    +0.015 C 
ATOM     26  C   UNL     1       2.332  13.370  -0.888  0.00  0.00    -0.013 C 
ATOM     27  C   UNL     1       1.604  13.588   0.440  0.00  0.00    +0.015 C 
ATOM     28  C   UNL     1       3.375  14.472  -1.085  0.00  0.00    +0.015 C 
ENDBRANCH  19  26
ENDBRANCH  16  22
ENDBRANCH  12  18
ENDBRANCH   1  14
BRANCH   9  29
ATOM     29  C   UNL     1      -3.703   3.658   0.310  0.00  0.00    +0.149 C 
BRANCH  29  30
ATOM     30  C   UNL     1      -3.885   3.240   1.746  0.00  0.00    -0.022 A 
ATOM     31  C   UNL     1      -2.853   3.352   2.627  0.00  0.00    +0.006 A 
ATOM     32  C   UNL     1      -3.004   2.975   3.960  0.00  0.00    +0.001 A 
ATOM     33  C   UNL     1      -4.185   2.474   4.417  0.00  0.00    +0.008 A 
ATOM     34  C   UNL     1      -5.270   2.338   3.536  0.00  0.00    -0.018 A 
ATOM     35  C   UNL     1      -5.118   2.726   2.181  0.00  0.00    -0.013 A 
ATOM     36  C   UNL     1      -6.205   2.591   1.300  0.00  0.00    +0.009 A 
ATOM     37  C   UNL     1      -7.385   2.091   1.757  0.00  0.00    +0.001 A 
ATOM     38  C   UNL     1      -7.534   1.709   3.089  0.00  0.00    +0.001 A 
ATOM     39  C   UNL     1      -6.504   1.825   3.971  0.00  0.00    +0.008 A 
ENDBRANCH  29  30
ENDBRANCH   9  29
TORSDOF 6
