REMARK  Name = ZINC24034051
REMARK  4 active torsions:
REMARK  status: ('A' for Active; 'I' for Inactive)
REMARK    1  A    between atoms: C_10  and  N_11
REMARK    2  A    between atoms: C_12  and  C_14
REMARK    3  A    between atoms: C_14  and  C_15
REMARK    4  A    between atoms: N_21  and  C_22
REMARK                            x       y       z     vdW  Elec       q    Type
REMARK                         _______ _______ _______ _____ _____    ______ ____
ROOT
ATOM      1  C   UNL     1       8.511  -0.753   0.231  0.00  0.00    +0.149 C 
ATOM      2  C   UNL     1       9.836  -0.011   0.309  0.00  0.00    +0.232 C 
ATOM      3  O   UNL     1      10.223   0.712  -0.584  0.00  0.00    -0.274 OA
ATOM      4  N   UNL     1      10.540  -0.204   1.412  0.00  0.00    -0.264 N 
ATOM      5  C   UNL     1      10.107  -1.025   2.432  0.00  0.00    +0.161 C 
ATOM      6  N   UNL     1      10.709  -1.295   3.566  0.00  0.00    -0.226 NA
ATOM      7  S   UNL     1       8.532  -1.635   1.847  0.00  0.00    -0.077 S 
ATOM      8  H   UNL     1      11.392   0.249   1.506  0.00  0.00    +0.157 HD
ENDROOT
BRANCH   6   9
ATOM      9  C   UNL     1      10.122  -2.142   4.469  0.00  0.00    +0.070 A 
ATOM     10  C   UNL     1       8.764  -2.016   4.766  0.00  0.00    +0.031 A 
ATOM     11  C   UNL     1       8.176  -2.870   5.677  0.00  0.00    +0.051 A 
ATOM     12  C   UNL     1       8.930  -3.855   6.300  0.00  0.00    +0.162 A 
ATOM     13  C   UNL     1      10.283  -3.987   6.007  0.00  0.00    +0.164 A 
ATOM     14  C   UNL     1      10.878  -3.136   5.091  0.00  0.00    +0.077 A 
ATOM     15  O   UNL     1      11.034  -4.953   6.603  0.00  0.00    -0.485 OA
ATOM     16  C   UNL     1      10.493  -5.551   7.786  0.00  0.00    +0.270 C 
ATOM     17  C   UNL     1       9.021  -5.895   7.520  0.00  0.00    +0.270 C 
ATOM     18  O   UNL     1       8.329  -4.684   7.199  0.00  0.00    -0.485 OA
ENDBRANCH   6   9
BRANCH   1  19
ATOM     19  C   UNL     1       7.334   0.221   0.146  0.00  0.00    +0.120 C 
BRANCH  19  21
ATOM     20  N   UNL     1       4.871   0.098  -0.045  0.00  0.00    -0.285 N 
ATOM     21  C   UNL     1       6.047  -0.555   0.042  0.00  0.00    +0.219 C 
ATOM     22  O   UNL     1       6.068  -1.768   0.036  0.00  0.00    -0.275 OA
ATOM     23  H   UNL     1       4.858   1.065  -0.121  0.00  0.00    +0.155 HD
BRANCH  20  33
ATOM     24  C   UNL     1       0.203   0.945  -1.767  0.00  0.00    +0.001 A 
ATOM     25  C   UNL     1       1.389   1.676  -1.797  0.00  0.00    +0.001 A 
ATOM     26  C   UNL     1       2.529   1.185  -1.236  0.00  0.00    +0.010 A 
ATOM     27  C   UNL     1       2.511  -0.076  -0.618  0.00  0.00    +0.003 A 
ATOM     28  C   UNL     1       1.306  -0.819  -0.587  0.00  0.00    -0.016 A 
ATOM     29  C   UNL     1       0.149  -0.280  -1.177  0.00  0.00    +0.008 A 
ATOM     30  C   UNL     1       1.286  -2.080   0.032  0.00  0.00    +0.008 A 
ATOM     31  C   UNL     1       2.422  -2.578   0.596  0.00  0.00    +0.002 A 
ATOM     32  C   UNL     1       3.612  -1.857   0.572  0.00  0.00    +0.024 A 
ATOM     33  C   UNL     1       3.672  -0.617  -0.026  0.00  0.00    +0.041 A 
ENDBRANCH  20  33
ENDBRANCH  19  21
ENDBRANCH   1  19
TORSDOF 4
