REMARK  Name = ZINC22066467
REMARK  7 active torsions:
REMARK  status: ('A' for Active; 'I' for Inactive)
REMARK    1  A    between atoms: C_1  and  N_2
REMARK    2  A    between atoms: N_2  and  C_3
REMARK    3  A    between atoms: C_6  and  N_9
REMARK    4  A    between atoms: N_9  and  C_10
REMARK    5  A    between atoms: C_10  and  C_11
REMARK    6  A    between atoms: C_15  and  C_17
REMARK    7  A    between atoms: C_23  and  C_25
REMARK                            x       y       z     vdW  Elec       q    Type
REMARK                         _______ _______ _______ _____ _____    ______ ____
ROOT
ATOM      1  N   UNL     1       2.807   7.987   0.024  0.00  0.00    -0.290 N 
ATOM      2  C   UNL     1       3.454   6.969  -0.578  0.00  0.00    +0.255 C 
ATOM      3  O   UNL     1       4.658   6.852  -0.448  0.00  0.00    -0.269 OA
ENDROOT
BRANCH   2   4
ATOM      4  C   UNL     1       2.705   6.001  -1.389  0.00  0.00    +0.093 A 
ATOM      5  C   UNL     1       3.025   5.489  -2.608  0.00  0.00    +0.068 A 
ATOM      6  C   UNL     1       2.165   4.562  -3.227  0.00  0.00    +0.008 A 
ATOM      7  C   UNL     1       2.322   3.921  -4.483  0.00  0.00    +0.010 A 
ATOM      8  C   UNL     1       1.391   3.044  -4.937  0.00  0.00    +0.001 A 
ATOM      9  C   UNL     1       0.252   2.744  -4.200  0.00  0.00    +0.001 A 
ATOM     10  C   UNL     1       0.062   3.341  -2.970  0.00  0.00    +0.016 A 
ATOM     11  C   UNL     1       1.000   4.233  -2.496  0.00  0.00    +0.021 A 
ATOM     12  S   UNL     1       1.151   5.205  -1.018  0.00  0.00    -0.082 S 
ATOM     13 CL   UNL     1       4.490   5.979  -3.400  0.00  0.00    -0.082 Cl
ENDBRANCH   2   4
BRANCH   1  17
ATOM     14  C   UNL     1       6.108  10.070   1.746  0.00  0.00    -0.072 C 
ATOM     15  C   UNL     1       5.120   9.377   2.686  0.00  0.00    -0.014 C 
ATOM     16  C   UNL     1       4.330   8.322   1.907  0.00  0.00    +0.021 C 
ATOM     17  C   UNL     1       3.563   8.997   0.769  0.00  0.00    +0.077 C 
ATOM     18  C   UNL     1       4.551   9.690  -0.171  0.00  0.00    +0.021 C 
ATOM     19  C   UNL     1       5.341  10.745   0.607  0.00  0.00    -0.014 C 
BRANCH  14  21
ATOM     20  C   UNL     1       8.165  11.343   1.857  0.00  0.00    -0.100 C 
ATOM     21  N   UNL     1       6.866  11.083   2.493  0.00  0.00    +0.379 N 
ATOM     22  H   UNL     1       7.027  10.718   3.518  0.00  0.00    -0.086 HD
ATOM     23  H   UNL     1       6.279  12.012   2.522  0.00  0.00    -0.086 HD
ENDBRANCH  14  21
ENDBRANCH   1  17
BRANCH   1  24
ATOM     24  C   UNL     1       1.348   8.084  -0.068  0.00  0.00    +0.143 C 
BRANCH  24  25
ATOM     25  C   UNL     1       0.967   8.685  -1.396  0.00  0.00    -0.030 A 
ATOM     26  C   UNL     1       0.613   7.862  -2.450  0.00  0.00    +0.005 A 
ATOM     27  C   UNL     1       0.261   8.407  -3.672  0.00  0.00    +0.001 A 
ATOM     28  C   UNL     1       0.261   9.777  -3.845  0.00  0.00    +0.008 A 
ATOM     29  C   UNL     1       0.617  10.610  -2.787  0.00  0.00    -0.017 A 
ATOM     30  C   UNL     1       0.965  10.056  -1.556  0.00  0.00    +0.013 A 
BRANCH  29  31
ATOM     31  C   UNL     1       0.618  12.083  -2.967  0.00  0.00    -0.015 A 
ATOM     32  C   UNL     1       0.966  12.935  -1.915  0.00  0.00    +0.028 A 
ATOM     33  C   UNL     1       0.959  14.298  -2.127  0.00  0.00    +0.111 A 
ATOM     34  N   UNL     1       0.619  14.799  -3.299  0.00  0.00    -0.263 NA
ATOM     35  C   UNL     1       0.279  14.031  -4.316  0.00  0.00    +0.111 A 
ATOM     36  C   UNL     1       0.265  12.657  -4.191  0.00  0.00    +0.028 A 
ENDBRANCH  29  31
ENDBRANCH  24  25
ENDBRANCH   1  24
TORSDOF 6
