REMARK  Name = ZINC64717811
REMARK  6 active torsions:
REMARK  status: ('A' for Active; 'I' for Inactive)
REMARK    1  A    between atoms: C_1  and  C_2
REMARK    2  A    between atoms: C_2  and  C_3
REMARK    3  A    between atoms: C_3  and  C_4
REMARK    4  A    between atoms: C_4  and  N_5
REMARK    5  A    between atoms: C_20  and  O_25
REMARK    6  A    between atoms: O_25  and  C_26
REMARK                            x       y       z     vdW  Elec       q    Type
REMARK                         _______ _______ _______ _____ _____    ______ ____
ROOT
ATOM      1  N   UNL     1      -2.787  -2.571   0.015  0.00  0.00    -0.269 N 
ATOM      2  C   UNL     1      -3.504  -2.839   1.168  0.00  0.00    +0.042 A 
ATOM      3  C   UNL     1      -3.120  -2.702   2.503  0.00  0.00    +0.025 A 
ATOM      4  C   UNL     1      -4.050  -3.049   3.470  0.00  0.00    +0.017 A 
ATOM      5  C   UNL     1      -5.309  -3.512   3.140  0.00  0.00    +0.018 A 
ATOM      6  C   UNL     1      -5.704  -3.653   1.813  0.00  0.00    +0.023 A 
ATOM      7  C   UNL     1      -4.784  -3.309   0.847  0.00  0.00    +0.006 A 
ATOM      8  C   UNL     1      -4.859  -3.329  -0.647  0.00  0.00    +0.148 C 
ATOM      9  C   UNL     1      -3.506  -2.826  -1.099  0.00  0.00    +0.247 C 
ATOM     10  O   UNL     1      -3.135  -2.681  -2.245  0.00  0.00    -0.273 OA
ATOM     11  C   UNL     1      -5.105  -4.741  -1.167  0.00  0.00    +0.140 C 
ATOM     12  C   UNL     1      -5.280  -4.620  -2.677  0.00  0.00    -0.035 C 
ATOM     13  C   UNL     1      -4.425  -5.471  -3.224  0.00  0.00    +0.003 A 
ATOM     14  C   UNL     1      -4.189  -5.871  -4.620  0.00  0.00    +0.055 A 
ATOM     15  C   UNL     1      -3.199  -6.780  -4.836  0.00  0.00    +0.121 A 
ATOM     16  C   UNL     1      -2.413  -7.341  -3.818  0.00  0.00    +0.047 A 
ATOM     17  C   UNL     1      -2.550  -7.049  -2.499  0.00  0.00    +0.029 A 
ATOM     18  C   UNL     1      -3.594  -6.080  -2.139  0.00  0.00    +0.043 A 
ATOM     19  N   UNL     1      -3.966  -5.634  -0.961  0.00  0.00    -0.375 N 
ATOM     20  C   UNL     1      -6.216  -3.602  -3.285  0.00  0.00    +0.048 C 
ATOM     21  C   UNL     1      -5.908  -2.264  -2.590  0.00  0.00    +0.086 C 
ATOM     22  N   UNL     1      -5.915  -2.436  -1.134  0.00  0.00    -0.297 NA
ATOM     23 BR   UNL     1      -6.519  -3.966   4.520  0.00  0.00    -0.050 Br
ATOM     24  H   UNL     1      -6.822  -2.737  -0.810  0.00  0.00    +0.123 HD
ATOM     25  H   UNL     1      -3.561  -5.850  -0.106  0.00  0.00    +0.160 HD
ENDROOT
BRANCH  15  26
ATOM     26  O   UNL     1      -2.958  -7.169  -6.116  0.00  0.00    -0.495 OA
ATOM     27  C   UNL     1      -1.915  -8.125  -6.318  0.00  0.00    +0.277 C 
ENDBRANCH  15  26
BRANCH   1  28
ATOM     28  C   UNL     1      -1.413  -2.063   0.004  0.00  0.00    +0.114 C 
BRANCH  28  29
ATOM     29  C   UNL     1      -1.433  -0.534   0.013  0.00  0.00    +0.019 C 
BRANCH  29  31
ATOM     30  C   UNL     1      -0.019   1.526   0.010  0.00  0.00    +0.004 C 
ATOM     31  C   UNL     1       0.002  -0.004   0.002  0.00  0.00    -0.002 C 
ENDBRANCH  29  31
ENDBRANCH  28  29
ENDBRANCH   1  28
TORSDOF 4
