REMARK  Name = ZINC01719314
REMARK  4 active torsions:
REMARK  status: ('A' for Active; 'I' for Inactive)
REMARK    1  A    between atoms: C_4  and  C_7
REMARK    2  A    between atoms: C_7  and  N_57
REMARK    3  A    between atoms: C_24  and  C_25
REMARK    4  A    between atoms: C_24  and  N_59
REMARK                            x       y       z     vdW  Elec       q    Type
REMARK                         _______ _______ _______ _____ _____    ______ ____
ROOT
ATOM      1  C   UNL     1      -2.069   0.969  -1.244  0.00  0.00    -0.033 C 
ATOM      2  C   UNL     1      -2.752   1.096   0.094  0.00  0.00    -0.011 A 
ATOM      3  C   UNL     1      -4.147   0.926   0.173  0.00  0.00    -0.013 A 
ATOM      4  C   UNL     1      -4.908   0.644  -0.975  0.00  0.00    +0.009 A 
ATOM      5  C   UNL     1      -6.256   0.484  -0.865  0.00  0.00    +0.001 A 
ATOM      6  C   UNL     1      -6.894   0.596   0.369  0.00  0.00    +0.001 A 
ATOM      7  C   UNL     1      -6.188   0.869   1.501  0.00  0.00    +0.009 A 
ATOM      8  C   UNL     1      -4.795   1.041   1.426  0.00  0.00    -0.013 A 
ATOM      9  C   UNL     1      -4.036   1.325   2.577  0.00  0.00    -0.011 A 
ATOM     10  C   UNL     1      -2.688   1.483   2.472  0.00  0.00    +0.161 A 
ATOM     11  C   UNL     1      -2.043   1.371   1.223  0.00  0.00    +0.161 A 
ATOM     12  O   UNL     1      -0.690   1.551   1.178  0.00  0.00    -0.506 OA
ATOM     13  C   UNL     1      -0.013   1.086   0.008  0.00  0.00    +0.158 C 
ATOM     14  O   UNL     1      -1.929   1.752   3.570  0.00  0.00    -0.506 OA
ATOM     15  C   UNL     1      -2.607   2.220   4.737  0.00  0.00    +0.158 C 
ATOM     16  C   UNL     1      -4.735   1.452   3.906  0.00  0.00    -0.033 C 
ATOM     17  N   UNL     1      -0.738   1.599  -1.171  0.00  0.00    +0.408 N 
ATOM     18  H   UNL     1      -0.852   2.615  -1.080  0.00  0.00    -0.076 HD
ATOM     19  N   UNL     1      -3.746   1.314   4.991  0.00  0.00    +0.408 N 
ATOM     20  H   UNL     1      -3.406   0.346   5.014  0.00  0.00    -0.076 HD
ENDROOT
BRANCH  17  21
ATOM     21  C   UNL     1       0.028   1.309  -2.406  0.00  0.00    -0.038 C 
BRANCH  21  25
ATOM     22  C   UNL     1       3.630   3.605  -2.380  0.00  0.00    +0.000 A 
ATOM     23  C   UNL     1       3.616   2.335  -1.834  0.00  0.00    +0.000 A 
ATOM     24  C   UNL     1       2.451   1.592  -1.842  0.00  0.00    +0.002 A 
ATOM     25  C   UNL     1       1.299   2.119  -2.396  0.00  0.00    -0.064 A 
ATOM     26  C   UNL     1       1.314   3.387  -2.947  0.00  0.00    +0.002 A 
ATOM     27  C   UNL     1       2.479   4.132  -2.934  0.00  0.00    +0.000 A 
ENDBRANCH  21  25
ENDBRANCH  17  21
BRANCH  19  28
ATOM     28  C   UNL     1      -4.372   1.637   6.293  0.00  0.00    -0.038 C 
BRANCH  28  29
ATOM     29  C   UNL     1      -3.300   1.747   7.346  0.00  0.00    -0.064 A 
ATOM     30  C   UNL     1      -2.912   0.627   8.058  0.00  0.00    +0.002 A 
ATOM     31  C   UNL     1      -1.924   0.728   9.020  0.00  0.00    +0.000 A 
ATOM     32  C   UNL     1      -1.332   1.950   9.277  0.00  0.00    +0.000 A 
ATOM     33  C   UNL     1      -1.723   3.071   8.569  0.00  0.00    +0.000 A 
ATOM     34  C   UNL     1      -2.707   2.969   7.603  0.00  0.00    +0.002 A 
ENDBRANCH  28  29
ENDBRANCH  19  28
TORSDOF 4
