REMARK  Name = ZINC09351610
REMARK  12 active torsions:
REMARK  status: ('A' for Active; 'I' for Inactive)
REMARK    1  A    between atoms: C_1  and  C_2
REMARK    2  A    between atoms: C_6  and  N_33
REMARK    3  A    between atoms: C_7  and  N_8
REMARK    4  A    between atoms: C_9  and  C_11
REMARK    5  A    between atoms: C_11  and  O_12
REMARK    6  A    between atoms: O_12  and  C_13
REMARK    7  A    between atoms: C_13  and  C_15
REMARK    8  A    between atoms: C_20  and  S_21
REMARK    9  A    between atoms: S_21  and  C_22
REMARK   10  A    between atoms: C_22  and  C_23
REMARK   11  A    between atoms: N_25  and  C_26
REMARK   12  A    between atoms: N_25  and  C_27
REMARK                            x       y       z     vdW  Elec       q    Type
REMARK                         _______ _______ _______ _____ _____    ______ ____
ROOT
ATOM      1  C   UNL     1       7.157  -2.285   0.971  0.00  0.00    +0.341 C 
ATOM      2  O   UNL     1       6.320  -2.602   0.148  0.00  0.00    -0.245 OA
ENDROOT
BRANCH   1   3
ATOM      3  C   UNL     1       6.871  -1.211   1.936  0.00  0.00    +0.072 A 
ATOM      4  C   UNL     1       7.831  -0.843   2.884  0.00  0.00    +0.016 A 
ATOM      5  C   UNL     1       7.557   0.163   3.783  0.00  0.00    +0.001 A 
ATOM      6  C   UNL     1       6.333   0.815   3.756  0.00  0.00    +0.001 A 
ATOM      7  C   UNL     1       5.378   0.468   2.824  0.00  0.00    +0.015 A 
ATOM      8  C   UNL     1       5.632  -0.549   1.911  0.00  0.00    +0.022 A 
BRANCH   8   9
ATOM      9  S   UNL     1       4.410  -1.001   0.724  0.00  0.00    -0.115 S 
BRANCH   9  10
ATOM     10  C   UNL     1       3.093   0.156   1.174  0.00  0.00    +0.170 C 
BRANCH  10  11
ATOM     11  C   UNL     1       1.909  -0.053   0.265  0.00  0.00    +0.226 C 
ATOM     12  O   UNL     1       1.952  -0.900  -0.602  0.00  0.00    -0.275 OA
ATOM     13  N   UNL     1       0.803   0.702   0.415  0.00  0.00    -0.301 N 
ATOM     14  C   UNL     1       0.751   1.726   1.462  0.00  0.00    +0.132 C 
BRANCH  13  15
ATOM     15  C   UNL     1      -0.348   0.499  -0.469  0.00  0.00    +0.076 C 
ATOM     16  C   UNL     1      -1.570   0.112   0.366  0.00  0.00    +0.022 C 
ATOM     17  C   UNL     1      -2.772  -0.100  -0.557  0.00  0.00    +0.002 C 
ATOM     18  C   UNL     1      -3.064   1.195  -1.319  0.00  0.00    +0.000 C 
ATOM     19  C   UNL     1      -1.841   1.582  -2.154  0.00  0.00    +0.002 C 
ATOM     20  C   UNL     1      -0.640   1.794  -1.231  0.00  0.00    +0.022 C 
ENDBRANCH  13  15
ENDBRANCH  10  11
ENDBRANCH   9  10
ENDBRANCH   8   9
ENDBRANCH   1   3
BRANCH   1  21
ATOM     21  O   UNL     1       8.347  -2.917   0.999  0.00  0.00    -0.452 OA
BRANCH  21  22
ATOM     22  C   UNL     1       8.560  -3.966   0.017  0.00  0.00    +0.328 C 
BRANCH  22  24
ATOM     23  N   UNL     1      10.355  -5.550  -0.605  0.00  0.00    -0.281 N 
ATOM     24  C   UNL     1       9.936  -4.554   0.200  0.00  0.00    +0.255 C 
ATOM     25  O   UNL     1      10.665  -4.130   1.072  0.00  0.00    -0.272 OA
ATOM     26  H   UNL     1       9.754  -5.925  -1.266  0.00  0.00    +0.155 HD
BRANCH  23  33
ATOM     27  C   UNL     1      12.511  -3.701  -0.773  0.00  0.00    +0.046 C 
ATOM     28  C   UNL     1      12.741  -5.175  -0.562  0.00  0.00    -0.027 A 
ATOM     29  C   UNL     1      14.027  -5.664  -0.439  0.00  0.00    +0.005 A 
ATOM     30  C   UNL     1      14.239  -7.018  -0.251  0.00  0.00    +0.003 A 
ATOM     31  C   UNL     1      13.164  -7.885  -0.180  0.00  0.00    +0.034 A 
ATOM     32  C   UNL     1      11.876  -7.402  -0.297  0.00  0.00    +0.148 A 
ATOM     33  C   UNL     1      11.660  -6.043  -0.486  0.00  0.00    +0.067 A 
BRANCH  32  34
ATOM     34  N   UNL     1      10.726  -8.331  -0.221  0.00  0.00    +0.058 N 
ATOM     35  O   UNL     1      10.909  -9.506   0.043  0.00  0.00    -0.126 OA
ATOM     36  O   UNL     1       9.597  -7.921  -0.422  0.00  0.00    -0.126 OA
ENDBRANCH  32  34
ENDBRANCH  23  33
ENDBRANCH  22  24
ENDBRANCH  21  22
ENDBRANCH   1  21
TORSDOF 10
