REMARK  Name = ZINC36597469
REMARK  15 active torsions:
REMARK  status: ('A' for Active; 'I' for Inactive)
REMARK    1  A    between atoms: C_1  and  C_2
REMARK    2  A    between atoms: C_5  and  C_7
REMARK    3  A    between atoms: C_7  and  N_8
REMARK    4  A    between atoms: N_8  and  C_9
REMARK    5  A    between atoms: C_9  and  C_11
REMARK    6  A    between atoms: C_9  and  C_24
REMARK    7  A    between atoms: C_11  and  C_12
REMARK    8  A    between atoms: C_11  and  C_18
REMARK    9  A    between atoms: N_26  and  C_27
REMARK   10  A    between atoms: C_27  and  C_28
REMARK   11  A    between atoms: C_27  and  C_29
REMARK   12  A    between atoms: C_27  and  C_30
REMARK   13  A    between atoms: C_31  and  C_33
REMARK   14  A    between atoms: C_34  and  O_40
REMARK   15  A    between atoms: C_38  and  O_39
REMARK                            x       y       z     vdW  Elec       q    Type
REMARK                         _______ _______ _______ _____ _____    ______ ____
ROOT
ATOM      1  C   UNL     1       2.922  -3.344  -2.091  0.00  0.00    +0.174 C 
ENDROOT
BRANCH   1   2
ATOM      2  C   UNL     1       3.180  -1.860  -2.138  0.00  0.00    +0.235 C 
ATOM      3  O   UNL     1       3.900  -1.343  -1.310  0.00  0.00    -0.274 OA
ATOM      4  N   UNL     1       2.610  -1.107  -3.100  0.00  0.00    -0.309 N 
ATOM      5  H   UNL     1       1.969  -1.504  -3.711  0.00  0.00    +0.149 HD
BRANCH   4   6
ATOM      6  C   UNL     1       2.957   0.311  -3.222  0.00  0.00    +0.026 C 
ATOM      7  C   UNL     1       4.470   0.452  -3.402  0.00  0.00    +0.031 C 
ATOM      8  C   UNL     1       2.241   0.908  -4.435  0.00  0.00    +0.031 C 
ATOM      9  C   UNL     1       2.523   1.053  -1.957  0.00  0.00    +0.031 C 
ENDBRANCH   4   6
ENDBRANCH   1   2
BRANCH   1  10
ATOM     10  N   UNL     1       2.348  -3.699  -0.791  0.00  0.00    -0.278 N 
ATOM     11  C   UNL     1       1.105  -4.217  -0.722  0.00  0.00    +0.255 C 
ATOM     12  O   UNL     1       0.461  -4.390  -1.739  0.00  0.00    -0.270 OA
BRANCH  11  13
ATOM     13  C   UNL     1       0.528  -4.574   0.584  0.00  0.00    +0.119 A 
ATOM     14  C   UNL     1      -0.214  -3.630   1.310  0.00  0.00    +0.133 A 
ATOM     15  C   UNL     1      -0.753  -3.977   2.538  0.00  0.00    +0.046 A 
ATOM     16  C   UNL     1      -0.563  -5.247   3.049  0.00  0.00    +0.007 A 
ATOM     17  C   UNL     1       0.167  -6.185   2.342  0.00  0.00    +0.046 A 
ATOM     18  C   UNL     1       0.711  -5.861   1.109  0.00  0.00    +0.133 A 
BRANCH  18  19
ATOM     19  O   UNL     1       1.421  -6.785   0.415  0.00  0.00    -0.506 OA
ATOM     20  H   UNL     1       2.368  -6.785   0.615  0.00  0.00    +0.292 HD
ENDBRANCH  18  19
BRANCH  14  21
ATOM     21  O   UNL     1      -0.402  -2.383   0.811  0.00  0.00    -0.506 OA
ATOM     22  H   UNL     1      -1.196  -2.293   0.265  0.00  0.00    +0.292 HD
ENDBRANCH  14  21
ENDBRANCH  11  13
BRANCH  10  23
ATOM     23  C   UNL     1       3.123  -3.491   0.434  0.00  0.00    +0.183 C 
BRANCH  23  28
ATOM     24  C   UNL     1       2.836   1.437   1.471  0.00  0.00    +0.086 C 
ATOM     25  C   UNL     1       2.586  -0.048   1.526  0.00  0.00    +0.102 A 
ATOM     26  C   UNL     1       1.737  -0.673   2.363  0.00  0.00    +0.045 A 
ATOM     27  C   UNL     1       1.818  -2.054   2.072  0.00  0.00    +0.046 A 
ATOM     28  C   UNL     1       2.711  -2.191   1.075  0.00  0.00    +0.122 A 
ATOM     29  O   UNL     1       3.168  -0.972   0.745  0.00  0.00    -0.463 OA
ENDBRANCH  23  28
ENDBRANCH  10  23
ENDBRANCH   1  10
BRANCH   1  30
ATOM     30  C   UNL     1       4.239  -4.097  -2.289  0.00  0.00    +0.078 C 
BRANCH  30  31
ATOM     31  C   UNL     1       3.974  -5.580  -2.293  0.00  0.00    -0.038 A 
ATOM     32  C   UNL     1       3.027  -6.111  -3.148  0.00  0.00    +0.004 A 
ATOM     33  C   UNL     1       2.784  -7.472  -3.151  0.00  0.00    +0.000 A 
ATOM     34  C   UNL     1       3.489  -8.302  -2.300  0.00  0.00    +0.000 A 
ATOM     35  C   UNL     1       4.437  -7.771  -1.445  0.00  0.00    +0.000 A 
ATOM     36  C   UNL     1       4.683  -6.411  -1.445  0.00  0.00    +0.004 A 
ENDBRANCH  30  31
BRANCH  30  37
ATOM     37  C   UNL     1       4.856  -3.694  -3.604  0.00  0.00    -0.038 A 
ATOM     38  C   UNL     1       4.112  -3.767  -4.767  0.00  0.00    +0.004 A 
ATOM     39  C   UNL     1       4.678  -3.397  -5.973  0.00  0.00    +0.000 A 
ATOM     40  C   UNL     1       5.986  -2.953  -6.016  0.00  0.00    +0.000 A 
ATOM     41  C   UNL     1       6.729  -2.879  -4.852  0.00  0.00    +0.000 A 
ATOM     42  C   UNL     1       6.162  -3.245  -3.646  0.00  0.00    +0.004 A 
ENDBRANCH  30  37
ENDBRANCH   1  30
TORSDOF 11
