REMARK  Name = ZINC08383444
REMARK  3 active torsions:
REMARK  status: ('A' for Active; 'I' for Inactive)
REMARK    1  A    between atoms: C_1  and  C_2
REMARK    2  A    between atoms: C_5  and  C_27
REMARK    3  A    between atoms: C_17  and  C_19
REMARK                            x       y       z     vdW  Elec       q    Type
REMARK                         _______ _______ _______ _____ _____    ______ ____
ROOT
ATOM      1  C   UNL     1       4.555   4.738  -0.680  0.00  0.00    +0.028 C 
ATOM      2  C   UNL     1       3.411   3.856  -1.186  0.00  0.00    +0.081 C 
ATOM      3  C   UNL     1       3.720   2.419  -0.821  0.00  0.00    +0.057 C 
ATOM      4  C   UNL     1       2.916   1.462  -1.668  0.00  0.00    +0.110 C 
ATOM      5  C   UNL     1       2.849   0.021  -1.186  0.00  0.00    +0.219 C 
ATOM      6  C   UNL     1       1.371   0.309  -1.188  0.00  0.00    +0.259 C 
ATOM      7  O   UNL     1       0.408  -0.405  -1.000  0.00  0.00    -0.272 OA
ATOM      8  N   UNL     1       1.473   1.625  -1.469  0.00  0.00    -0.253 N 
ATOM      9  C   UNL     1       0.570   2.693  -1.493  0.00  0.00    +0.059 A 
ATOM     10  C   UNL     1      -0.726   2.419  -1.932  0.00  0.00    +0.025 A 
ATOM     11  C   UNL     1      -1.674   3.420  -1.974  0.00  0.00    +0.002 A 
ATOM     12  C   UNL     1      -1.341   4.699  -1.566  0.00  0.00    +0.002 A 
ATOM     13  C   UNL     1      -0.062   4.975  -1.133  0.00  0.00    +0.025 A 
ATOM     14  C   UNL     1       0.910   3.968  -1.097  0.00  0.00    +0.058 A 
ATOM     15  N   UNL     1       2.182   4.369  -0.655  0.00  0.00    -0.263 N 
ATOM     16  C   UNL     1       2.251   5.290   0.327  0.00  0.00    +0.251 C 
ATOM     17  O   UNL     1       3.325   5.763   0.643  0.00  0.00    -0.270 OA
ATOM     18 CL   UNL     1       3.374  -1.199  -2.405  0.00  0.00    -0.088 Cl
ATOM     19 CL   UNL     1       3.554  -0.251   0.451  0.00  0.00    -0.088 Cl
ENDROOT
BRANCH  16  20
ATOM     20  C   UNL     1       1.020   5.725   1.020  0.00  0.00    +0.037 A 
ATOM     21  C   UNL     1      -0.047   4.838   1.177  0.00  0.00    +0.013 A 
ATOM     22  C   UNL     1      -1.191   5.249   1.829  0.00  0.00    +0.001 A 
ATOM     23  C   UNL     1      -1.287   6.540   2.317  0.00  0.00    +0.000 A 
ATOM     24  C   UNL     1      -0.236   7.426   2.160  0.00  0.00    +0.001 A 
ATOM     25  C   UNL     1       0.916   7.026   1.514  0.00  0.00    +0.013 A 
ENDBRANCH  16  20
BRANCH   4  26
ATOM     26  C   UNL     1       3.303   1.540  -3.123  0.00  0.00    -0.020 A 
ATOM     27  C   UNL     1       4.607   1.835  -3.476  0.00  0.00    +0.006 A 
ATOM     28  C   UNL     1       4.963   1.902  -4.810  0.00  0.00    +0.000 A 
ATOM     29  C   UNL     1       4.013   1.685  -5.791  0.00  0.00    +0.000 A 
ATOM     30  C   UNL     1       2.708   1.396  -5.437  0.00  0.00    +0.000 A 
ATOM     31  C   UNL     1       2.353   1.323  -4.103  0.00  0.00    +0.006 A 
ENDBRANCH   4  26
TORSDOF 2
