REMARK  Name = ZINC09232500
REMARK  6 active torsions:
REMARK  status: ('A' for Active; 'I' for Inactive)
REMARK    1  A    between atoms: C_1  and  O_2
REMARK    2  A    between atoms: O_2  and  C_3
REMARK    3  A    between atoms: C_10  and  C_28
REMARK    4  A    between atoms: C_12  and  C_19
REMARK    5  A    between atoms: C_23  and  N_25
REMARK    6  A    between atoms: C_28  and  C_30
REMARK                            x       y       z     vdW  Elec       q    Type
REMARK                         _______ _______ _______ _____ _____    ______ ____
ROOT
ATOM      1  C   UNL     1       0.301   1.783   0.792  0.00  0.00    +0.120 A 
ATOM      2  C   UNL     1       1.416   2.609   0.785  0.00  0.00    +0.047 A 
ATOM      3  C   UNL     1       1.272   3.971   0.621  0.00  0.00    +0.027 A 
ATOM      4  C   UNL     1       0.005   4.529   0.463  0.00  0.00    +0.036 A 
ATOM      5  C   UNL     1      -1.106   3.693   0.472  0.00  0.00    -0.024 A 
ATOM      6  C   UNL     1      -0.963   2.333   0.629  0.00  0.00    +0.050 A 
ATOM      7  C   UNL     1      -2.302   4.589   0.282  0.00  0.00    +0.052 C 
ATOM      8  C   UNL     1      -3.255   4.490   1.478  0.00  0.00    +0.069 C 
ATOM      9  C   UNL     1      -4.664   4.438   0.843  0.00  0.00    +0.016 C 
ATOM     10  C   UNL     1      -4.400   3.835  -0.544  0.00  0.00    -0.047 C 
ATOM     11  C   UNL     1      -3.029   5.413  -1.849  0.00  0.00    -0.005 C 
ATOM     12  S   UNL     1      -4.547   5.088  -2.848  0.00  0.00    -0.181 S 
ATOM     13  C   UNL     1      -5.509   4.223  -1.534  0.00  0.00    +0.052 C 
ATOM     14  C   UNL     1      -1.726   5.978   0.169  0.00  0.00    +0.212 C 
ATOM     15  O   UNL     1      -2.348   7.006   0.005  0.00  0.00    -0.277 OA
ATOM     16  N   UNL     1      -0.391   5.857   0.283  0.00  0.00    -0.286 N 
ATOM     17  H   UNL     1       0.225   6.606   0.245  0.00  0.00    +0.155 HD
ATOM     18  N   UNL     1      -3.026   4.228  -0.923  0.00  0.00    +0.401 N 
ATOM     19  H   UNL     1      -2.563   3.437  -1.386  0.00  0.00    -0.078 HD
ENDROOT
BRANCH   9  20
ATOM     20  C   UNL     1      -5.577   3.547   1.646  0.00  0.00    -0.043 A 
ATOM     21  C   UNL     1      -5.676   3.713   3.015  0.00  0.00    +0.004 A 
ATOM     22  C   UNL     1      -6.513   2.896   3.751  0.00  0.00    +0.002 A 
ATOM     23  C   UNL     1      -7.252   1.913   3.119  0.00  0.00    +0.033 A 
ATOM     24  C   UNL     1      -7.154   1.748   1.750  0.00  0.00    +0.126 A 
ATOM     25  C   UNL     1      -6.319   2.568   1.013  0.00  0.00    +0.036 A 
BRANCH  24  26
ATOM     26  N   UNL     1      -7.945   0.697   1.073  0.00  0.00    +0.056 N 
ATOM     27  O   UNL     1      -8.682  -0.023   1.722  0.00  0.00    -0.126 OA
ATOM     28  O   UNL     1      -7.859   0.551  -0.134  0.00  0.00    -0.126 OA
ENDBRANCH  24  26
ENDBRANCH   9  20
BRANCH   1  30
ATOM     29  C   UNL     1       1.778  -0.053   1.109  0.00  0.00    +0.277 C 
ATOM     30  O   UNL     1       0.447   0.441   0.953  0.00  0.00    -0.495 OA
ENDBRANCH   1  30
BRANCH   8  31
ATOM     31  C   UNL     1      -2.984   3.232   2.264  0.00  0.00    +0.168 C 
ATOM     32  O   UNL     1      -3.464   2.178   1.905  0.00  0.00    -0.292 OA
BRANCH  31  33
ATOM     33  C   UNL     1      -2.138   3.284   3.467  0.00  0.00    +0.036 A 
ATOM     34  C   UNL     1      -1.884   2.122   4.211  0.00  0.00    +0.014 A 
ATOM     35  C   UNL     1      -1.078   2.225   5.330  0.00  0.00    +0.020 A 
ATOM     36  C   UNL     1      -0.562   3.460   5.683  0.00  0.00    +0.111 A 
ATOM     37  N   UNL     1      -0.823   4.538   4.968  0.00  0.00    -0.263 NA
ATOM     38  C   UNL     1      -1.579   4.493   3.892  0.00  0.00    +0.122 A 
ENDBRANCH  31  33
ENDBRANCH   8  31
TORSDOF 5
