REMARK  Name = ZINC37351084
REMARK  6 active torsions:
REMARK  status: ('A' for Active; 'I' for Inactive)
REMARK    1  A    between atoms: C_1  and  C_2
REMARK    2  A    between atoms: C_2  and  C_3
REMARK    3  A    between atoms: C_2  and  C_4
REMARK    4  A    between atoms: C_7  and  C_10
REMARK    5  A    between atoms: C_11  and  C_16
REMARK    6  A    between atoms: C_14  and  N_15
REMARK                            x       y       z     vdW  Elec       q    Type
REMARK                         _______ _______ _______ _____ _____    ______ ____
ROOT
ATOM      1  C   UNL     1       2.860  -1.912   4.626  0.00  0.00    +0.071 A 
ATOM      2  C   UNL     1       3.035  -3.311   5.024  0.00  0.00    +0.124 A 
ATOM      3  N   UNL     1       3.634  -3.308   6.191  0.00  0.00    -0.075 NA
ATOM      4  O   UNL     1       3.863  -1.970   6.585  0.00  0.00    -0.339 OA
ATOM      5  C   UNL     1       3.400  -1.141   5.636  0.00  0.00    +0.224 A 
ENDROOT
BRANCH   1   9
ATOM      6  C   UNL     1       1.054  -0.503   1.045  0.00  0.00    -0.045 A 
ATOM      7  C   UNL     1       2.406  -0.303   1.260  0.00  0.00    +0.004 A 
ATOM      8  C   UNL     1       2.998  -0.758   2.420  0.00  0.00    +0.009 A 
ATOM      9  C   UNL     1       2.230  -1.421   3.378  0.00  0.00    -0.011 A 
ATOM     10  C   UNL     1       0.868  -1.618   3.156  0.00  0.00    +0.009 A 
ATOM     11  C   UNL     1       0.286  -1.154   1.994  0.00  0.00    +0.004 A 
BRANCH   6  13
ATOM     12  C   UNL     1       0.592   1.513  -0.323  0.00  0.00    +0.012 C 
ATOM     13  C   UNL     1       0.414  -0.003  -0.224  0.00  0.00    +0.013 C 
ATOM     14  C   UNL     1       1.079  -0.673  -1.428  0.00  0.00    +0.012 C 
ENDBRANCH   6  13
ENDBRANCH   1   9
BRANCH   2  15
ATOM     15  C   UNL     1       2.615  -4.506   4.253  0.00  0.00    +0.022 A 
ATOM     16  C   UNL     1       2.795  -4.557   2.868  0.00  0.00    +0.013 A 
ATOM     17  C   UNL     1       2.386  -5.695   2.194  0.00  0.00    +0.020 A 
ATOM     18  C   UNL     1       1.817  -6.735   2.906  0.00  0.00    +0.111 A 
ATOM     19  N   UNL     1       1.659  -6.658   4.214  0.00  0.00    -0.263 NA
ATOM     20  C   UNL     1       2.039  -5.598   4.898  0.00  0.00    +0.120 A 
ENDBRANCH   2  15
BRANCH   5  21
ATOM     21  N   UNL     1       3.452   0.236   5.666  0.00  0.00    -0.327 N 
ATOM     22  H   UNL     1       3.087   0.752   4.929  0.00  0.00    +0.145 HD
ATOM     23  H   UNL     1       3.854   0.690   6.423  0.00  0.00    +0.145 HD
ENDBRANCH   5  21
TORSDOF 4
