REMARK  Name = ZINC07127717
REMARK  8 active torsions:
REMARK  status: ('A' for Active; 'I' for Inactive)
REMARK    1  A    between atoms: C_1  and  C_2
REMARK    2  A    between atoms: C_2  and  C_3
REMARK    3  A    between atoms: C_2  and  C_4
REMARK    4  A    between atoms: C_4  and  O_5
REMARK    5  A    between atoms: O_5  and  C_6
REMARK    6  A    between atoms: C_8  and  C_14
REMARK    7  A    between atoms: C_11  and  O_12
REMARK    8  A    between atoms: O_12  and  C_13
REMARK                            x       y       z     vdW  Elec       q    Type
REMARK                         _______ _______ _______ _____ _____    ______ ____
ROOT
ATOM      1  C   UNL     1      -1.104  -0.968  -0.011  0.00  0.00    +0.209 C 
ATOM      2  N   UNL     1      -0.570  -2.231   0.528  0.00  0.00    -0.293 N 
ATOM      3  C   UNL     1       0.714  -2.610   0.241  0.00  0.00    +0.183 C 
ATOM      4  N   UNL     1       1.663  -1.718   0.014  0.00  0.00    -0.183 NA
ATOM      5  C   UNL     1       1.323  -0.407  -0.001  0.00  0.00    +0.236 A 
ATOM      6  N   UNL     1       0.002  -0.004   0.002  0.00  0.00    -0.285 N 
ATOM      7  C   UNL     1      -0.017   1.370   0.010  0.00  0.00    +0.072 A 
ATOM      8  C   UNL     1      -1.020   2.327   0.019  0.00  0.00    +0.028 A 
ATOM      9  C   UNL     1      -0.696   3.668   0.025  0.00  0.00    +0.002 A 
ATOM     10  C   UNL     1       0.631   4.070   0.012  0.00  0.00    +0.002 A 
ATOM     11  C   UNL     1       1.643   3.136  -0.001  0.00  0.00    +0.030 A 
ATOM     12  C   UNL     1       1.333   1.774  -0.001  0.00  0.00    +0.091 A 
ATOM     13  N   UNL     1       2.096   0.648  -0.010  0.00  0.00    -0.210 NA
ATOM     14  N   UNL     1       1.022  -3.942   0.187  0.00  0.00    -0.331 N 
ATOM     15  H   UNL     1      -1.128  -2.795   1.087  0.00  0.00    +0.151 HD
ATOM     16  H   UNL     1       0.335  -4.606   0.351  0.00  0.00    +0.145 HD
ATOM     17  H   UNL     1       1.929  -4.222  -0.015  0.00  0.00    +0.145 HD
ENDROOT
BRANCH   1  20
ATOM     18  C   UNL     1      -3.176  -0.710  -3.160  0.00  0.00    +0.162 A 
ATOM     19  C   UNL     1      -2.727  -0.521  -1.863  0.00  0.00    +0.056 A 
ATOM     20  C   UNL     1      -1.591  -1.174  -1.423  0.00  0.00    -0.003 A 
ATOM     21  C   UNL     1      -0.898  -2.012  -2.276  0.00  0.00    +0.011 A 
ATOM     22  C   UNL     1      -1.343  -2.209  -3.570  0.00  0.00    +0.050 A 
ATOM     23  C   UNL     1      -2.482  -1.558  -4.017  0.00  0.00    +0.162 A 
BRANCH  23  24
ATOM     24  O   UNL     1      -2.918  -1.746  -5.291  0.00  0.00    -0.491 OA
ATOM     25  C   UNL     1      -2.155  -2.630  -6.114  0.00  0.00    +0.277 C 
ENDBRANCH  23  24
BRANCH  18  26
ATOM     26  O   UNL     1      -4.294  -0.068  -3.594  0.00  0.00    -0.488 OA
BRANCH  26  27
ATOM     27  C   UNL     1      -4.955   0.787  -2.660  0.00  0.00    +0.232 C 
BRANCH  27  29
ATOM     28  C   UNL     1      -6.959   2.233  -2.290  0.00  0.00    +0.010 C 
ATOM     29  C   UNL     1      -6.181   1.417  -3.324  0.00  0.00    +0.020 C 
ATOM     30  C   UNL     1      -5.730   2.334  -4.462  0.00  0.00    +0.010 C 
ENDBRANCH  27  29
ENDBRANCH  26  27
ENDBRANCH  18  26
ENDBRANCH   1  20
TORSDOF 5
