REMARK  Name = ZINC11614974
REMARK  11 active torsions:
REMARK  status: ('A' for Active; 'I' for Inactive)
REMARK    1  A    between atoms: C_1  and  N_57
REMARK    2  A    between atoms: C_2  and  N_57
REMARK    3  A    between atoms: C_3  and  C_4
REMARK    4  A    between atoms: C_3  and  N_57
REMARK    5  A    between atoms: C_4  and  N_5
REMARK    6  A    between atoms: C_6  and  C_26
REMARK    7  A    between atoms: C_8  and  C_13
REMARK    8  A    between atoms: C_9  and  O_12
REMARK    9  A    between atoms: C_13  and  C_15
REMARK   10  A    between atoms: C_24  and  O_25
REMARK   11  A    between atoms: C_30  and  N_32
REMARK                            x       y       z     vdW  Elec       q    Type
REMARK                         _______ _______ _______ _____ _____    ______ ____
ROOT
ATOM      1  N   UNL     1       4.543  -6.524   0.040  0.00  0.00    -0.285 N 
ATOM      2  C   UNL     1       3.946  -5.185  -0.026  0.00  0.00    +0.144 C 
ATOM      3  C   UNL     1       5.100  -4.209  -0.033  0.00  0.00    +0.071 C 
ATOM      4  C   UNL     1       6.233  -4.945   0.034  0.00  0.00    +0.188 C 
ATOM      5  C   UNL     1       5.880  -6.378   0.078  0.00  0.00    +0.282 C 
ATOM      6  O   UNL     1       6.679  -7.292   0.140  0.00  0.00    -0.267 OA
ENDROOT
BRANCH   2   7
ATOM      7  C   UNL     1       3.139  -5.042  -1.290  0.00  0.00    -0.020 A 
ATOM      8  C   UNL     1       3.550  -5.676  -2.448  0.00  0.00    +0.006 A 
ATOM      9  C   UNL     1       2.811  -5.545  -3.608  0.00  0.00    +0.003 A 
ATOM     10  C   UNL     1       1.659  -4.781  -3.611  0.00  0.00    +0.033 A 
ATOM     11  C   UNL     1       1.247  -4.148  -2.453  0.00  0.00    +0.127 A 
ATOM     12  C   UNL     1       1.985  -4.282  -1.292  0.00  0.00    +0.038 A 
BRANCH  11  13
ATOM     13  N   UNL     1       0.013  -3.329  -2.456  0.00  0.00    +0.056 N 
ATOM     14  O   UNL     1      -0.588  -3.137  -3.498  0.00  0.00    -0.126 OA
ATOM     15  O   UNL     1      -0.400  -2.848  -1.417  0.00  0.00    -0.126 OA
ENDBRANCH  11  13
ENDBRANCH   2   7
BRANCH   4  16
ATOM     16  O   UNL     1       7.491  -4.446   0.056  0.00  0.00    -0.502 OA
ATOM     17  H   UNL     1       8.147  -5.199   0.107  0.00  0.00    +0.292 HD
ENDBRANCH   4  16
BRANCH   3  18
ATOM     18  C   UNL     1       5.008  -2.746  -0.093  0.00  0.00    +0.198 C 
ATOM     19  O   UNL     1       5.413  -2.151  -1.075  0.00  0.00    -0.287 OA
BRANCH  18  20
ATOM     20  C   UNL     1       4.426  -1.998   1.034  0.00  0.00    +0.064 A 
ATOM     21  C   UNL     1       3.884  -2.693   2.131  0.00  0.00    +0.016 A 
ATOM     22  C   UNL     1       3.343  -2.027   3.180  0.00  0.00    +0.009 A 
ATOM     23  C   UNL     1       3.317  -0.618   3.189  0.00  0.00    -0.014 A 
ATOM     24  C   UNL     1       2.761   0.088   4.267  0.00  0.00    +0.008 A 
ATOM     25  C   UNL     1       2.748   1.450   4.249  0.00  0.00    +0.001 A 
ATOM     26  C   UNL     1       3.280   2.157   3.173  0.00  0.00    +0.001 A 
ATOM     27  C   UNL     1       3.828   1.506   2.110  0.00  0.00    +0.012 A 
ATOM     28  C   UNL     1       3.858   0.102   2.095  0.00  0.00    +0.024 A 
ATOM     29  C   UNL     1       4.417  -0.603   1.010  0.00  0.00    +0.135 A 
BRANCH  29  30
ATOM     30  O   UNL     1       4.939   0.067  -0.046  0.00  0.00    -0.505 OA
ATOM     31  H   UNL     1       5.879   0.274   0.046  0.00  0.00    +0.292 HD
ENDBRANCH  29  30
ENDBRANCH  18  20
ENDBRANCH   3  18
BRANCH   1  32
ATOM     32  C   UNL     1       3.813  -7.793   0.066  0.00  0.00    +0.090 C 
BRANCH  32  33
ATOM     33  C   UNL     1       3.511  -8.179   1.515  0.00  0.00    -0.060 C 
BRANCH  33  36
ATOM     34  C   UNL     1       3.620 -10.553   1.054  0.00  0.00    -0.097 C 
ATOM     35  C   UNL     1       2.266  -9.737   2.888  0.00  0.00    -0.097 C 
ATOM     36  N   UNL     1       2.756  -9.450   1.524  0.00  0.00    +0.377 N 
ATOM     37  H   UNL     1       1.952  -9.364   0.891  0.00  0.00    -0.083 HD
ENDBRANCH  33  36
ENDBRANCH  32  33
ENDBRANCH   1  32
TORSDOF 9
