REMARK  Name = ZINC35918072
REMARK  15 active torsions:
REMARK  status: ('A' for Active; 'I' for Inactive)
REMARK    1  A    between atoms: C_1  and  C_2
REMARK    2  A    between atoms: C_2  and  C_3
REMARK    3  A    between atoms: C_2  and  C_4
REMARK    4  A    between atoms: C_4  and  N_5
REMARK    5  A    between atoms: N_5  and  C_6
REMARK    6  A    between atoms: C_6  and  C_7
REMARK    7  A    between atoms: N_10  and  C_22
REMARK    8  A    between atoms: C_12  and  C_14
REMARK    9  A    between atoms: C_19  and  O_20
REMARK   10  A    between atoms: O_20  and  C_21
REMARK   11  A    between atoms: C_22  and  C_23
REMARK   12  A    between atoms: C_28  and  O_29
REMARK   13  A    between atoms: C_30  and  C_32
REMARK   14  A    between atoms: C_32  and  C_33
REMARK   15  A    between atoms: C_32  and  C_34
REMARK                            x       y       z     vdW  Elec       q    Type
REMARK                         _______ _______ _______ _____ _____    ______ ____
ROOT
ATOM      1  C   UNL     1      -0.280  -1.704   2.924  0.00  0.00    -0.005 C 
ATOM      2  C   UNL     1       0.716  -2.281   1.895  0.00  0.00    -0.073 C 
ATOM      3  N   UNL     1       0.506  -3.751   1.956  0.00  0.00    +0.383 N 
ATOM      4  C   UNL     1      -0.965  -3.904   2.094  0.00  0.00    -0.070 C 
ATOM      5  C   UNL     1      -1.386  -2.770   3.057  0.00  0.00    +0.009 C 
ATOM      6  H   UNL     1       0.979  -4.142   2.757  0.00  0.00    -0.081 HD
ENDROOT
BRANCH   5   7
ATOM      7  C   UNL     1      -2.718  -2.199   2.644  0.00  0.00    -0.004 A 
ATOM      8  C   UNL     1      -2.927  -1.810   1.334  0.00  0.00    +0.007 A 
ATOM      9  C   UNL     1      -4.148  -1.285   0.954  0.00  0.00    +0.001 A 
ATOM     10  C   UNL     1      -5.163  -1.147   1.883  0.00  0.00    +0.004 A 
ATOM     11  C   UNL     1      -4.959  -1.534   3.193  0.00  0.00    +0.046 A 
ATOM     12  C   UNL     1      -3.736  -2.067   3.576  0.00  0.00    +0.123 A 
BRANCH  12  13
ATOM     13  O   UNL     1      -3.535  -2.453   4.863  0.00  0.00    -0.495 OA
ATOM     14  C   UNL     1      -4.628  -2.288   5.769  0.00  0.00    +0.277 C 
ENDBRANCH  12  13
ENDBRANCH   5   7
BRANCH   1  15
ATOM     15  C   UNL     1      -0.870  -0.388   2.412  0.00  0.00    +0.110 C 
BRANCH  15  16
ATOM     16  N   UNL     1       0.154   0.659   2.464  0.00  0.00    -0.301 N 
ATOM     17  C   UNL     1       0.221   1.484   3.527  0.00  0.00    +0.218 C 
ATOM     18  O   UNL     1       1.038   2.380   3.550  0.00  0.00    -0.275 OA
BRANCH  17  19
ATOM     19  C   UNL     1      -0.720   1.294   4.689  0.00  0.00    +0.069 C 
ATOM     20  C   UNL     1      -0.052   0.413   5.747  0.00  0.00    +0.017 C 
ATOM     21  C   UNL     1      -1.060   2.655   5.299  0.00  0.00    +0.017 C 
ENDBRANCH  17  19
BRANCH  16  22
ATOM     22  C   UNL     1       1.105   0.809   1.359  0.00  0.00    +0.110 C 
BRANCH  22  24
ATOM     23  C   UNL     1       0.191   3.075   0.839  0.00  0.00    +0.009 C 
ATOM     24  C   UNL     1       0.486   1.687   0.270  0.00  0.00    +0.000 C 
ATOM     25  C   UNL     1       1.464   1.813  -0.900  0.00  0.00    +0.009 C 
ENDBRANCH  22  24
ENDBRANCH  16  22
ENDBRANCH  15  16
ENDBRANCH   1  15
BRANCH   3  26
ATOM     26  C   UNL     1       0.975  -4.388   0.718  0.00  0.00    -0.039 C 
BRANCH  26  27
ATOM     27  C   UNL     1       0.866  -5.885   0.851  0.00  0.00    -0.022 A 
ATOM     28  C   UNL     1       1.984  -6.635   1.161  0.00  0.00    +0.005 A 
ATOM     29  C   UNL     1       1.885  -8.008   1.282  0.00  0.00    +0.000 A 
ATOM     30  C   UNL     1       0.667  -8.635   1.095  0.00  0.00    +0.004 A 
ATOM     31  C   UNL     1      -0.454  -7.890   0.786  0.00  0.00    +0.045 A 
ATOM     32  C   UNL     1      -0.358  -6.511   0.668  0.00  0.00    +0.118 A 
BRANCH  32  33
ATOM     33  O   UNL     1      -1.461  -5.775   0.369  0.00  0.00    -0.507 OA
ATOM     34  H   UNL     1      -1.606  -5.651  -0.579  0.00  0.00    +0.292 HD
ENDBRANCH  32  33
ENDBRANCH  26  27
ENDBRANCH   3  26
TORSDOF 10
