REMARK  Name = ZINC58549670
REMARK  11 active torsions:
REMARK  status: ('A' for Active; 'I' for Inactive)
REMARK    1  A    between atoms: C_1  and  O_2
REMARK    2  A    between atoms: O_2  and  C_3
REMARK    3  A    between atoms: C_6  and  C_8
REMARK    4  A    between atoms: C_8  and  N_9
REMARK    5  A    between atoms: N_9  and  C_10
REMARK    6  A    between atoms: N_9  and  C_18
REMARK    7  A    between atoms: C_10  and  C_11
REMARK    8  A    between atoms: C_11  and  C_12
REMARK    9  A    between atoms: C_19  and  N_34
REMARK   10  A    between atoms: N_20  and  C_27
REMARK   11  A    between atoms: C_27  and  C_28
REMARK                            x       y       z     vdW  Elec       q    Type
REMARK                         _______ _______ _______ _____ _____    ______ ____
ROOT
ATOM      1  C   UNL     1      -4.586  -4.894   1.220  0.00  0.00    +0.134 A 
ATOM      2  C   UNL     1      -3.962  -5.684   2.147  0.00  0.00    +0.127 A 
ATOM      3  N   UNL     1      -4.539  -5.859   3.384  0.00  0.00    -0.276 N 
ATOM      4  C   UNL     1      -5.707  -5.259   3.681  0.00  0.00    +0.331 A 
ATOM      5  O   UNL     1      -6.202  -5.424   4.779  0.00  0.00    -0.246 OA
ATOM      6  N   UNL     1      -6.334  -4.479   2.782  0.00  0.00    -0.273 N 
ATOM      7  H   UNL     1      -7.174  -4.055   3.017  0.00  0.00    +0.173 HD
ATOM      8  C   UNL     1      -5.802  -4.275   1.561  0.00  0.00    +0.277 A 
ATOM      9  O   UNL     1      -6.375  -3.561   0.754  0.00  0.00    -0.266 OA
ENDROOT
BRANCH   2  10
ATOM     10  N   UNL     1      -2.768  -6.299   1.844  0.00  0.00    -0.343 N 
ATOM     11  H   UNL     1      -2.366  -6.174   0.970  0.00  0.00    +0.144 HD
ATOM     12  H   UNL     1      -2.329  -6.857   2.504  0.00  0.00    +0.144 HD
ENDBRANCH   2  10
BRANCH   1  13
ATOM     13  N   UNL     1      -4.014  -4.698  -0.058  0.00  0.00    -0.314 N 
BRANCH  13  14
ATOM     14  C   UNL     1      -2.733  -3.999  -0.188  0.00  0.00    +0.201 C 
BRANCH  14  18
ATOM     15  C   UNL     1      -2.169  -0.393  -0.892  0.00  0.00    +0.406 C 
ATOM     16  O   UNL     1      -3.307   0.022  -0.980  0.00  0.00    -0.226 OA
ATOM     17  N   UNL     1      -1.945  -1.697  -0.635  0.00  0.00    -0.220 N 
ATOM     18  C   UNL     1      -2.984  -2.541  -0.475  0.00  0.00    +0.239 C 
ATOM     19  O   UNL     1      -4.120  -2.127  -0.563  0.00  0.00    -0.274 OA
ATOM     20  H   UNL     1      -1.036  -2.029  -0.565  0.00  0.00    +0.161 HD
BRANCH  15  22
ATOM     21  C   UNL     1      -1.442   1.818  -1.322  0.00  0.00    +0.282 C 
ATOM     22  O   UNL     1      -1.131   0.449  -1.052  0.00  0.00    -0.453 OA
ENDBRANCH  15  22
ENDBRANCH  14  18
ENDBRANCH  13  14
BRANCH  13  23
ATOM     23  C   UNL     1      -4.702  -5.194  -1.252  0.00  0.00    +0.110 C 
BRANCH  23  24
ATOM     24  C   UNL     1      -4.306  -6.650  -1.502  0.00  0.00    +0.049 C 
BRANCH  24  25
ATOM     25  C   UNL     1      -5.014  -7.160  -2.730  0.00  0.00    -0.072 C 
ATOM     26  C   UNL     1      -4.382  -7.112  -3.859  0.00  0.00    -0.028 C 
ATOM     27  C   UNL     1      -4.959  -7.572  -5.166  0.00  0.00    +0.027 C 
ATOM     28  C   UNL     1      -6.174  -8.469  -4.919  0.00  0.00    +0.004 C 
ATOM     29  C   UNL     1      -7.107  -7.761  -3.928  0.00  0.00    +0.005 C 
ATOM     30  C   UNL     1      -6.405  -7.699  -2.568  0.00  0.00    +0.030 C 
ENDBRANCH  24  25
ENDBRANCH  23  24
ENDBRANCH  13  23
ENDBRANCH   1  13
BRANCH   3  31
ATOM     31  C   UNL     1      -3.880  -6.704   4.383  0.00  0.00    +0.163 C 
BRANCH  31  32
ATOM     32  C   UNL     1      -2.947  -5.862   5.215  0.00  0.00    -0.028 A 
ATOM     33  C   UNL     1      -1.633  -5.692   4.821  0.00  0.00    +0.005 A 
ATOM     34  C   UNL     1      -0.777  -4.920   5.585  0.00  0.00    +0.000 A 
ATOM     35  C   UNL     1      -1.236  -4.318   6.741  0.00  0.00    +0.000 A 
ATOM     36  C   UNL     1      -2.550  -4.488   7.135  0.00  0.00    +0.000 A 
ATOM     37  C   UNL     1      -3.407  -5.256   6.369  0.00  0.00    +0.005 A 
ENDBRANCH  31  32
ENDBRANCH   3  31
TORSDOF 10
