REMARK  Name = ZINC21226398
REMARK  12 active torsions:
REMARK  status: ('A' for Active; 'I' for Inactive)
REMARK    1  A    between atoms: C_1  and  C_2
REMARK    2  A    between atoms: C_2  and  O_3
REMARK    3  A    between atoms: O_3  and  C_4
REMARK    4  A    between atoms: C_5  and  C_12
REMARK    5  A    between atoms: C_9  and  O_10
REMARK    6  A    between atoms: O_10  and  C_11
REMARK    7  A    between atoms: C_17  and  C_22
REMARK    8  A    between atoms: C_25  and  O_28
REMARK    9  A    between atoms: O_28  and  C_29
REMARK   10  A    between atoms: C_29  and  C_30
REMARK   11  A    between atoms: C_30  and  C_31
REMARK   12  A    between atoms: C_30  and  C_32
REMARK                            x       y       z     vdW  Elec       q    Type
REMARK                         _______ _______ _______ _____ _____    ______ ____
ROOT
ATOM      1  C   UNL     1       1.080   3.572   0.334  0.00  0.00    +0.140 C 
ATOM      2  C   UNL     1       1.462   3.907   1.757  0.00  0.00    +0.037 C 
ATOM      3  C   UNL     1       0.629   4.346   2.714  0.00  0.00    +0.017 C 
ATOM      4  C   UNL     1       1.143   4.606   4.121  0.00  0.00    +0.059 C 
ATOM      5  C   UNL     1       2.587   5.103   4.062  0.00  0.00    +0.032 C 
ATOM      6  C   UNL     1       3.428   4.015   3.384  0.00  0.00    +0.088 C 
ATOM      7  C   UNL     1       2.837   3.723   2.037  0.00  0.00    +0.163 C 
ATOM      8  O   UNL     1       3.564   3.313   1.155  0.00  0.00    -0.292 OA
ATOM      9  N   UNL     1      -0.698   4.579   2.545  0.00  0.00    -0.316 N 
ATOM     10  C   UNL     1      -1.580   3.708   1.915  0.00  0.00    +0.052 A 
ATOM     11  C   UNL     1      -2.624   3.099   2.587  0.00  0.00    +0.025 A 
ATOM     12  C   UNL     1      -3.494   2.277   1.890  0.00  0.00    +0.002 A 
ATOM     13  C   UNL     1      -3.321   2.070   0.533  0.00  0.00    +0.002 A 
ATOM     14  C   UNL     1      -2.267   2.666  -0.137  0.00  0.00    +0.025 A 
ATOM     15  C   UNL     1      -1.383   3.471   0.562  0.00  0.00    +0.049 A 
ATOM     16  N   UNL     1      -0.248   4.005  -0.046  0.00  0.00    -0.331 N 
ATOM     17  H   UNL     1      -1.145   5.511   2.918  0.00  0.00    +0.152 HD
ATOM     18  H   UNL     1      -0.375   4.769  -0.828  0.00  0.00    +0.147 HD
ENDROOT
BRANCH   1  20
ATOM     19  C   UNL     1       1.262   1.537  -1.116  0.00  0.00    +0.167 A 
ATOM     20  C   UNL     1       1.165   2.078   0.155  0.00  0.00    +0.023 A 
ATOM     21  C   UNL     1       1.147   1.248   1.260  0.00  0.00    +0.009 A 
ATOM     22  C   UNL     1       1.225  -0.123   1.100  0.00  0.00    +0.004 A 
ATOM     23  C   UNL     1       1.321  -0.669  -0.166  0.00  0.00    +0.049 A 
ATOM     24  C   UNL     1       1.340   0.157  -1.278  0.00  0.00    +0.162 A 
BRANCH  24  25
ATOM     25  O   UNL     1       1.434  -0.379  -2.524  0.00  0.00    -0.491 OA
ATOM     26  C   UNL     1       1.510  -1.803  -2.614  0.00  0.00    +0.277 C 
ENDBRANCH  24  25
BRANCH  19  27
ATOM     27  O   UNL     1       1.280   2.353  -2.204  0.00  0.00    -0.488 OA
BRANCH  27  29
ATOM     28  C   UNL     1       0.273   3.406  -4.132  0.00  0.00    +0.048 C 
ATOM     29  C   UNL     1       0.035   2.577  -2.869  0.00  0.00    +0.226 C 
ENDBRANCH  27  29
ENDBRANCH  19  27
ENDBRANCH   1  20
BRANCH   5  30
ATOM     30  C   UNL     1       3.099   5.348   5.458  0.00  0.00    -0.043 A 
ATOM     31  C   UNL     1       3.139   4.310   6.371  0.00  0.00    +0.007 A 
ATOM     32  C   UNL     1       3.614   4.531   7.649  0.00  0.00    +0.046 A 
ATOM     33  C   UNL     1       4.040   5.798   8.020  0.00  0.00    +0.121 A 
ATOM     34  C   UNL     1       3.994   6.839   7.104  0.00  0.00    +0.046 A 
ATOM     35  C   UNL     1       3.523   6.612   5.825  0.00  0.00    +0.007 A 
BRANCH  33  36
ATOM     36  O   UNL     1       4.503   6.019   9.279  0.00  0.00    -0.492 OA
BRANCH  36  37
ATOM     37  C   UNL     1       4.522   4.901  10.169  0.00  0.00    +0.232 C 
BRANCH  37  38
ATOM     38  C   UNL     1       5.070   5.340  11.528  0.00  0.00    +0.020 C 
ATOM     39  C   UNL     1       4.110   6.347  12.164  0.00  0.00    +0.010 C 
ATOM     40  C   UNL     1       5.208   4.120  12.441  0.00  0.00    +0.010 C 
ENDBRANCH  37  38
ENDBRANCH  36  37
ENDBRANCH  33  36
ENDBRANCH   5  30
TORSDOF 8
