REMARK  Name = ZINC29386340
REMARK  9 active torsions:
REMARK  status: ('A' for Active; 'I' for Inactive)
REMARK    1  A    between atoms: C_1  and  C_2
REMARK    2  A    between atoms: C_5  and  C_8
REMARK    3  A    between atoms: C_8  and  N_9
REMARK    4  A    between atoms: C_16  and  C_18
REMARK    5  A    between atoms: C_20  and  C_30
REMARK    6  A    between atoms: C_21  and  C_29
REMARK    7  A    between atoms: C_22  and  S_24
REMARK    8  A    between atoms: S_24  and  N_27
REMARK    9  A    between atoms: N_27  and  C_28
REMARK                            x       y       z     vdW  Elec       q    Type
REMARK                         _______ _______ _______ _____ _____    ______ ____
ROOT
ATOM      1  N   UNL     1       3.464   2.430   4.581  0.00  0.00    -0.331 N 
ATOM      2  C   UNL     1       4.357   2.822   5.523  0.00  0.00    +0.088 A 
ATOM      3  C   UNL     1       3.938   3.383   6.684  0.00  0.00    +0.018 A 
ATOM      4  C   UNL     1       2.571   3.568   6.921  0.00  0.00    +0.005 A 
ATOM      5  C   UNL     1       1.666   3.180   5.973  0.00  0.00    +0.042 A 
ATOM      6  C   UNL     1       2.125   2.603   4.781  0.00  0.00    +0.106 A 
ATOM      7  N   UNL     1       1.252   2.216   3.842  0.00  0.00    -0.268 N 
ATOM      8  C   UNL     1      -0.045   2.484   3.989  0.00  0.00    +0.249 C 
ATOM      9  O   UNL     1      -0.414   3.633   4.170  0.00  0.00    -0.270 OA
ATOM     10  H   UNL     1       1.605   1.678   2.951  0.00  0.00    +0.157 HD
ENDROOT
BRANCH   8  11
ATOM     11  C   UNL     1      -1.040   1.387   3.932  0.00  0.00    +0.039 A 
ATOM     12  C   UNL     1      -0.621   0.073   3.725  0.00  0.00    +0.016 A 
ATOM     13  C   UNL     1      -1.552  -0.944   3.673  0.00  0.00    -0.045 A 
ATOM     14  C   UNL     1      -2.898  -0.662   3.819  0.00  0.00    -0.021 A 
ATOM     15  C   UNL     1      -3.319   0.639   4.030  0.00  0.00    +0.109 A 
ATOM     16  C   UNL     1      -2.398   1.665   4.085  0.00  0.00    +0.042 A 
ATOM     17  C   UNL     1      -3.910  -1.777   3.755  0.00  0.00    +0.046 C 
ATOM     18  C   UNL     1      -1.101  -2.365   3.450  0.00  0.00    +0.044 C 
BRANCH  15  19
ATOM     19  S   UNL     1      -5.035   0.987   4.222  0.00  0.00    +0.058 S 
ATOM     20  O   UNL     1      -5.140   2.380   4.487  0.00  0.00    -0.153 OA
ATOM     21  O   UNL     1      -5.700   0.368   3.129  0.00  0.00    -0.153 OA
BRANCH  19  22
ATOM     22  N   UNL     1      -5.544   0.205   5.590  0.00  0.00    -0.193 NA
ATOM     23  C   UNL     1      -4.971   0.559   6.892  0.00  0.00    +0.127 C 
ATOM     24  H   UNL     1      -6.185  -0.683   5.495  0.00  0.00    +0.148 HD
ENDBRANCH  19  22
ENDBRANCH  15  19
ENDBRANCH   8  11
BRANCH   1  25
ATOM     25  C   UNL     1       3.940   1.821   3.337  0.00  0.00    +0.158 C 
BRANCH  25  30
ATOM     26  C   UNL     1       9.166   3.920   2.044  0.00  0.00    +0.044 C 
ATOM     27  C   UNL     1       7.803   3.372   2.380  0.00  0.00    -0.050 A 
ATOM     28  C   UNL     1       7.688   2.238   3.162  0.00  0.00    +0.004 A 
ATOM     29  C   UNL     1       6.438   1.736   3.472  0.00  0.00    +0.005 A 
ATOM     30  C   UNL     1       5.303   2.369   2.999  0.00  0.00    -0.028 A 
ATOM     31  C   UNL     1       5.418   3.499   2.213  0.00  0.00    +0.005 A 
ATOM     32  C   UNL     1       6.669   4.004   1.907  0.00  0.00    +0.004 A 
ENDBRANCH  25  30
ENDBRANCH   1  25
TORSDOF 5
