REMARK  Name = ZINC37443063
REMARK  5 active torsions:
REMARK  status: ('A' for Active; 'I' for Inactive)
REMARK    1  A    between atoms: C_1  and  C_2
REMARK    2  A    between atoms: C_8  and  N_10
REMARK    3  A    between atoms: C_11  and  C_13
REMARK    4  A    between atoms: C_13  and  C_33
REMARK    5  A    between atoms: N_25  and  C_26
REMARK                            x       y       z     vdW  Elec       q    Type
REMARK                         _______ _______ _______ _____ _____    ______ ____
ROOT
ATOM      1  C   UNL     1       0.114   0.427   4.517  0.00  0.00    +0.133 C 
ATOM      2  C   UNL     1       0.884   0.142   5.807  0.00  0.00    +0.158 C 
ATOM      3  N   UNL     1       0.531  -1.195   6.290  0.00  0.00    -0.333 N 
ATOM      4  C   UNL     1       1.292  -2.079   7.033  0.00  0.00    +0.057 A 
ATOM      5  C   UNL     1       2.573  -2.153   7.599  0.00  0.00    +0.034 A 
ATOM      6  C   UNL     1       2.948  -3.250   8.289  0.00  0.00    +0.048 A 
ATOM      7  S   UNL     1       1.498  -4.286   8.194  0.00  0.00    -0.095 S 
ATOM      8  C   UNL     1       0.473  -3.199   7.238  0.00  0.00    +0.038 A 
ATOM      9  C   UNL     1      -0.757  -2.994   6.624  0.00  0.00    +0.048 A 
ATOM     10  C   UNL     1      -0.713  -1.764   6.037  0.00  0.00    +0.107 A 
ATOM     11  C   UNL     1      -1.717  -1.049   5.240  0.00  0.00    +0.268 C 
ATOM     12  O   UNL     1      -2.864  -1.446   5.146  0.00  0.00    -0.268 OA
ATOM     13  N   UNL     1      -1.298   0.077   4.616  0.00  0.00    -0.250 N 
ATOM     14  C   UNL     1       0.232   1.917   4.192  0.00  0.00    +0.044 C 
ENDROOT
BRANCH  13  15
ATOM     15  C   UNL     1      -2.249   0.931   4.048  0.00  0.00    +0.038 A 
ATOM     16  C   UNL     1      -2.933   0.547   2.903  0.00  0.00    +0.025 A 
ATOM     17  C   UNL     1      -3.872   1.392   2.344  0.00  0.00    +0.022 A 
ATOM     18  C   UNL     1      -4.131   2.621   2.925  0.00  0.00    +0.041 A 
ATOM     19  C   UNL     1      -3.450   3.007   4.067  0.00  0.00    +0.022 A 
ATOM     20  C   UNL     1      -2.514   2.163   4.633  0.00  0.00    +0.025 A 
ATOM     21 CL   UNL     1      -5.311   3.682   2.221  0.00  0.00    -0.084 Cl
ENDBRANCH  13  15
BRANCH   1  23
ATOM     22  N   UNL     1       0.017  -0.644   2.289  0.00  0.00    -0.310 N 
ATOM     23  C   UNL     1       0.735  -0.366   3.395  0.00  0.00    +0.239 C 
ATOM     24  O   UNL     1       1.880  -0.753   3.488  0.00  0.00    -0.273 OA
ATOM     25  H   UNL     1      -0.900  -0.335   2.215  0.00  0.00    +0.149 HD
BRANCH  22  32
ATOM     26  C   UNL     1       0.054   0.414  -0.406  0.00  0.00    +0.009 C 
ATOM     27  C   UNL     1      -0.090  -1.081  -0.115  0.00  0.00    +0.006 C 
ATOM     28  C   UNL     1      -1.573  -1.438   0.002  0.00  0.00    +0.005 C 
ATOM     29  C   UNL     1      -1.717  -2.933   0.294  0.00  0.00    +0.000 C 
ATOM     30  C   UNL     1      -1.007  -3.267   1.608  0.00  0.00    +0.002 C 
ATOM     31  C   UNL     1       0.476  -2.910   1.491  0.00  0.00    +0.022 C 
ATOM     32  C   UNL     1       0.620  -1.415   1.199  0.00  0.00    +0.076 C 
ENDBRANCH  22  32
ENDBRANCH   1  23
TORSDOF 3
