REMARK  Name = ZINC21900831
REMARK  7 active torsions:
REMARK  status: ('A' for Active; 'I' for Inactive)
REMARK    1  A    between atoms: C_1  and  C_2
REMARK    2  A    between atoms: C_2  and  O_3
REMARK    3  A    between atoms: O_3  and  C_4
REMARK    4  A    between atoms: C_9  and  N_10
REMARK    5  A    between atoms: N_10  and  S_11
REMARK    6  A    between atoms: S_11  and  C_14
REMARK    7  A    between atoms: C_26  and  C_29
REMARK                            x       y       z     vdW  Elec       q    Type
REMARK                         _______ _______ _______ _____ _____    ______ ____
ROOT
ATOM      1  N   UNL     1      -1.982   4.477   0.035  0.00  0.00    -0.213 N 
ATOM      2  H   UNL     1      -1.946   5.393  -0.573  0.00  0.00    +0.174 HD
ENDROOT
BRANCH   1   8
ATOM      3  C   UNL     1       0.418   4.308   0.271  0.00  0.00    +0.143 A 
ATOM      4  C   UNL     1       1.553   3.529   0.429  0.00  0.00    +0.055 A 
ATOM      5  C   UNL     1       1.443   2.156   0.507  0.00  0.00    +0.001 A 
ATOM      6  C   UNL     1       0.204   1.534   0.423  0.00  0.00    +0.126 A 
ATOM      7  C   UNL     1      -0.936   2.317   0.264  0.00  0.00    +0.074 A 
ATOM      8  C   UNL     1      -0.831   3.696   0.192  0.00  0.00    +0.093 A 
ATOM      9  O   UNL     1       0.325   0.180   0.512  0.00  0.00    -0.488 OA
ATOM     10  C   UNL     1       1.601  -0.145   1.090  0.00  0.00    +0.175 C 
ATOM     11  C   UNL     1       2.478   1.063   0.685  0.00  0.00    +0.083 C 
ATOM     12  C   UNL     1       1.495  -0.252   2.612  0.00  0.00    +0.052 C 
BRANCH   3  13
ATOM     13  O   UNL     1       0.523   5.662   0.194  0.00  0.00    -0.490 OA
BRANCH  13  15
ATOM     14  C   UNL     1       1.755   7.742   0.177  0.00  0.00    +0.048 C 
ATOM     15  C   UNL     1       1.837   6.217   0.283  0.00  0.00    +0.226 C 
ENDBRANCH  13  15
ENDBRANCH   3  13
ENDBRANCH   1   8
BRANCH   1  16
ATOM     16  S   UNL     1      -3.397   4.021   0.764  0.00  0.00    +0.073 S 
ATOM     17  O   UNL     1      -4.328   5.069   0.533  0.00  0.00    -0.150 OA
ATOM     18  O   UNL     1      -3.645   2.680   0.367  0.00  0.00    -0.150 OA
BRANCH  16  19
ATOM     19  C   UNL     1      -3.100   3.985   2.501  0.00  0.00    +0.112 A 
ATOM     20  C   UNL     1      -2.660   2.820   3.100  0.00  0.00    +0.032 A 
ATOM     21  C   UNL     1      -2.420   2.785   4.462  0.00  0.00    +0.051 A 
ATOM     22  C   UNL     1      -2.632   3.921   5.226  0.00  0.00    +0.162 A 
ATOM     23  C   UNL     1      -3.078   5.089   4.625  0.00  0.00    +0.164 A 
ATOM     24  C   UNL     1      -3.312   5.122   3.260  0.00  0.00    +0.078 A 
ATOM     25  O   UNL     1      -3.285   6.202   5.386  0.00  0.00    -0.488 OA
ATOM     26  C   UNL     1      -2.114   6.810   5.936  0.00  0.00    +0.232 C 
ATOM     27  C   UNL     1      -1.715   6.130   7.237  0.00  0.00    +0.082 C 
ATOM     28  C   UNL     1      -1.300   4.682   7.030  0.00  0.00    +0.232 C 
ATOM     29  O   UNL     1      -2.404   3.899   6.571  0.00  0.00    -0.488 OA
ENDBRANCH  16  19
ENDBRANCH   1  16
TORSDOF 5
