REMARK  Name = ZINC14550767
REMARK  3 active torsions:
REMARK  status: ('A' for Active; 'I' for Inactive)
REMARK    1  A    between atoms: C_5  and  O_7
REMARK    2  A    between atoms: C_9  and  C_18
REMARK    3  A    between atoms: C_21  and  N_24
REMARK                            x       y       z     vdW  Elec       q    Type
REMARK                         _______ _______ _______ _____ _____    ______ ____
ROOT
ATOM      1  C   UNL     1      -5.608   4.809   1.258  0.00  0.00    +0.004 A 
ATOM      2  C   UNL     1      -4.675   4.064   1.954  0.00  0.00    +0.006 A 
ATOM      3  C   UNL     1      -3.975   3.054   1.328  0.00  0.00    -0.016 A 
ATOM      4  C   UNL     1      -4.207   2.758  -0.017  0.00  0.00    +0.073 A 
ATOM      5  C   UNL     1      -5.148   3.526  -0.712  0.00  0.00    +0.138 A 
ATOM      6  C   UNL     1      -5.840   4.539  -0.079  0.00  0.00    +0.047 A 
ATOM      7  N   UNL     1      -3.544   1.728  -0.718  0.00  0.00    -0.334 N 
ATOM      8  C   UNL     1      -2.514   0.980   0.019  0.00  0.00    +0.105 C 
ATOM      9  C   UNL     1      -3.014   0.814   1.439  0.00  0.00    +0.029 C 
ATOM     10  C   UNL     1      -2.959   2.252   2.045  0.00  0.00    +0.049 C 
ATOM     11  C   UNL     1      -3.042   2.004   3.506  0.00  0.00    -0.023 C 
ATOM     12  C   UNL     1      -2.526   0.806   3.761  0.00  0.00    -0.030 C 
ATOM     13  C   UNL     1      -2.085   0.140   2.455  0.00  0.00    +0.033 C 
ATOM     14  H   UNL     1      -3.192   2.047  -1.608  0.00  0.00    +0.147 HD
ENDROOT
BRANCH   8  15
ATOM     15  C   UNL     1      -1.219   1.751   0.017  0.00  0.00    -0.027 A 
ATOM     16  C   UNL     1      -1.232   3.122  -0.157  0.00  0.00    +0.008 A 
ATOM     17  C   UNL     1      -0.044   3.830  -0.153  0.00  0.00    +0.033 A 
ATOM     18  C   UNL     1       1.156   3.166   0.020  0.00  0.00    +0.126 A 
ATOM     19  C   UNL     1       1.169   1.794   0.189  0.00  0.00    +0.033 A 
ATOM     20  C   UNL     1      -0.018   1.086   0.184  0.00  0.00    +0.008 A 
BRANCH  18  21
ATOM     21  N   UNL     1       2.427   3.924   0.024  0.00  0.00    +0.056 N 
ATOM     22  O   UNL     1       2.416   5.133  -0.124  0.00  0.00    -0.126 OA
ATOM     23  O   UNL     1       3.485   3.340   0.177  0.00  0.00    -0.126 OA
ENDBRANCH  18  21
ENDBRANCH   8  15
BRANCH   5  24
ATOM     24  O   UNL     1      -5.385   3.270  -2.027  0.00  0.00    -0.505 OA
ATOM     25  H   UNL     1      -4.820   3.769  -2.633  0.00  0.00    +0.292 HD
ENDBRANCH   5  24
TORSDOF 3
