REMARK  Name = ZINC22832641
REMARK  8 active torsions:
REMARK  status: ('A' for Active; 'I' for Inactive)
REMARK    1  A    between atoms: C_1  and  C_2
REMARK    2  A    between atoms: C_7  and  C_10
REMARK    3  A    between atoms: C_11  and  C_13
REMARK    4  A    between atoms: C_13  and  N_14
REMARK    5  A    between atoms: C_20  and  C_23
REMARK    6  A    between atoms: C_23  and  C_24
REMARK    7  A    between atoms: C_23  and  C_25
REMARK    8  A    between atoms: C_23  and  C_26
REMARK                            x       y       z     vdW  Elec       q    Type
REMARK                         _______ _______ _______ _____ _____    ______ ____
ROOT
ATOM      1  N   UNL     1      -0.018   1.461   0.010  0.00  0.00    -0.215 N 
ATOM      2  C   UNL     1       1.088   2.234   0.004  0.00  0.00    +0.247 C 
ATOM      3  O   UNL     1       2.242   1.864  -0.009  0.00  0.00    -0.273 OA
ATOM      4  C   UNL     1       0.584   3.659   0.015  0.00  0.00    +0.113 C 
ATOM      5  C   UNL     1       1.040   4.394  -1.240  0.00  0.00    +0.035 C 
ATOM      6  C   UNL     1       0.496   5.825  -1.222  0.00  0.00    +0.006 C 
ATOM      7  C   UNL     1       1.006   6.548   0.026  0.00  0.00    -0.005 C 
ATOM      8  C   UNL     1       0.520   5.813   1.277  0.00  0.00    +0.006 C 
ATOM      9  C   UNL     1       1.063   4.382   1.269  0.00  0.00    +0.035 C 
ATOM     10  N   UNL     1      -0.878   3.520   0.029  0.00  0.00    -0.285 N 
ATOM     11  C   UNL     1      -1.135   2.198   0.019  0.00  0.00    +0.310 C 
ATOM     12  O   UNL     1      -2.256   1.727   0.021  0.00  0.00    -0.252 OA
ATOM     13  H   UNL     1      -1.516   4.416   0.043  0.00  0.00    +0.151 HD
ENDROOT
BRANCH   7  14
ATOM     14  C   UNL     1       0.473   7.982   0.038  0.00  0.00    -0.035 C 
ATOM     15  C   UNL     1       0.984   8.706   1.286  0.00  0.00    +0.011 C 
ATOM     16  C   UNL     1       0.959   8.718  -1.212  0.00  0.00    +0.011 C 
ATOM     17  C   UNL     1      -1.057   7.958   0.053  0.00  0.00    +0.011 C 
ENDBRANCH   7  14
BRANCH   1  18
ATOM     18  C   UNL     1       0.002  -0.004   0.002  0.00  0.00    +0.213 C 
BRANCH  18  27
ATOM     19  C   UNL     1       1.126  -4.082   4.507  0.00  0.00    +0.039 C 
ATOM     20  C   UNL     1       1.201  -3.383   3.148  0.00  0.00    +0.133 C 
ATOM     21  C   UNL     1       0.063  -2.362   3.035  0.00  0.00    +0.139 C 
ATOM     22  N   UNL     1       0.043  -1.840   1.659  0.00  0.00    -0.295 N 
ATOM     23  C   UNL     1       0.039  -2.809   0.552  0.00  0.00    +0.139 C 
ATOM     24  C   UNL     1       1.184  -3.809   0.786  0.00  0.00    +0.133 C 
ATOM     25  O   UNL     1       1.070  -4.351   2.104  0.00  0.00    -0.371 OA
ATOM     26  C   UNL     1       2.529  -3.095   0.641  0.00  0.00    +0.039 C 
ATOM     27  C   UNL     1       0.022  -0.514   1.420  0.00  0.00    +0.234 C 
ATOM     28  O   UNL     1       0.021   0.269   2.346  0.00  0.00    -0.274 OA
ENDBRANCH  18  27
ENDBRANCH   1  18
TORSDOF 3
