REMARK  Name = ZINC35706624
REMARK  17 active torsions:
REMARK  status: ('A' for Active; 'I' for Inactive)
REMARK    1  A    between atoms: C_1  and  C_2
REMARK    2  A    between atoms: C_2  and  C_3
REMARK    3  A    between atoms: C_2  and  N_4
REMARK    4  A    between atoms: N_4  and  C_5
REMARK    5  A    between atoms: N_4  and  C_16
REMARK    6  A    between atoms: C_5  and  C_6
REMARK    7  A    between atoms: C_9  and  C_12
REMARK    8  A    between atoms: C_12  and  C_13
REMARK    9  A    between atoms: C_12  and  C_14
REMARK   10  A    between atoms: C_12  and  C_15
REMARK   11  A    between atoms: C_16  and  C_17
REMARK   12  A    between atoms: C_20  and  C_22
REMARK   13  A    between atoms: N_24  and  C_25
REMARK   14  A    between atoms: N_24  and  C_33
REMARK   15  A    between atoms: C_25  and  C_26
REMARK   16  A    between atoms: C_26  and  C_27
REMARK   17  A    between atoms: C_33  and  C_34
REMARK                            x       y       z     vdW  Elec       q    Type
REMARK                         _______ _______ _______ _____ _____    ______ ____
ROOT
ATOM      1  C   UNL     1      -2.346   1.726  -1.398  0.00  0.00    +0.090 A 
ATOM      2  C   UNL     1      -1.222   2.300  -1.881  0.00  0.00    +0.043 A 
ATOM      3  C   UNL     1      -1.319   3.676  -1.625  0.00  0.00    +0.055 A 
ATOM      4  C   UNL     1      -2.512   3.875  -0.991  0.00  0.00    +0.190 A 
ATOM      5  O   UNL     1      -3.123   2.679  -0.867  0.00  0.00    -0.457 OA
ENDROOT
BRANCH   4   6
ATOM      6  C   UNL     1      -3.038   5.164  -0.529  0.00  0.00    +0.282 C 
ATOM      7  O   UNL     1      -2.460   6.195  -0.817  0.00  0.00    -0.267 OA
ATOM      8  N   UNL     1      -4.162   5.205   0.213  0.00  0.00    -0.290 N 
BRANCH   8   9
ATOM      9  C   UNL     1      -4.769   3.962   0.695  0.00  0.00    +0.113 C 
BRANCH   9  10
ATOM     10  C   UNL     1      -4.335   3.709   2.140  0.00  0.00    +0.054 C 
BRANCH  10  11
ATOM     11  C   UNL     1      -4.959   2.429   2.635  0.00  0.00    -0.046 A 
ATOM     12  C   UNL     1      -6.197   2.457   3.249  0.00  0.00    +0.004 A 
ATOM     13  C   UNL     1      -6.769   1.283   3.704  0.00  0.00    +0.000 A 
ATOM     14  C   UNL     1      -6.104   0.082   3.543  0.00  0.00    +0.000 A 
ATOM     15  C   UNL     1      -4.866   0.055   2.928  0.00  0.00    +0.000 A 
ATOM     16  C   UNL     1      -4.296   1.228   2.469  0.00  0.00    +0.004 A 
ENDBRANCH  10  11
ENDBRANCH   9  10
ENDBRANCH   8   9
BRANCH   8  17
ATOM     17  C   UNL     1      -4.778   6.494   0.539  0.00  0.00    +0.143 C 
BRANCH  17  18
ATOM     18  C   UNL     1      -5.856   6.804  -0.467  0.00  0.00    -0.030 A 
ATOM     19  C   UNL     1      -5.569   7.586  -1.570  0.00  0.00    +0.005 A 
ATOM     20  C   UNL     1      -6.558   7.870  -2.493  0.00  0.00    +0.000 A 
ATOM     21  C   UNL     1      -7.835   7.373  -2.312  0.00  0.00    +0.000 A 
ATOM     22  C   UNL     1      -8.123   6.591  -1.209  0.00  0.00    +0.000 A 
ATOM     23  C   UNL     1      -7.132   6.303  -0.289  0.00  0.00    +0.005 A 
ENDBRANCH  17  18
ENDBRANCH   8  17
ENDBRANCH   4   6
BRANCH   1  24
ATOM     24  C   UNL     1      -2.675   0.256  -1.454  0.00  0.00    -0.002 C 
BRANCH  24  25
ATOM     25  N   UNL     1      -2.313  -0.376  -0.178  0.00  0.00    +0.389 N 
ATOM     26  H   UNL     1      -2.803   0.082   0.575  0.00  0.00    -0.080 HD
BRANCH  25  28
ATOM     27  C   UNL     1      -0.137  -0.416  -1.302  0.00  0.00    -0.013 C 
ATOM     28  C   UNL     1      -0.864  -0.254   0.034  0.00  0.00    -0.074 C 
ATOM     29  C   UNL     1      -0.549   1.122   0.623  0.00  0.00    -0.013 C 
ENDBRANCH  25  28
BRANCH  25  30
ATOM     30  C   UNL     1      -2.685  -1.796  -0.212  0.00  0.00    -0.042 C 
BRANCH  30  31
ATOM     31  C   UNL     1      -2.379  -2.428   1.121  0.00  0.00    -0.064 A 
ATOM     32  C   UNL     1      -1.096  -2.856   1.405  0.00  0.00    +0.002 A 
ATOM     33  C   UNL     1      -0.816  -3.435   2.629  0.00  0.00    +0.004 A 
ATOM     34  C   UNL     1      -1.818  -3.586   3.568  0.00  0.00    -0.042 A 
ATOM     35  C   UNL     1      -3.101  -3.157   3.285  0.00  0.00    +0.004 A 
ATOM     36  C   UNL     1      -3.381  -2.574   2.063  0.00  0.00    +0.002 A 
BRANCH  34  37
ATOM     37  C   UNL     1      -1.513  -4.218   4.902  0.00  0.00    -0.013 C 
ATOM     38  C   UNL     1      -0.448  -3.392   5.626  0.00  0.00    +0.015 C 
ATOM     39  C   UNL     1      -2.786  -4.264   5.748  0.00  0.00    +0.015 C 
ATOM     40  C   UNL     1      -0.993  -5.641   4.684  0.00  0.00    +0.015 C 
ENDBRANCH  34  37
ENDBRANCH  30  31
ENDBRANCH  25  30
ENDBRANCH  24  25
ENDBRANCH   1  24
TORSDOF 12
