REMARK  Name = ZINC60199662
REMARK  10 active torsions:
REMARK  status: ('A' for Active; 'I' for Inactive)
REMARK    1  A    between atoms: C_1  and  C_2
REMARK    2  A    between atoms: C_2  and  C_4
REMARK    3  A    between atoms: C_2  and  N_16
REMARK    4  A    between atoms: C_8  and  C_10
REMARK    5  A    between atoms: C_17  and  C_19
REMARK    6  A    between atoms: C_19  and  C_21
REMARK    7  A    between atoms: C_19  and  N_24
REMARK    8  A    between atoms: C_21  and  C_22
REMARK    9  A    between atoms: C_21  and  C_23
REMARK   10  A    between atoms: C_25  and  C_27
REMARK                            x       y       z     vdW  Elec       q    Type
REMARK                         _______ _______ _______ _____ _____    ______ ____
ROOT
ATOM      1  N   UNL     1       0.338  -0.428  -1.267  0.00  0.00    -0.304 N 
ATOM      2  C   UNL     1      -0.152  -0.584  -2.513  0.00  0.00    +0.234 C 
ATOM      3  O   UNL     1      -1.333  -0.405  -2.726  0.00  0.00    -0.274 OA
ATOM      4  H   UNL     1       1.266  -0.642  -1.081  0.00  0.00    +0.149 HD
ENDROOT
BRANCH   1   6
ATOM      5  C   UNL     1      -0.551   1.595  -0.220  0.00  0.00    +0.036 C 
ATOM      6  C   UNL     1      -0.529   0.066  -0.195  0.00  0.00    +0.134 C 
BRANCH   6   7
ATOM      7  C   UNL     1      -0.002  -0.407   1.135  0.00  0.00    +0.105 A 
ATOM      8  N   UNL     1       1.297  -0.639   1.427  0.00  0.00    -0.348 N 
ATOM      9  H   UNL     1       2.049  -0.532   0.824  0.00  0.00    +0.167 HD
ATOM     10  C   UNL     1       1.356  -1.052   2.729  0.00  0.00    +0.110 A 
ATOM     11  C   UNL     1       0.080  -1.059   3.195  0.00  0.00    +0.064 A 
ATOM     12  N   UNL     1      -0.725  -0.652   2.192  0.00  0.00    -0.342 N 
ATOM     13  H   UNL     1      -1.689  -0.560   2.248  0.00  0.00    +0.167 HD
BRANCH  11  14
ATOM     14  C   UNL     1      -0.350  -1.440   4.563  0.00  0.00    -0.000 A 
ATOM     15  C   UNL     1      -1.700  -1.406   4.906  0.00  0.00    +0.010 A 
ATOM     16  C   UNL     1      -2.095  -1.761   6.180  0.00  0.00    +0.001 A 
ATOM     17  C   UNL     1      -1.152  -2.149   7.116  0.00  0.00    +0.000 A 
ATOM     18  C   UNL     1       0.189  -2.183   6.781  0.00  0.00    +0.001 A 
ATOM     19  C   UNL     1       0.594  -1.837   5.508  0.00  0.00    +0.010 A 
ENDBRANCH  11  14
ENDBRANCH   6   7
ENDBRANCH   1   6
BRANCH   2  20
ATOM     20  C   UNL     1       0.766  -0.982  -3.640  0.00  0.00    +0.162 C 
BRANCH  20  21
ATOM     21  N   UNL     1       0.230  -0.478  -4.907  0.00  0.00    -0.300 N 
ATOM     22  C   UNL     1       1.058  -0.252  -5.946  0.00  0.00    +0.250 C 
ATOM     23  O   UNL     1       2.250  -0.467  -5.832  0.00  0.00    -0.270 OA
ATOM     24  H   UNL     1      -0.720  -0.306  -4.998  0.00  0.00    +0.150 HD
BRANCH  22  25
ATOM     25  C   UNL     1       0.519   0.256  -7.222  0.00  0.00    +0.107 A 
ATOM     26  C   UNL     1       0.436   1.633  -7.452  0.00  0.00    +0.138 A 
ATOM     27  C   UNL     1      -0.070   2.100  -8.651  0.00  0.00    +0.039 A 
ATOM     28  C   UNL     1      -0.494   1.210  -9.621  0.00  0.00    +0.006 A 
ATOM     29  C   UNL     1      -0.415  -0.153  -9.401  0.00  0.00    +0.039 A 
ATOM     30  C   UNL     1       0.094  -0.638  -8.211  0.00  0.00    +0.138 A 
ATOM     31  F   UNL     1       0.175  -1.970  -8.001  0.00  0.00    -0.205 F 
ATOM     32  F   UNL     1       0.848   2.504  -6.505  0.00  0.00    -0.205 F 
ENDBRANCH  22  25
ENDBRANCH  20  21
BRANCH  20  33
ATOM     33  C   UNL     1       0.868  -2.507  -3.700  0.00  0.00    +0.012 C 
ATOM     34  C   UNL     1       1.546  -3.024  -2.430  0.00  0.00    +0.009 C 
ATOM     35  C   UNL     1      -0.535  -3.108  -3.810  0.00  0.00    +0.009 C 
ENDBRANCH  20  33
ENDBRANCH   2  20
TORSDOF 7
