REMARK  Name = ZINC20764600
REMARK  8 active torsions:
REMARK  status: ('A' for Active; 'I' for Inactive)
REMARK    1  A    between atoms: C_1  and  O_2
REMARK    2  A    between atoms: O_2  and  C_3
REMARK    3  A    between atoms: C_6  and  C_9
REMARK    4  A    between atoms: C_11  and  C_25
REMARK    5  A    between atoms: C_14  and  C_17
REMARK    6  A    between atoms: C_22  and  O_23
REMARK    7  A    between atoms: C_28  and  O_32
REMARK    8  A    between atoms: O_32  and  C_33
REMARK                            x       y       z     vdW  Elec       q    Type
REMARK                         _______ _______ _______ _____ _____    ______ ____
ROOT
ATOM      1  C   UNL     1      -2.500   1.008   0.019  0.00  0.00    +0.040 C 
ATOM      2  N   UNL     1      -2.451  -0.272   0.012  0.00  0.00    -0.299 NA
ATOM      3  C   UNL     1      -3.626  -1.135   0.024  0.00  0.00    +0.081 C 
ATOM      4  N   UNL     1      -4.824  -0.386  -0.375  0.00  0.00    +0.401 N 
ATOM      5  C   UNL     1      -4.941   0.847   0.421  0.00  0.00    -0.028 C 
ATOM      6  C   UNL     1      -3.790   1.780   0.036  0.00  0.00    +0.044 C 
ATOM      7  H   UNL     1      -4.753  -0.122  -1.440  0.00  0.00    -0.081 HD
ATOM      8  H   UNL     1      -5.716  -1.007  -0.209  0.00  0.00    -0.081 HD
ENDROOT
BRANCH   5   9
ATOM      9  C   UNL     1      -6.259   1.517   0.131  0.00  0.00    -0.018 A 
ATOM     10  C   UNL     1      -6.944   1.219  -1.031  0.00  0.00    +0.025 A 
ATOM     11  C   UNL     1      -8.157   1.830  -1.296  0.00  0.00    +0.041 A 
ATOM     12  C   UNL     1      -8.681   2.748  -0.403  0.00  0.00    +0.023 A 
ATOM     13  C   UNL     1      -7.997   3.052   0.758  0.00  0.00    +0.047 A 
ATOM     14  C   UNL     1      -6.783   2.437   1.028  0.00  0.00    +0.119 A 
ATOM     15 CL   UNL     1      -9.020   1.449  -2.754  0.00  0.00    -0.084 Cl
BRANCH  14  16
ATOM     16  O   UNL     1      -6.107   2.735   2.169  0.00  0.00    -0.507 OA
ATOM     17  H   UNL     1      -6.524   3.464   2.879  0.00  0.00    +0.292 HD
ENDBRANCH  14  16
ENDBRANCH   5   9
BRANCH   3  18
ATOM     18  C   UNL     1      -3.412  -2.277  -0.936  0.00  0.00    -0.039 A 
ATOM     19  C   UNL     1      -2.134  -2.749  -1.174  0.00  0.00    +0.007 A 
ATOM     20  C   UNL     1      -1.935  -3.796  -2.053  0.00  0.00    +0.047 A 
ATOM     21  C   UNL     1      -3.019  -4.375  -2.697  0.00  0.00    +0.134 A 
ATOM     22  C   UNL     1      -4.301  -3.900  -2.457  0.00  0.00    +0.060 A 
ATOM     23  C   UNL     1      -4.495  -2.855  -1.572  0.00  0.00    +0.022 A 
ATOM     24 BR   UNL     1      -5.781  -4.686  -3.332  0.00  0.00    -0.047 Br
BRANCH  21  25
ATOM     25  O   UNL     1      -2.825  -5.404  -3.563  0.00  0.00    -0.494 OA
ATOM     26  C   UNL     1      -1.479  -5.840  -3.762  0.00  0.00    +0.277 C 
ENDBRANCH  21  25
ENDBRANCH   3  18
BRANCH   1  30
ATOM     27  C   UNL     1       1.152   3.171   0.008  0.00  0.00    +0.120 A 
ATOM     28  C   UNL     1       1.170   1.782   0.001  0.00  0.00    +0.046 A 
ATOM     29  C   UNL     1      -0.013   1.076   0.008  0.00  0.00    +0.013 A 
ATOM     30  C   UNL     1      -1.232   1.759   0.017  0.00  0.00    -0.004 A 
ATOM     31  C   UNL     1      -1.245   3.156   0.030  0.00  0.00    +0.013 A 
ATOM     32  C   UNL     1      -0.058   3.854   0.023  0.00  0.00    +0.046 A 
BRANCH  27  34
ATOM     33  C   UNL     1       2.230   5.289   0.009  0.00  0.00    +0.277 C 
ATOM     34  O   UNL     1       2.321   3.863   0.001  0.00  0.00    -0.495 OA
ENDBRANCH  27  34
ENDBRANCH   1  30
TORSDOF 6
