REMARK  Name = ZINC00848867
REMARK  9 active torsions:
REMARK  status: ('A' for Active; 'I' for Inactive)
REMARK    1  A    between atoms: C_1  and  C_2
REMARK    2  A    between atoms: N_4  and  C_25
REMARK    3  A    between atoms: C_7  and  C_9
REMARK    4  A    between atoms: C_9  and  C_11
REMARK    5  A    between atoms: C_9  and  C_20
REMARK    6  A    between atoms: C_16  and  N_17
REMARK    7  A    between atoms: C_20  and  C_21
REMARK    8  A    between atoms: C_20  and  C_23
REMARK    9  A    between atoms: C_25  and  C_26
REMARK                            x       y       z     vdW  Elec       q    Type
REMARK                         _______ _______ _______ _____ _____    ______ ____
ROOT
ATOM      1  C   UNL     1      -1.512  -0.227   1.446  0.00  0.00    +0.070 C 
ENDROOT
BRANCH   1   8
ATOM      2  C   UNL     1      -0.396   1.552  -1.032  0.00  0.00    +0.063 C 
ATOM      3  C   UNL     1      -0.227   0.098  -0.677  0.00  0.00    +0.047 C 
ATOM      4  N   UNL     1      -0.080  -0.870  -1.496  0.00  0.00    -0.186 NA
ATOM      5  N   UNL     1       0.054  -2.103  -0.867  0.00  0.00    -0.188 N 
ATOM      6  C   UNL     1      -0.004  -1.974   0.475  0.00  0.00    +0.244 C 
ATOM      7  O   UNL     1       0.080  -2.854   1.306  0.00  0.00    -0.273 OA
ATOM      8  C   UNL     1      -0.191  -0.489   0.719  0.00  0.00    +0.132 C 
BRANCH   5   9
ATOM      9  C   UNL     1       0.234  -3.376  -1.569  0.00  0.00    +0.170 C 
BRANCH   9  10
ATOM     10  C   UNL     1      -1.112  -3.936  -1.949  0.00  0.00    -0.028 A 
ATOM     11  C   UNL     1      -1.709  -4.899  -1.158  0.00  0.00    +0.005 A 
ATOM     12  C   UNL     1      -2.945  -5.412  -1.507  0.00  0.00    +0.000 A 
ATOM     13  C   UNL     1      -3.583  -4.961  -2.647  0.00  0.00    +0.000 A 
ATOM     14  C   UNL     1      -2.987  -3.997  -3.438  0.00  0.00    +0.000 A 
ATOM     15  C   UNL     1      -1.753  -3.481  -3.087  0.00  0.00    +0.005 A 
ENDBRANCH   9  10
ENDBRANCH   5   9
ENDBRANCH   1   8
BRANCH   1  16
ATOM     16  C   UNL     1      -2.658  -0.714   0.598  0.00  0.00    -0.011 A 
ATOM     17  C   UNL     1      -2.835  -2.069   0.388  0.00  0.00    +0.006 A 
ATOM     18  C   UNL     1      -3.887  -2.515  -0.390  0.00  0.00    +0.000 A 
ATOM     19  C   UNL     1      -4.761  -1.607  -0.958  0.00  0.00    +0.002 A 
ATOM     20  C   UNL     1      -4.584  -0.253  -0.747  0.00  0.00    +0.033 A 
ATOM     21  C   UNL     1      -3.535   0.194   0.035  0.00  0.00    +0.130 A 
BRANCH  21  22
ATOM     22  N   UNL     1      -3.349   1.644   0.265  0.00  0.00    +0.057 N 
ATOM     23  O   UNL     1      -4.182   2.429  -0.123  0.00  0.00    -0.126 OA
ATOM     24  O   UNL     1      -2.363   2.043   0.841  0.00  0.00    -0.126 OA
ENDBRANCH  21  22
ENDBRANCH   1  16
BRANCH   1  25
ATOM     25  C   UNL     1      -1.514  -0.972   2.783  0.00  0.00    +0.202 C 
BRANCH  25  26
ATOM     26  C   UNL     1      -0.439  -0.445   3.640  0.00  0.00    +0.081 C 
ATOM     27  N   UNL     1       0.390  -0.039   4.301  0.00  0.00    -0.195 NA
ENDBRANCH  25  26
BRANCH  25  28
ATOM     28  C   UNL     1      -2.812  -0.779   3.450  0.00  0.00    +0.081 C 
ATOM     29  N   UNL     1      -3.814  -0.630   3.964  0.00  0.00    -0.195 NA
ENDBRANCH  25  28
ENDBRANCH   1  25
TORSDOF 8
