REMARK  Name = ZINC13274644
REMARK  8 active torsions:
REMARK  status: ('A' for Active; 'I' for Inactive)
REMARK    1  A    between atoms: C_3  and  N_30
REMARK    2  A    between atoms: C_4  and  O_9
REMARK    3  A    between atoms: C_6  and  C_7
REMARK    4  A    between atoms: O_9  and  C_10
REMARK    5  A    between atoms: C_13  and  S_19
REMARK    6  A    between atoms: C_15  and  N_16
REMARK    7  A    between atoms: S_19  and  N_22
REMARK    8  A    between atoms: C_25  and  C_28
REMARK                            x       y       z     vdW  Elec       q    Type
REMARK                         _______ _______ _______ _____ _____    ______ ____
ROOT
ATOM      1  C   UNL     1       1.185   1.796  -0.002  0.00  0.00    +0.159 A 
ATOM      2  C   UNL     1      -0.007   1.104   0.159  0.00  0.00    +0.050 A 
ATOM      3  C   UNL     1      -1.206   1.788   0.166  0.00  0.00    +0.032 A 
ATOM      4  C   UNL     1      -1.220   3.163   0.023  0.00  0.00    +0.108 A 
ATOM      5  C   UNL     1      -0.034   3.856  -0.136  0.00  0.00    +0.065 A 
ATOM      6  C   UNL     1       1.168   3.176  -0.149  0.00  0.00    +0.170 A 
ENDROOT
BRANCH   6   7
ATOM      7  N   UNL     1       2.437   3.918  -0.320  0.00  0.00    +0.060 N 
ATOM      8  O   UNL     1       2.422   5.129  -0.450  0.00  0.00    -0.126 OA
ATOM      9  O   UNL     1       3.497   3.318  -0.331  0.00  0.00    -0.126 OA
ENDBRANCH   6   7
BRANCH   4  10
ATOM     10  S   UNL     1      -2.752   4.034   0.039  0.00  0.00    +0.061 S 
ATOM     11  O   UNL     1      -3.675   3.219   0.748  0.00  0.00    -0.153 OA
ATOM     12  O   UNL     1      -2.457   5.368   0.429  0.00  0.00    -0.153 OA
BRANCH  10  13
ATOM     13  N   UNL     1      -3.290   4.106  -1.526  0.00  0.00    -0.177 NA
ATOM     14  C   UNL     1      -2.920   5.233  -2.393  0.00  0.00    +0.110 C 
ATOM     15  C   UNL     1      -4.189   5.850  -2.977  0.00  0.00    +0.032 C 
ATOM     16  C   UNL     1      -5.008   4.761  -3.676  0.00  0.00    +0.105 C 
ATOM     17  C   UNL     1      -5.412   3.692  -2.657  0.00  0.00    +0.032 C 
ATOM     18  C   UNL     1      -4.151   3.049  -2.071  0.00  0.00    +0.110 C 
BRANCH  16  19
ATOM     19  C   UNL     1      -6.246   5.373  -4.279  0.00  0.00    +0.359 C 
ATOM     20  O   UNL     1      -7.339   4.993  -3.931  0.00  0.00    -0.246 OA
ATOM     21  O   UNL     1      -6.134   6.339  -5.204  0.00  0.00    -0.246 OA
ENDBRANCH  16  19
ENDBRANCH  10  13
ENDBRANCH   4  10
BRANCH   1  22
ATOM     22  O   UNL     1       2.366   1.125  -0.015  0.00  0.00    -0.451 OA
BRANCH  22  26
ATOM     23  C   UNL     1       4.420   0.706   3.550  0.00  0.00    +0.017 A 
ATOM     24  C   UNL     1       4.986   0.274   2.368  0.00  0.00    +0.037 A 
ATOM     25  C   UNL     1       4.297   0.409   1.177  0.00  0.00    +0.168 A 
ATOM     26  C   UNL     1       3.036   0.990   1.160  0.00  0.00    +0.159 A 
ATOM     27  C   UNL     1       2.459   1.427   2.340  0.00  0.00    +0.063 A 
ATOM     28  C   UNL     1       3.150   1.286   3.544  0.00  0.00    +0.067 A 
BRANCH  28  29
ATOM     29  C   UNL     1       2.541   1.750   4.808  0.00  0.00    +0.387 C 
ATOM     30  O   UNL     1       1.436   2.254   4.800  0.00  0.00    -0.241 OA
ATOM     31  O   UNL     1       3.211   1.613   5.969  0.00  0.00    -0.241 OA
ENDBRANCH  28  29
BRANCH  25  32
ATOM     32  N   UNL     1       4.909  -0.063  -0.086  0.00  0.00    +0.060 N 
ATOM     33  O   UNL     1       6.015  -0.573  -0.073  0.00  0.00    -0.126 OA
ATOM     34  O   UNL     1       4.306   0.059  -1.137  0.00  0.00    -0.126 OA
ENDBRANCH  25  32
ENDBRANCH  22  26
ENDBRANCH   1  22
TORSDOF 8
