REMARK  Name = ZINC01317697
REMARK  6 active torsions:
REMARK  status: ('A' for Active; 'I' for Inactive)
REMARK    1  A    between atoms: C_1  and  C_2
REMARK    2  A    between atoms: C_5  and  C_8
REMARK    3  A    between atoms: C_10  and  C_22
REMARK    4  A    between atoms: C_12  and  C_17
REMARK    5  A    between atoms: C_12  and  O_21
REMARK    6  A    between atoms: C_22  and  C_24
REMARK                            x       y       z     vdW  Elec       q    Type
REMARK                         _______ _______ _______ _____ _____    ______ ____
ROOT
ATOM      1  C   UNL     1       6.295  -0.389   0.622  0.00  0.00    +0.117 C 
ATOM      2  C   UNL     1       5.012   0.130  -0.037  0.00  0.00    +0.144 C 
ATOM      3  C   UNL     1       5.177   0.046  -1.558  0.00  0.00    +0.241 C 
ATOM      4  N   UNL     1       5.517  -1.328  -1.930  0.00  0.00    -0.291 N 
ATOM      5  C   UNL     1       6.187  -2.132  -1.091  0.00  0.00    +0.133 C 
ATOM      6  S   UNL     1       6.562  -3.723  -1.601  0.00  0.00    -0.019 S 
ATOM      7  N   UNL     1       6.575  -1.739   0.131  0.00  0.00    -0.319 N 
ATOM      8  H   UNL     1       5.252  -1.664  -2.800  0.00  0.00    +0.151 HD
ATOM      9  H   UNL     1       7.050  -2.363   0.702  0.00  0.00    +0.148 HD
ENDROOT
BRANCH   1  14
ATOM     10  C   UNL     1      10.700   3.103  -0.720  0.00  0.00    +0.044 C 
ATOM     11  C   UNL     1       9.552   2.192  -0.370  0.00  0.00    -0.050 A 
ATOM     12  C   UNL     1       8.508   2.662   0.406  0.00  0.00    +0.004 A 
ATOM     13  C   UNL     1       7.455   1.827   0.727  0.00  0.00    +0.006 A 
ATOM     14  C   UNL     1       7.444   0.522   0.272  0.00  0.00    -0.026 A 
ATOM     15  C   UNL     1       8.490   0.050  -0.499  0.00  0.00    +0.006 A 
ATOM     16  C   UNL     1       9.542   0.886  -0.824  0.00  0.00    +0.004 A 
ENDBRANCH   1  14
BRANCH   3  17
ATOM     17  C   UNL     1       3.866   0.450  -2.237  0.00  0.00    +0.436 C 
ATOM     18  F   UNL     1       3.456   1.698  -1.754  0.00  0.00    -0.166 F 
ATOM     19  F   UNL     1       4.062   0.526  -3.620  0.00  0.00    -0.166 F 
ATOM     20  F   UNL     1       2.883  -0.504  -1.957  0.00  0.00    -0.166 F 
ENDBRANCH   3  17
BRANCH   3  21
ATOM     21  O   UNL     1       6.222   0.928  -1.974  0.00  0.00    -0.364 OA
ATOM     22  H   UNL     1       6.381   0.926  -2.928  0.00  0.00    +0.212 HD
ENDBRANCH   3  21
BRANCH   2  23
ATOM     23  C   UNL     1       3.844  -0.720   0.393  0.00  0.00    +0.173 C 
ATOM     24  O   UNL     1       3.688  -1.823  -0.085  0.00  0.00    -0.292 OA
BRANCH  23  25
ATOM     25  C   UNL     1       2.893  -0.211   1.394  0.00  0.00    +0.018 A 
ATOM     26  C   UNL     1       1.743  -0.942   1.707  0.00  0.00    +0.011 A 
ATOM     27  C   UNL     1       0.857  -0.459   2.647  0.00  0.00    +0.001 A 
ATOM     28  C   UNL     1       1.103   0.748   3.279  0.00  0.00    +0.000 A 
ATOM     29  C   UNL     1       2.239   1.477   2.975  0.00  0.00    +0.001 A 
ATOM     30  C   UNL     1       3.135   1.007   2.038  0.00  0.00    +0.011 A 
ENDBRANCH  23  25
ENDBRANCH   2  23
TORSDOF 5
