REMARK  Name = ZINC13281059
REMARK  9 active torsions:
REMARK  status: ('A' for Active; 'I' for Inactive)
REMARK    1  A    between atoms: C_1  and  C_2
REMARK    2  A    between atoms: C_5  and  C_8
REMARK    3  A    between atoms: C_11  and  S_16
REMARK    4  A    between atoms: N_12  and  C_13
REMARK    5  A    between atoms: C_13  and  C_14
REMARK    6  A    between atoms: S_16  and  C_17
REMARK    7  A    between atoms: C_17  and  C_18
REMARK    8  A    between atoms: C_22  and  C_31
REMARK    9  A    between atoms: N_33  and  C_34
REMARK                            x       y       z     vdW  Elec       q    Type
REMARK                         _______ _______ _______ _____ _____    ______ ____
ROOT
ATOM      1  C   UNL     1      -1.632   2.325   0.081  0.00  0.00    +0.173 C 
ENDROOT
BRANCH   1   2
ATOM      2  C   UNL     1      -0.211   1.830   0.011  0.00  0.00    +0.230 C 
ATOM      3  O   UNL     1       0.012   0.650  -0.164  0.00  0.00    -0.274 OA
ATOM      4  N   UNL     1       0.813   2.697   0.138  0.00  0.00    -0.264 N 
ATOM      5  C   UNL     1       0.575   4.148   0.230  0.00  0.00    +0.168 C 
ATOM      6  C   UNL     1       1.633   4.848  -0.636  0.00  0.00    +0.276 C 
ATOM      7  O   UNL     1       2.931   4.482  -0.162  0.00  0.00    -0.476 OA
ATOM      8  C   UNL     1       3.185   3.161   0.032  0.00  0.00    +0.143 A 
ATOM      9  C   UNL     1       2.144   2.249   0.192  0.00  0.00    +0.078 A 
ATOM     10  C   UNL     1       2.418   0.907   0.389  0.00  0.00    +0.027 A 
ATOM     11  C   UNL     1       3.730   0.471   0.433  0.00  0.00    +0.002 A 
ATOM     12  C   UNL     1       4.765   1.373   0.277  0.00  0.00    +0.004 A 
ATOM     13  C   UNL     1       4.497   2.714   0.076  0.00  0.00    +0.047 A 
BRANCH   6  14
ATOM     14  C   UNL     1       1.460   6.341  -0.536  0.00  0.00    +0.255 C 
ATOM     15  O   UNL     1       2.329   7.019  -0.029  0.00  0.00    -0.272 OA
ATOM     16  N   UNL     1       0.341   6.924  -1.009  0.00  0.00    -0.315 N 
ATOM     17  C   UNL     1       0.173   8.376  -0.911  0.00  0.00    +0.128 C 
ATOM     18  H   UNL     1      -0.354   6.382  -1.414  0.00  0.00    +0.148 HD
ENDBRANCH   6  14
ENDBRANCH   1   2
BRANCH   1  19
ATOM     19  S   UNL     1      -2.766   0.916   0.020  0.00  0.00    -0.077 S 
BRANCH  19  23
ATOM     20  C   UNL     1      -6.441   2.231   0.203  0.00  0.00    +0.165 A 
ATOM     21  N   UNL     1      -5.737   3.337   0.256  0.00  0.00    -0.128 NA
ATOM     22  N   UNL     1      -4.482   3.061   0.210  0.00  0.00    -0.122 NA
ATOM     23  C   UNL     1      -4.310   1.761   0.115  0.00  0.00    +0.193 A 
ATOM     24  N   UNL     1      -5.549   1.187   0.111  0.00  0.00    -0.291 N 
BRANCH  20  29
ATOM     25  C   UNL     1     -12.180   1.821   0.325  0.00  0.00    +0.044 C 
ATOM     26  C   UNL     1     -10.677   1.928   0.294  0.00  0.00    -0.050 A 
ATOM     27  C   UNL     1     -10.079   3.144   0.015  0.00  0.00    +0.004 A 
ATOM     28  C   UNL     1      -8.704   3.249  -0.015  0.00  0.00    +0.012 A 
ATOM     29  C   UNL     1      -7.915   2.125   0.235  0.00  0.00    +0.019 A 
ATOM     30  C   UNL     1      -8.525   0.900   0.510  0.00  0.00    +0.012 A 
ATOM     31  C   UNL     1      -9.901   0.810   0.543  0.00  0.00    +0.004 A 
ENDBRANCH  20  29
BRANCH  24  32
ATOM     32  C   UNL     1      -5.863  -0.241   0.026  0.00  0.00    +0.250 C 
BRANCH  32  33
ATOM     33  C   UNL     1      -6.056  -0.796   1.413  0.00  0.00    +0.375 C 
ATOM     34  O   UNL     1      -5.943  -0.073   2.375  0.00  0.00    -0.244 OA
ATOM     35  O   UNL     1      -6.354  -2.095   1.581  0.00  0.00    -0.244 OA
ENDBRANCH  32  33
ENDBRANCH  24  32
ENDBRANCH  19  23
ENDBRANCH   1  19
TORSDOF 7
