REMARK  Name = ZINC66908979
REMARK  10 active torsions:
REMARK  status: ('A' for Active; 'I' for Inactive)
REMARK    1  A    between atoms: C_1  and  C_2
REMARK    2  A    between atoms: C_2  and  S_3
REMARK    3  A    between atoms: S_3  and  N_6
REMARK    4  A    between atoms: N_6  and  C_7
REMARK    5  A    between atoms: N_6  and  C_8
REMARK    6  A    between atoms: N_16  and  C_17
REMARK    7  A    between atoms: C_17  and  C_18
REMARK    8  A    between atoms: C_18  and  C_20
REMARK    9  A    between atoms: C_18  and  N_21
REMARK   10  A    between atoms: C_26  and  C_28
REMARK                            x       y       z     vdW  Elec       q    Type
REMARK                         _______ _______ _______ _____ _____    ______ ____
ROOT
ATOM      1  C   UNL     1      -0.025  -3.104   2.147  0.00  0.00    +0.082 C 
ATOM      2  C   UNL     1       0.591  -4.174   3.051  0.00  0.00    +0.039 C 
ATOM      3  C   UNL     1      -0.529  -4.973   3.725  0.00  0.00    +0.111 C 
ATOM      4  N   UNL     1      -1.423  -5.503   2.687  0.00  0.00    -0.286 N 
ATOM      5  C   UNL     1      -1.999  -4.570   1.708  0.00  0.00    +0.111 C 
ATOM      6  C   UNL     1      -0.863  -3.776   1.057  0.00  0.00    +0.039 C 
ATOM      7  C   UNL     1      -1.710  -6.819   2.633  0.00  0.00    +0.302 C 
ATOM      8  O   UNL     1      -1.162  -7.592   3.395  0.00  0.00    -0.253 OA
ATOM      9  N   UNL     1      -2.604  -7.277   1.734  0.00  0.00    -0.301 N 
ATOM     10  H   UNL     1      -2.986  -6.673   1.079  0.00  0.00    +0.150 HD
ENDROOT
BRANCH   1  11
ATOM     11  N   UNL     1       1.043  -2.316   1.526  0.00  0.00    -0.181 NA
ATOM     12  C   UNL     1       2.034  -2.973   0.671  0.00  0.00    +0.131 C 
BRANCH  11  13
ATOM     13  S   UNL     1       1.128  -0.684   1.791  0.00  0.00    +0.032 S 
ATOM     14  O   UNL     1       2.500  -0.359   1.611  0.00  0.00    -0.158 OA
ATOM     15  O   UNL     1       0.496  -0.487   3.048  0.00  0.00    -0.158 OA
BRANCH  13  17
ATOM     16  C   UNL     1       0.140   1.579   0.614  0.00  0.00    +0.029 C 
ATOM     17  C   UNL     1       0.132   0.056   0.468  0.00  0.00    +0.182 C 
ENDBRANCH  13  17
ENDBRANCH  11  13
ENDBRANCH   1  11
BRANCH   9  18
ATOM     18  C   UNL     1      -2.997  -8.688   1.747  0.00  0.00    +0.090 C 
BRANCH  18  19
ATOM     19  C   UNL     1      -3.913  -8.973   0.555  0.00  0.00    -0.054 C 
ATOM     20  C   UNL     1      -4.248 -10.466   0.515  0.00  0.00    -0.012 C 
BRANCH  19  21
ATOM     21  N   UNL     1      -3.231  -8.591  -0.689  0.00  0.00    +0.384 N 
ATOM     22  C   UNL     1      -2.022  -9.408  -0.853  0.00  0.00    -0.078 C 
ATOM     23  C   UNL     1      -1.265  -8.959  -2.105  0.00  0.00    -0.019 C 
ATOM     24  C   UNL     1      -2.168  -9.129  -3.330  0.00  0.00    -0.003 C 
ATOM     25  C   UNL     1      -3.458  -8.332  -3.115  0.00  0.00    -0.016 C 
ATOM     26  C   UNL     1      -4.134  -8.804  -1.826  0.00  0.00    -0.071 C 
ATOM     27  C   UNL     1      -5.424  -8.011  -1.607  0.00  0.00    -0.013 C 
ATOM     28  H   UNL     1      -2.972  -7.617  -0.644  0.00  0.00    -0.081 HD
ENDBRANCH  19  21
ENDBRANCH  18  19
ENDBRANCH   9  18
TORSDOF 6
