REMARK  Name = ZINC00848058
REMARK  13 active torsions:
REMARK  status: ('A' for Active; 'I' for Inactive)
REMARK    1  A    between atoms: C_1  and  C_2
REMARK    2  A    between atoms: C_2  and  O_3
REMARK    3  A    between atoms: O_3  and  C_4
REMARK    4  A    between atoms: C_6  and  C_11
REMARK    5  A    between atoms: C_9  and  O_10
REMARK    6  A    between atoms: C_16  and  C_21
REMARK    7  A    between atoms: C_29  and  C_38
REMARK    8  A    between atoms: C_30  and  C_31
REMARK    9  A    between atoms: C_31  and  O_33
REMARK   10  A    between atoms: O_33  and  C_34
REMARK   11  A    between atoms: C_34  and  C_35
REMARK   12  A    between atoms: C_35  and  C_36
REMARK   13  A    between atoms: C_35  and  C_37
REMARK                            x       y       z     vdW  Elec       q    Type
REMARK                         _______ _______ _______ _____ _____    ______ ____
ROOT
ATOM      1  C   UNL     1       1.204  -0.766   0.090  0.00  0.00    +0.092 C 
ATOM      2  C   UNL     1       2.392   0.072   0.492  0.00  0.00    +0.024 C 
ATOM      3  C   UNL     1       2.357   1.416   0.380  0.00  0.00    +0.016 C 
ATOM      4  C   UNL     1       3.540   2.261   0.782  0.00  0.00    +0.059 C 
ATOM      5  C   UNL     1       4.833   1.473   0.560  0.00  0.00    +0.032 C 
ATOM      6  C   UNL     1       4.763   0.183   1.383  0.00  0.00    +0.088 C 
ATOM      7  C   UNL     1       3.533  -0.586   0.983  0.00  0.00    +0.162 C 
ATOM      8  O   UNL     1       3.526  -1.797   1.087  0.00  0.00    -0.292 OA
ATOM      9  N   UNL     1       1.239   2.045  -0.101  0.00  0.00    -0.321 N 
ATOM     10  C   UNL     1       0.028   1.410  -0.099  0.00  0.00    +0.016 C 
ATOM     11  C   UNL     1      -0.038   0.071  -0.005  0.00  0.00    +0.065 C 
ATOM     12  C   UNL     1      -1.240   2.217  -0.208  0.00  0.00    +0.061 C 
ATOM     13  H   UNL     1       1.310   3.070  -0.494  0.00  0.00    +0.152 HD
ENDROOT
BRANCH   5  14
ATOM     14  C   UNL     1       6.012   2.298   1.010  0.00  0.00    -0.043 A 
ATOM     15  C   UNL     1       6.097   2.721   2.323  0.00  0.00    +0.005 A 
ATOM     16  C   UNL     1       7.181   3.473   2.738  0.00  0.00    +0.020 A 
ATOM     17  C   UNL     1       8.174   3.810   1.836  0.00  0.00    +0.041 A 
ATOM     18  C   UNL     1       8.085   3.390   0.520  0.00  0.00    +0.020 A 
ATOM     19  C   UNL     1       7.004   2.634   0.108  0.00  0.00    +0.005 A 
ATOM     20 CL   UNL     1       9.532   4.760   2.354  0.00  0.00    -0.084 Cl
ENDBRANCH   5  14
BRANCH   1  23
ATOM     21  C   UNL     1       1.768  -3.361  -2.596  0.00  0.00    +0.162 A 
ATOM     22  C   UNL     1       1.521  -2.777  -1.364  0.00  0.00    +0.054 A 
ATOM     23  C   UNL     1       1.477  -1.400  -1.249  0.00  0.00    -0.032 A 
ATOM     24  C   UNL     1       1.689  -0.603  -2.359  0.00  0.00    +0.008 A 
ATOM     25  C   UNL     1       1.940  -1.180  -3.590  0.00  0.00    +0.049 A 
ATOM     26  C   UNL     1       1.980  -2.559  -3.713  0.00  0.00    +0.158 A 
BRANCH  26  27
ATOM     27  O   UNL     1       2.228  -3.128  -4.924  0.00  0.00    -0.503 OA
ATOM     28  H   UNL     1       2.396  -2.493  -5.806  0.00  0.00    +0.292 HD
ENDBRANCH  26  27
BRANCH  21  29
ATOM     29  O   UNL     1       1.806  -4.716  -2.712  0.00  0.00    -0.489 OA
BRANCH  29  31
ATOM     30  C   UNL     1       1.660  -6.968  -1.849  0.00  0.00    +0.048 C 
ATOM     31  C   UNL     1       1.579  -5.476  -1.524  0.00  0.00    +0.226 C 
ENDBRANCH  29  31
ENDBRANCH  21  29
ENDBRANCH   1  23
BRANCH  11  32
ATOM     32  C   UNL     1      -1.303  -0.562   0.005  0.00  0.00    +0.338 C 
ATOM     33  O   UNL     1      -1.797  -0.920   1.058  0.00  0.00    -0.245 OA
BRANCH  32  34
ATOM     34  O   UNL     1      -1.963  -0.768  -1.154  0.00  0.00    -0.461 OA
BRANCH  34  35
ATOM     35  C   UNL     1      -3.236  -1.413  -1.070  0.00  0.00    +0.235 C 
BRANCH  35  36
ATOM     36  C   UNL     1      -3.827  -1.559  -2.474  0.00  0.00    +0.020 C 
ATOM     37  C   UNL     1      -5.130  -2.358  -2.398  0.00  0.00    +0.010 C 
ATOM     38  C   UNL     1      -4.113  -0.172  -3.054  0.00  0.00    +0.010 C 
ENDBRANCH  35  36
ENDBRANCH  34  35
ENDBRANCH  32  34
ENDBRANCH  11  32
TORSDOF 9
