REMARK  Name = ZINC08790429
REMARK  4 active torsions:
REMARK  status: ('A' for Active; 'I' for Inactive)
REMARK    1  A    between atoms: C_1  and  C_2
REMARK    2  A    between atoms: C_13  and  C_15
REMARK    3  A    between atoms: C_15  and  C_16
REMARK    4  A    between atoms: N_28  and  C_31
REMARK                            x       y       z     vdW  Elec       q    Type
REMARK                         _______ _______ _______ _____ _____    ______ ____
ROOT
ATOM      1  C   UNL     1      -0.636  -1.314  -4.982  0.00  0.00    +0.044 C 
ATOM      2  C   UNL     1       0.589  -0.537  -4.575  0.00  0.00    -0.050 A 
ATOM      3  C   UNL     1       1.809  -0.804  -5.170  0.00  0.00    +0.005 A 
ATOM      4  C   UNL     1       2.934  -0.095  -4.802  0.00  0.00    +0.024 A 
ATOM      5  C   UNL     1       2.849   0.897  -3.827  0.00  0.00    +0.036 A 
ATOM      6  C   UNL     1       1.617   1.156  -3.235  0.00  0.00    -0.027 A 
ATOM      7  C   UNL     1       0.496   0.446  -3.606  0.00  0.00    +0.008 A 
ATOM      8  C   UNL     1       1.861   2.257  -2.242  0.00  0.00    +0.050 C 
ATOM      9  C   UNL     1       1.487   1.823  -0.820  0.00  0.00    +0.088 C 
ATOM     10  C   UNL     1       0.908   3.105  -0.159  0.00  0.00    +0.074 C 
ATOM     11  C   UNL     1       1.007   4.192  -1.250  0.00  0.00    -0.053 C 
ATOM     12  C   UNL     1      -0.545   2.755   0.068  0.00  0.00    +0.228 C 
ATOM     13  O   UNL     1      -1.374   3.489   0.560  0.00  0.00    -0.275 OA
ATOM     14  N   UNL     1      -0.775   1.510  -0.366  0.00  0.00    -0.210 N 
ATOM     15  C   UNL     1       0.297   0.891  -0.872  0.00  0.00    +0.229 C 
ATOM     16  O   UNL     1       0.311  -0.240  -1.310  0.00  0.00    -0.275 OA
ATOM     17  C   UNL     1       3.329   2.566  -2.355  0.00  0.00    +0.211 C 
ATOM     18  O   UNL     1       3.944   3.401  -1.724  0.00  0.00    -0.277 OA
ATOM     19  N   UNL     1       3.828   1.737  -3.292  0.00  0.00    -0.286 N 
ATOM     20  H   UNL     1       4.759   1.725  -3.564  0.00  0.00    +0.155 HD
ATOM     21  N   UNL     1       1.052   3.434  -2.502  0.00  0.00    +0.394 N 
ATOM     22  H   UNL     1       0.104   3.158  -2.784  0.00  0.00    -0.083 HD
ATOM     23  H   UNL     1       1.478   4.001  -3.245  0.00  0.00    -0.083 HD
ENDROOT
BRANCH  14  24
ATOM     24  C   UNL     1      -2.037   0.902  -0.290  0.00  0.00    +0.044 A 
ATOM     25  C   UNL     1      -2.238  -0.180   0.556  0.00  0.00    +0.024 A 
ATOM     26  C   UNL     1      -3.483  -0.773   0.631  0.00  0.00    +0.002 A 
ATOM     27  C   UNL     1      -4.525  -0.298  -0.143  0.00  0.00    +0.000 A 
ATOM     28  C   UNL     1      -4.326   0.776  -0.990  0.00  0.00    +0.002 A 
ATOM     29  C   UNL     1      -3.085   1.377  -1.066  0.00  0.00    +0.024 A 
ENDBRANCH  14  24
BRANCH  11  30
ATOM     30  C   UNL     1       2.293   5.003  -1.077  0.00  0.00    +0.022 C 
BRANCH  30  31
ATOM     31  C   UNL     1       2.015   6.209  -0.217  0.00  0.00    -0.024 A 
ATOM     32  C   UNL     1       1.715   7.444  -0.648  0.00  0.00    +0.087 A 
ATOM     33  N   UNL     1       1.528   8.278   0.421  0.00  0.00    -0.360 N 
ATOM     34  H   UNL     1       1.302   9.220   0.360  0.00  0.00    +0.165 HD
ATOM     35  C   UNL     1       1.707   7.582   1.595  0.00  0.00    +0.047 A 
ATOM     36  C   UNL     1       2.014   6.254   1.247  0.00  0.00    +0.003 A 
ATOM     37  C   UNL     1       2.256   5.310   2.246  0.00  0.00    +0.010 A 
ATOM     38  C   UNL     1       2.182   5.679   3.560  0.00  0.00    +0.001 A 
ATOM     39  C   UNL     1       1.874   6.987   3.909  0.00  0.00    +0.002 A 
ATOM     40  C   UNL     1       1.637   7.935   2.938  0.00  0.00    +0.026 A 
ENDBRANCH  30  31
ENDBRANCH  11  30
TORSDOF 3
