REMARK  Name = ZINC58840076
REMARK  3 active torsions:
REMARK  status: ('A' for Active; 'I' for Inactive)
REMARK    1  A    between atoms: C_3  and  C_8
REMARK    2  A    between atoms: C_5  and  O_7
REMARK    3  A    between atoms: C_13  and  C_18
REMARK                            x       y       z     vdW  Elec       q    Type
REMARK                         _______ _______ _______ _____ _____    ______ ____
ROOT
ATOM      1  C   UNL     1       3.671   2.190  -0.021  0.00  0.00    +0.136 C 
ATOM      2  C   UNL     1       3.934   2.696   1.377  0.00  0.00    +0.036 C 
ATOM      3  C   UNL     1       3.865   3.977   1.778  0.00  0.00    +0.017 C 
ATOM      4  C   UNL     1       4.163   4.351   3.220  0.00  0.00    +0.059 C 
ATOM      5  C   UNL     1       3.753   3.212   4.151  0.00  0.00    +0.032 C 
ATOM      6  C   UNL     1       4.551   1.967   3.744  0.00  0.00    +0.088 C 
ATOM      7  C   UNL     1       4.277   1.679   2.299  0.00  0.00    +0.163 C 
ATOM      8  O   UNL     1       4.351   0.531   1.905  0.00  0.00    -0.292 OA
ATOM      9  N   UNL     1       3.553   5.023   0.972  0.00  0.00    -0.316 N 
ATOM     10  C   UNL     1       2.493   5.047   0.073  0.00  0.00    +0.054 A 
ATOM     11  C   UNL     1       1.420   5.910   0.213  0.00  0.00    +0.045 A 
ATOM     12  C   UNL     1       0.421   5.914  -0.746  0.00  0.00    +0.043 A 
ATOM     13  C   UNL     1       0.497   5.064  -1.836  0.00  0.00    +0.022 A 
ATOM     14  C   UNL     1       1.560   4.187  -1.967  0.00  0.00    +0.026 A 
ATOM     15  C   UNL     1       2.549   4.167  -0.998  0.00  0.00    +0.049 A 
ATOM     16  N   UNL     1       3.577   3.228  -1.026  0.00  0.00    -0.331 N 
ATOM     17 CL   UNL     1      -0.932   6.989  -0.581  0.00  0.00    -0.083 Cl
ATOM     18  H   UNL     1       4.111   5.815   1.027  0.00  0.00    +0.152 HD
ATOM     19  H   UNL     1       4.239   3.269  -1.734  0.00  0.00    +0.147 HD
ENDROOT
BRANCH   5  20
ATOM     20  C   UNL     1       4.071   3.579   5.578  0.00  0.00    -0.043 A 
ATOM     21  C   UNL     1       5.374   3.859   5.946  0.00  0.00    +0.005 A 
ATOM     22  C   UNL     1       5.666   4.196   7.254  0.00  0.00    +0.020 A 
ATOM     23  C   UNL     1       4.654   4.253   8.196  0.00  0.00    +0.041 A 
ATOM     24  C   UNL     1       3.350   3.973   7.827  0.00  0.00    +0.020 A 
ATOM     25  C   UNL     1       3.059   3.641   6.517  0.00  0.00    +0.005 A 
ATOM     26 CL   UNL     1       5.020   4.676   9.839  0.00  0.00    -0.084 Cl
ENDBRANCH   5  20
BRANCH   1  29
ATOM     27  C   UNL     1      -0.000   1.353   0.263  0.00  0.00    +0.004 A 
ATOM     28  C   UNL     1       1.187   2.061   0.254  0.00  0.00    +0.006 A 
ATOM     29  C   UNL     1       2.379   1.415  -0.013  0.00  0.00    -0.019 A 
ATOM     30  C   UNL     1       2.387   0.058  -0.273  0.00  0.00    +0.051 A 
ATOM     31  C   UNL     1       1.197  -0.656  -0.266  0.00  0.00    +0.117 A 
ATOM     32  C   UNL     1       0.002  -0.004   0.004  0.00  0.00    +0.045 A 
BRANCH  31  33
ATOM     33  O   UNL     1       1.202  -1.990  -0.521  0.00  0.00    -0.507 OA
ATOM     34  H   UNL     1       1.308  -2.541   0.267  0.00  0.00    +0.292 HD
ENDBRANCH  31  33
ENDBRANCH   1  29
TORSDOF 3
