REMARK  Name = ZINC33063441
REMARK  3 active torsions:
REMARK  status: ('A' for Active; 'I' for Inactive)
REMARK    1  A    between atoms: C_8  and  C_14
REMARK    2  A    between atoms: C_17  and  C_20
REMARK    3  A    between atoms: N_22  and  C_23
REMARK                            x       y       z     vdW  Elec       q    Type
REMARK                         _______ _______ _______ _____ _____    ______ ____
ROOT
ATOM      1  C   UNL     1       0.002  -0.004   0.002  0.00  0.00    +0.002 A 
ATOM      2  C   UNL     1       1.206  -0.685  -0.013  0.00  0.00    +0.002 A 
ATOM      3  C   UNL     1       2.396   0.020  -0.029  0.00  0.00    +0.030 A 
ATOM      4  C   UNL     1       2.381   1.399  -0.028  0.00  0.00    +0.126 A 
ATOM      5  C   UNL     1       1.179   2.093   0.002  0.00  0.00    +0.055 A 
ATOM      6  C   UNL     1      -0.017   1.375   0.010  0.00  0.00    +0.025 A 
ATOM      7  N   UNL     1       1.127   3.483   0.048  0.00  0.00    -0.322 N 
ATOM      8  C   UNL     1       2.220   4.342  -0.403  0.00  0.00    +0.191 C 
ATOM      9  N   UNL     1       3.475   3.879   0.223  0.00  0.00    -0.166 NA
ATOM     10  S   UNL     1       3.903   2.296  -0.084  0.00  0.00    +0.062 S 
ATOM     11  O   UNL     1       4.685   1.855   1.018  0.00  0.00    -0.153 OA
ATOM     12  O   UNL     1       4.365   2.245  -1.426  0.00  0.00    -0.153 OA
ATOM     13  H   UNL     1       0.205   3.930   0.447  0.00  0.00    +0.148 HD
ATOM     14  H   UNL     1       4.147   4.602   0.709  0.00  0.00    +0.150 HD
ENDROOT
BRANCH   8  15
ATOM     15  C   UNL     1       2.340   4.262  -1.903  0.00  0.00    -0.011 A 
ATOM     16  C   UNL     1       3.573   4.441  -2.505  0.00  0.00    +0.007 A 
ATOM     17  C   UNL     1       3.691   4.364  -3.877  0.00  0.00    +0.013 A 
ATOM     18  C   UNL     1       2.561   4.116  -4.659  0.00  0.00    +0.037 A 
ATOM     19  C   UNL     1       1.320   3.943  -4.045  0.00  0.00    +0.013 A 
ATOM     20  C   UNL     1       1.216   4.017  -2.672  0.00  0.00    +0.007 A 
BRANCH  18  21
ATOM     21  C   UNL     1       2.679   4.038  -6.131  0.00  0.00    +0.244 C 
ATOM     22  O   UNL     1       1.694   3.823  -6.809  0.00  0.00    -0.270 OA
ATOM     23  N   UNL     1       3.879   4.206  -6.720  0.00  0.00    -0.308 N 
ATOM     24  H   UNL     1       4.771   4.401  -6.107  0.00  0.00    +0.149 HD
BRANCH  23  25
ATOM     25  C   UNL     1       3.996   4.130  -8.179  0.00  0.00    +0.073 C 
ATOM     26  C   UNL     1       5.175   3.340  -8.752  0.00  0.00    +0.024 C 
ATOM     27  C   UNL     1       5.165   4.869  -8.834  0.00  0.00    +0.024 C 
ENDBRANCH  23  25
ENDBRANCH  18  21
ENDBRANCH   8  15
TORSDOF 3
