REMARK  Name = ZINC50204580
REMARK  4 active torsions:
REMARK  status: ('A' for Active; 'I' for Inactive)
REMARK    1  A    between atoms: C_5  and  N_7
REMARK    2  A    between atoms: C_9  and  C_12
REMARK    3  A    between atoms: N_14  and  S_15
REMARK    4  A    between atoms: S_15  and  C_18
REMARK                            x       y       z     vdW  Elec       q    Type
REMARK                         _______ _______ _______ _____ _____    ______ ____
ROOT
ATOM      1  N   UNL     1       1.236  -2.082  -0.022  0.00  0.00    -0.238 N 
ATOM      2  C   UNL     1       0.156  -2.888  -0.021  0.00  0.00    +0.128 A 
ATOM      3  C   UNL     1       0.612  -4.188  -0.031  0.00  0.00    +0.080 A 
ATOM      4  C   UNL     1       2.023  -4.138  -0.039  0.00  0.00    +0.148 A 
ATOM      5  N   UNL     1       2.384  -2.883  -0.038  0.00  0.00    -0.174 NA
ENDROOT
BRANCH   1  10
ATOM      6  C   UNL     1      -0.017   1.377   0.010  0.00  0.00    +0.002 A 
ATOM      7  C   UNL     1       1.170   2.087   0.002  0.00  0.00    +0.002 A 
ATOM      8  C   UNL     1       2.380   1.417  -0.013  0.00  0.00    +0.022 A 
ATOM      9  C   UNL     1       2.405   0.035  -0.021  0.00  0.00    +0.066 A 
ATOM     10  C   UNL     1       1.214  -0.681  -0.014  0.00  0.00    +0.084 A 
ATOM     11  C   UNL     1       0.002  -0.004   0.002  0.00  0.00    +0.029 A 
ATOM     12 CL   UNL     1       3.924  -0.806  -0.042  0.00  0.00    -0.081 Cl
ENDBRANCH   1  10
BRANCH   3  13
ATOM     13  C   UNL     1      -0.220  -5.409  -0.034  0.00  0.00    +0.298 C 
ATOM     14  O   UNL     1      -1.569  -5.307  -0.025  0.00  0.00    -0.264 OA
ATOM     15  N   UNL     1       0.344  -6.582  -0.044  0.00  0.00    -0.085 NA
BRANCH  15  16
ATOM     16  S   UNL     1      -0.590  -7.949  -0.047  0.00  0.00    +0.108 S 
ATOM     17  O   UNL     1      -1.266  -7.982   1.202  0.00  0.00    -0.146 OA
ATOM     18  O   UNL     1      -1.281  -7.967  -1.289  0.00  0.00    -0.146 OA
BRANCH  16  19
ATOM     19  C   UNL     1       0.507  -9.328  -0.062  0.00  0.00    +0.150 A 
ATOM     20  C   UNL     1       1.040 -10.006   0.983  0.00  0.00    +0.037 A 
ATOM     21  C   UNL     1       1.886 -11.070   0.731  0.00  0.00    +0.010 A 
ATOM     22  C   UNL     1       2.158 -11.403  -0.554  0.00  0.00    +0.047 A 
ATOM     23  S   UNL     1       1.198 -10.200  -1.459  0.00  0.00    -0.076 S 
ENDBRANCH  16  19
ENDBRANCH  15  16
ENDBRANCH   3  13
TORSDOF 4
