REMARK  Name = ZINC08717768
REMARK  7 active torsions:
REMARK  status: ('A' for Active; 'I' for Inactive)
REMARK    1  A    between atoms: C_1  and  C_2
REMARK    2  A    between atoms: C_7  and  C_8
REMARK    3  A    between atoms: C_8  and  C_9
REMARK    4  A    between atoms: N_13  and  C_28
REMARK    5  A    between atoms: C_15  and  C_16
REMARK    6  A    between atoms: C_15  and  C_18
REMARK    7  A    between atoms: N_20  and  C_21
REMARK                            x       y       z     vdW  Elec       q    Type
REMARK                         _______ _______ _______ _____ _____    ______ ____
ROOT
ATOM      1  C   UNL     1      -4.818   8.705  -0.155  0.00  0.00    +0.143 C 
ATOM      2  C   UNL     1      -3.670   9.679  -0.367  0.00  0.00    +0.238 C 
ATOM      3  O   UNL     1      -3.830  10.880  -0.340  0.00  0.00    -0.274 OA
ATOM      4  N   UNL     1      -2.486   9.132  -0.584  0.00  0.00    -0.232 N 
ATOM      5  C   UNL     1      -2.296   7.772  -0.617  0.00  0.00    +0.098 C 
ATOM      6  C   UNL     1      -1.107   7.074  -0.834  0.00  0.00    +0.142 C 
ATOM      7  S   UNL     1      -3.928   7.108  -0.324  0.00  0.00    -0.095 S 
ENDROOT
BRANCH   4   8
ATOM      8  C   UNL     1      -1.383   9.972  -0.788  0.00  0.00    +0.042 A 
ATOM      9  C   UNL     1      -1.148  10.519  -2.042  0.00  0.00    +0.025 A 
ATOM     10  C   UNL     1      -0.062  11.350  -2.240  0.00  0.00    +0.017 A 
ATOM     11  C   UNL     1       0.796  11.630  -1.192  0.00  0.00    +0.018 A 
ATOM     12  C   UNL     1       0.567  11.082   0.058  0.00  0.00    +0.017 A 
ATOM     13  C   UNL     1      -0.520  10.255   0.262  0.00  0.00    +0.025 A 
ATOM     14 BR   UNL     1       2.285  12.762  -1.468  0.00  0.00    -0.050 Br
ENDBRANCH   4   8
BRANCH   6  15
ATOM     15  C   UNL     1      -1.092   5.614  -0.751  0.00  0.00    +0.261 C 
ATOM     16  O   UNL     1      -2.116   5.008  -0.493  0.00  0.00    -0.269 OA
ATOM     17  N   UNL     1       0.056   4.939  -0.961  0.00  0.00    -0.281 N 
ATOM     18  H   UNL     1       0.883   5.423  -1.107  0.00  0.00    +0.155 HD
BRANCH  17  19
ATOM     19  C   UNL     1       0.053   3.540  -0.968  0.00  0.00    +0.034 A 
ATOM     20  C   UNL     1       1.152   2.840  -0.485  0.00  0.00    +0.023 A 
ATOM     21  C   UNL     1       1.146   1.459  -0.493  0.00  0.00    +0.002 A 
ATOM     22  C   UNL     1       0.048   0.773  -0.980  0.00  0.00    +0.000 A 
ATOM     23  C   UNL     1      -1.044   1.468  -1.467  0.00  0.00    +0.002 A 
ATOM     24  C   UNL     1      -1.047   2.849  -1.457  0.00  0.00    +0.023 A 
ENDBRANCH  17  19
ENDBRANCH   6  15
BRANCH   6  25
ATOM     25  C   UNL     1       0.097   7.786  -1.138  0.00  0.00    +0.107 C 
ATOM     26  N   UNL     1       1.052   8.351  -1.379  0.00  0.00    -0.191 NA
ENDBRANCH   6  25
BRANCH   1  27
ATOM     27  C   UNL     1      -5.428   8.863   1.239  0.00  0.00    +0.059 C 
BRANCH  27  34
ATOM     28  C   UNL     1      -7.957   9.613   0.060  0.00  0.00    +0.044 C 
ATOM     29  C   UNL     1      -7.831   8.311   0.807  0.00  0.00    -0.047 A 
ATOM     30  C   UNL     1      -8.925   7.474   0.928  0.00  0.00    +0.003 A 
ATOM     31  C   UNL     1      -8.810   6.280   1.613  0.00  0.00    +0.000 A 
ATOM     32  C   UNL     1      -7.600   5.920   2.177  0.00  0.00    +0.000 A 
ATOM     33  C   UNL     1      -6.505   6.753   2.052  0.00  0.00    +0.004 A 
ATOM     34  C   UNL     1      -6.621   7.951   1.371  0.00  0.00    -0.043 A 
ENDBRANCH  27  34
ENDBRANCH   1  27
TORSDOF 6
