REMARK  Name = ZINC36343989
REMARK  13 active torsions:
REMARK  status: ('A' for Active; 'I' for Inactive)
REMARK    1  A    between atoms: C_1  and  C_2
REMARK    2  A    between atoms: C_2  and  O_3
REMARK    3  A    between atoms: O_3  and  C_4
REMARK    4  A    between atoms: C_7  and  C_10
REMARK    5  A    between atoms: C_13  and  C_30
REMARK    6  A    between atoms: C_16  and  C_18
REMARK    7  A    between atoms: C_18  and  N_19
REMARK    8  A    between atoms: C_22  and  C_25
REMARK    9  A    between atoms: C_25  and  O_27
REMARK   10  A    between atoms: O_27  and  C_28
REMARK   11  A    between atoms: C_28  and  C_29
REMARK   12  A    between atoms: C_33  and  C_37
REMARK   13  A    between atoms: C_34  and  C_36
REMARK                            x       y       z     vdW  Elec       q    Type
REMARK                         _______ _______ _______ _____ _____    ______ ____
ROOT
ATOM      1  C   UNL     1       1.109  -6.040  -1.847  0.00  0.00    +0.137 C 
ATOM      2  C   UNL     1       2.525  -6.522  -1.474  0.00  0.00    +0.087 C 
ATOM      3  C   UNL     1       3.058  -7.117  -2.757  0.00  0.00    +0.069 C 
ATOM      4  N   UNL     1       2.167  -7.014  -3.682  0.00  0.00    -0.181 NA
ATOM      5  N   UNL     1       0.981  -6.401  -3.268  0.00  0.00    -0.187 N 
ATOM      6  C   UNL     1      -0.100  -6.177  -4.040  0.00  0.00    +0.219 C 
ATOM      7  O   UNL     1      -1.078  -5.634  -3.571  0.00  0.00    -0.276 OA
ENDROOT
BRANCH   3   8
ATOM      8  C   UNL     1       4.392  -7.722  -2.925  0.00  0.00    -0.002 A 
ATOM      9  C   UNL     1       5.276  -7.782  -1.845  0.00  0.00    +0.010 A 
ATOM     10  C   UNL     1       6.523  -8.349  -2.010  0.00  0.00    +0.004 A 
ATOM     11  C   UNL     1       6.898  -8.857  -3.241  0.00  0.00    -0.048 A 
ATOM     12  C   UNL     1       6.028  -8.801  -4.315  0.00  0.00    -0.047 A 
ATOM     13  C   UNL     1       4.776  -8.242  -4.164  0.00  0.00    +0.013 A 
ATOM     14  C   UNL     1       6.447  -9.356  -5.652  0.00  0.00    +0.044 C 
ATOM     15  C   UNL     1       8.262  -9.475  -3.413  0.00  0.00    +0.044 C 
ENDBRANCH   3   8
BRANCH   1  19
ATOM     16  C   UNL     1       0.777  -1.810  -1.336  0.00  0.00    +0.121 A 
ATOM     17  C   UNL     1       0.243  -2.669  -0.386  0.00  0.00    +0.046 A 
ATOM     18  C   UNL     1       0.351  -4.036  -0.554  0.00  0.00    +0.009 A 
ATOM     19  C   UNL     1       0.992  -4.548  -1.667  0.00  0.00    -0.024 A 
ATOM     20  C   UNL     1       1.525  -3.694  -2.615  0.00  0.00    +0.009 A 
ATOM     21  C   UNL     1       1.414  -2.327  -2.455  0.00  0.00    +0.046 A 
BRANCH  16  22
ATOM     22  O   UNL     1       0.671  -0.465  -1.174  0.00  0.00    -0.492 OA
BRANCH  22  24
ATOM     23  C   UNL     1      -0.019   1.526   0.010  0.00  0.00    +0.048 C 
ATOM     24  C   UNL     1       0.002  -0.004   0.002  0.00  0.00    +0.225 C 
ENDBRANCH  22  24
ENDBRANCH  16  22
ENDBRANCH   1  19
BRANCH   6  25
ATOM     25  C   UNL     1      -0.095  -6.601  -5.486  0.00  0.00    +0.021 C 
BRANCH  25  26
ATOM     26  N   UNL     1      -1.380  -6.248  -6.104  0.00  0.00    +0.385 N 
ATOM     27  C   UNL     1      -1.528  -4.788  -6.120  0.00  0.00    -0.077 C 
ATOM     28  C   UNL     1      -2.900  -4.417  -6.689  0.00  0.00    -0.004 C 
ATOM     29  C   UNL     1      -3.017  -4.959  -8.117  0.00  0.00    +0.094 C 
ATOM     30  C   UNL     1      -2.787  -6.473  -8.098  0.00  0.00    -0.004 C 
ATOM     31  C   UNL     1      -1.420  -6.767  -7.477  0.00  0.00    -0.077 C 
ATOM     32  H   UNL     1      -2.133  -6.655  -5.570  0.00  0.00    -0.081 HD
BRANCH  29  33
ATOM     33  C   UNL     1      -4.394  -4.665  -8.655  0.00  0.00    +0.310 C 
ATOM     34  O   UNL     1      -5.199  -4.082  -7.969  0.00  0.00    -0.251 OA
BRANCH  33  35
ATOM     35  O   UNL     1      -4.725  -5.051  -9.898  0.00  0.00    -0.465 OA
BRANCH  35  36
ATOM     36  C   UNL     1      -6.046  -4.740 -10.343  0.00  0.00    +0.229 C 
ATOM     37  C   UNL     1      -6.237  -5.254 -11.771  0.00  0.00    +0.048 C 
ENDBRANCH  35  36
ENDBRANCH  33  35
ENDBRANCH  29  33
ENDBRANCH  25  26
ENDBRANCH   6  25
TORSDOF 9
