REMARK  Name = ZINC01234047
REMARK  13 active torsions:
REMARK  status: ('A' for Active; 'I' for Inactive)
REMARK    1  A    between atoms: C_1  and  C_2
REMARK    2  A    between atoms: C_2  and  C_3
REMARK    3  A    between atoms: C_2  and  C_4
REMARK    4  A    between atoms: C_6  and  C_27
REMARK    5  A    between atoms: C_7  and  S_13
REMARK    6  A    between atoms: C_8  and  C_10
REMARK    7  A    between atoms: C_10  and  C_11
REMARK    8  A    between atoms: C_10  and  C_12
REMARK    9  A    between atoms: S_13  and  N_16
REMARK   10  A    between atoms: N_16  and  N_17
REMARK   11  A    between atoms: C_18  and  C_20
REMARK   12  A    between atoms: C_27  and  C_28
REMARK   13  A    between atoms: C_27  and  C_29
REMARK                            x       y       z     vdW  Elec       q    Type
REMARK                         _______ _______ _______ _____ _____    ______ ____
ROOT
ATOM      1  S   UNL     1       2.183   4.240  -1.922  0.00  0.00    +0.074 S 
ATOM      2  O   UNL     1       2.957   3.228  -2.553  0.00  0.00    -0.152 OA
ATOM      3  O   UNL     1       1.314   5.098  -2.647  0.00  0.00    -0.152 OA
ENDROOT
BRANCH   1   7
ATOM      4  C   UNL     1      -0.357   2.167   1.199  0.00  0.00    -0.044 A 
ATOM      5  C   UNL     1       0.672   1.483   0.580  0.00  0.00    +0.009 A 
ATOM      6  C   UNL     1       1.447   2.115  -0.374  0.00  0.00    -0.018 A 
ATOM      7  C   UNL     1       1.196   3.434  -0.706  0.00  0.00    +0.114 A 
ATOM      8  C   UNL     1       0.169   4.120  -0.083  0.00  0.00    -0.018 A 
ATOM      9  C   UNL     1      -0.606   3.487   0.871  0.00  0.00    +0.009 A 
BRANCH   4  11
ATOM     10  C   UNL     1      -1.092   2.220   3.567  0.00  0.00    +0.012 C 
ATOM     11  C   UNL     1      -1.206   1.476   2.235  0.00  0.00    +0.013 C 
ATOM     12  C   UNL     1      -2.666   1.471   1.777  0.00  0.00    +0.012 C 
ENDBRANCH   4  11
BRANCH   8  13
ATOM     13  C   UNL     1      -0.104   5.557  -0.445  0.00  0.00    +0.015 C 
ATOM     14  C   UNL     1      -1.392   5.640  -1.267  0.00  0.00    +0.012 C 
ATOM     15  C   UNL     1      -0.261   6.383   0.833  0.00  0.00    +0.012 C 
ENDBRANCH   8  13
BRANCH   6  16
ATOM     16  C   UNL     1       2.565   1.368  -1.053  0.00  0.00    +0.015 C 
ATOM     17  C   UNL     1       3.142   0.328  -0.090  0.00  0.00    +0.012 C 
ATOM     18  C   UNL     1       2.025   0.664  -2.300  0.00  0.00    +0.012 C 
ENDBRANCH   6  16
ENDBRANCH   1   7
BRANCH   1  19
ATOM     19  N   UNL     1       3.250   5.218  -1.117  0.00  0.00    -0.108 NA
ATOM     20  H   UNL     1       3.314   6.158  -1.345  0.00  0.00    +0.172 HD
BRANCH  19  21
ATOM     21  N   UNL     1       4.061   4.686  -0.105  0.00  0.00    -0.228 N 
ATOM     22  C   UNL     1       5.397   4.855  -0.154  0.00  0.00    +0.259 C 
ATOM     23  O   UNL     1       5.889   5.563  -1.011  0.00  0.00    -0.269 OA
ATOM     24  H   UNL     1       3.661   4.197   0.631  0.00  0.00    +0.171 HD
BRANCH  22  25
ATOM     25  C   UNL     1       6.264   4.178   0.834  0.00  0.00    +0.039 A 
ATOM     26  C   UNL     1       5.701   3.377   1.828  0.00  0.00    +0.013 A 
ATOM     27  C   UNL     1       6.516   2.744   2.744  0.00  0.00    +0.002 A 
ATOM     28  C   UNL     1       7.888   2.911   2.685  0.00  0.00    +0.015 A 
ATOM     29  C   UNL     1       8.453   3.709   1.706  0.00  0.00    +0.019 A 
ATOM     30  C   UNL     1       7.649   4.343   0.780  0.00  0.00    +0.028 A 
ATOM     31 BR   UNL     1      10.330   3.930   1.635  0.00  0.00    -0.050 Br
ENDBRANCH  22  25
ENDBRANCH  19  21
ENDBRANCH   1  19
TORSDOF 7
