REMARK  Name = ZINC09461073
REMARK  9 active torsions:
REMARK  status: ('A' for Active; 'I' for Inactive)
REMARK    1  A    between atoms: C_1  and  C_2
REMARK    2  A    between atoms: C_2  and  C_3
REMARK    3  A    between atoms: C_3  and  S_4
REMARK    4  A    between atoms: S_4  and  C_5
REMARK    5  A    between atoms: C_8  and  C_11
REMARK    6  A    between atoms: C_12  and  C_22
REMARK    7  A    between atoms: N_14  and  C_16
REMARK    8  A    between atoms: C_31  and  C_38
REMARK    9  A    between atoms: C_34  and  C_37
REMARK                            x       y       z     vdW  Elec       q    Type
REMARK                         _______ _______ _______ _____ _____    ______ ____
ROOT
ATOM      1  C   UNL     1       0.060  -4.256  -0.020  0.00  0.00    +0.100 A 
ATOM      2  C   UNL     1       1.032  -5.113  -0.711  0.00  0.00    +0.022 A 
ATOM      3  C   UNL     1       0.661  -6.418  -0.440  0.00  0.00    +0.123 A 
ATOM      4  N   UNL     1      -0.433  -6.381   0.343  0.00  0.00    -0.239 N 
ATOM      5  N   UNL     1      -0.786  -5.052   0.596  0.00  0.00    -0.166 NA
ENDROOT
BRANCH   2   6
ATOM      6  C   UNL     1       2.168  -4.673  -1.526  0.00  0.00    +0.032 C 
ATOM      7  C   UNL     1       2.985  -5.591  -2.105  0.00  0.00    +0.080 C 
ATOM      8  C   UNL     1       4.177  -5.395  -2.958  0.00  0.00    +0.276 C 
ATOM      9  O   UNL     1       4.581  -4.281  -3.253  0.00  0.00    -0.267 OA
ATOM     10  N   UNL     1       4.778  -6.485  -3.382  0.00  0.00    -0.154 NA
ATOM     11  C   UNL     1       4.351  -7.698  -3.071  0.00  0.00    +0.154 C 
ATOM     12  S   UNL     1       2.925  -7.378  -2.044  0.00  0.00    -0.052 S 
ATOM     13  N   UNL     1       4.878  -8.908  -3.441  0.00  0.00    -0.307 N 
ATOM     14  C   UNL     1       4.269 -10.169  -2.991  0.00  0.00    +0.138 C 
ATOM     15  C   UNL     1       4.058 -11.066  -4.222  0.00  0.00    +0.133 C 
ATOM     16  O   UNL     1       5.290 -11.176  -4.938  0.00  0.00    -0.371 OA
ATOM     17  C   UNL     1       5.778  -9.937  -5.458  0.00  0.00    +0.133 C 
ATOM     18  C   UNL     1       6.074  -8.983  -4.295  0.00  0.00    +0.138 C 
ATOM     19  C   UNL     1       4.721  -9.315  -6.373  0.00  0.00    +0.039 C 
ATOM     20  C   UNL     1       3.604 -12.455  -3.769  0.00  0.00    +0.039 C 
ENDBRANCH   2   6
BRANCH   1  24
ATOM     21  C   UNL     1       0.002  -0.004   0.002  0.00  0.00    +0.008 A 
ATOM     22  C   UNL     1       1.217  -0.682  -0.019  0.00  0.00    +0.015 A 
ATOM     23  C   UNL     1       1.238  -2.060  -0.021  0.00  0.00    +0.011 A 
ATOM     24  C   UNL     1       0.040  -2.775  -0.013  0.00  0.00    +0.003 A 
ATOM     25  C   UNL     1      -1.177  -2.093   0.003  0.00  0.00    +0.011 A 
ATOM     26  C   UNL     1      -1.194  -0.715   0.010  0.00  0.00    +0.015 A 
BRANCH  21  27
ATOM     27  S   UNL     1      -0.022   1.758   0.012  0.00  0.00    -0.125 S 
BRANCH  27  28
ATOM     28  C   UNL     1       1.732   2.220  -0.003  0.00  0.00    +0.074 C 
BRANCH  28  30
ATOM     29  C   UNL     1       3.337   4.136  -0.008  0.00  0.00    +0.004 C 
ATOM     30  C   UNL     1       1.857   3.745   0.004  0.00  0.00    +0.008 C 
ENDBRANCH  28  30
ENDBRANCH  27  28
ENDBRANCH  21  27
ENDBRANCH   1  24
BRANCH   4  31
ATOM     31  C   UNL     1      -1.112  -7.503   0.834  0.00  0.00    +0.065 A 
ATOM     32  C   UNL     1      -0.667  -8.780   0.515  0.00  0.00    +0.028 A 
ATOM     33  C   UNL     1      -1.337  -9.884   1.004  0.00  0.00    +0.002 A 
ATOM     34  C   UNL     1      -2.454  -9.720   1.802  0.00  0.00    +0.000 A 
ATOM     35  C   UNL     1      -2.902  -8.450   2.117  0.00  0.00    +0.002 A 
ATOM     36  C   UNL     1      -2.234  -7.342   1.635  0.00  0.00    +0.028 A 
ENDBRANCH   4  31
TORSDOF 6
