REMARK  Name = ZINC08277656
REMARK  6 active torsions:
REMARK  status: ('A' for Active; 'I' for Inactive)
REMARK    1  A    between atoms: C_1  and  C_2
REMARK    2  A    between atoms: N_4  and  C_5
REMARK    3  A    between atoms: C_5  and  C_14
REMARK    4  A    between atoms: C_6  and  C_7
REMARK    5  A    between atoms: C_14  and  C_16
REMARK    6  A    between atoms: C_16  and  C_26
REMARK                            x       y       z     vdW  Elec       q    Type
REMARK                         _______ _______ _______ _____ _____    ______ ____
ROOT
ATOM      1  C   UNL     1      -4.026   3.195   0.393  0.00  0.00    +0.220 C 
ATOM      2  O   UNL     1      -4.716   3.525   1.343  0.00  0.00    -0.284 OA
ENDROOT
BRANCH   1   3
ATOM      3  C   UNL     1      -3.493   4.183  -0.471  0.00  0.00    +0.136 C 
ATOM      4  C   UNL     1      -3.702   5.543  -0.197  0.00  0.00    +0.114 C 
ATOM      5  N   UNL     1      -4.306   6.038   0.916  0.00  0.00    -0.300 N 
ATOM      6  C   UNL     1      -4.322   7.425   0.823  0.00  0.00    +0.054 A 
ATOM      7  C   UNL     1      -4.801   8.425   1.657  0.00  0.00    +0.025 A 
ATOM      8  C   UNL     1      -4.678   9.749   1.286  0.00  0.00    +0.002 A 
ATOM      9  C   UNL     1      -4.077  10.084   0.084  0.00  0.00    +0.002 A 
ATOM     10  C   UNL     1      -3.597   9.098  -0.753  0.00  0.00    +0.025 A 
ATOM     11  C   UNL     1      -3.716   7.763  -0.390  0.00  0.00    +0.054 A 
ATOM     12  N   UNL     1      -3.340   6.575  -1.005  0.00  0.00    -0.300 N 
ATOM     13  H   UNL     1      -4.662   5.514   1.650  0.00  0.00    +0.153 HD
ATOM     14  H   UNL     1      -2.895   6.495  -1.863  0.00  0.00    +0.153 HD
BRANCH   3  15
ATOM     15  C   UNL     1      -2.739   3.793  -1.625  0.00  0.00    +0.106 C 
ATOM     16  N   UNL     1      -2.142   3.484  -2.541  0.00  0.00    -0.191 NA
ENDBRANCH   3  15
ENDBRANCH   1   3
BRANCH   1  17
ATOM     17  C   UNL     1      -3.748   1.772   0.145  0.00  0.00    +0.083 C 
ATOM     18  C   UNL     1      -2.469   1.330   0.100  0.00  0.00    +0.035 C 
BRANCH  18  19
ATOM     19  C   UNL     1      -1.366   2.233   0.465  0.00  0.00    -0.023 A 
ATOM     20  C   UNL     1      -0.104   2.069  -0.115  0.00  0.00    +0.009 A 
ATOM     21  C   UNL     1       0.923   2.923   0.226  0.00  0.00    +0.020 A 
ATOM     22  C   UNL     1       0.709   3.937   1.146  0.00  0.00    +0.041 A 
ATOM     23  C   UNL     1      -0.537   4.101   1.728  0.00  0.00    +0.020 A 
ATOM     24  C   UNL     1      -1.573   3.255   1.397  0.00  0.00    +0.009 A 
ATOM     25 CL   UNL     1       2.009   5.007   1.569  0.00  0.00    -0.084 Cl
ENDBRANCH  18  19
BRANCH  17  29
ATOM     26  C   UNL     1      -7.217   0.360  -0.209  0.00  0.00    +0.109 C 
ATOM     27  C   UNL     1      -6.069   1.333  -0.121  0.00  0.00    +0.214 C 
ATOM     28  O   UNL     1      -6.284   2.526  -0.120  0.00  0.00    -0.276 OA
ATOM     29  N   UNL     1      -4.803   0.876  -0.045  0.00  0.00    -0.283 N 
ATOM     30  H   UNL     1      -4.625  -0.074  -0.123  0.00  0.00    +0.155 HD
ENDBRANCH  17  29
ENDBRANCH   1  17
TORSDOF 5
