REMARK  Name = ZINC39631910
REMARK  15 active torsions:
REMARK  status: ('A' for Active; 'I' for Inactive)
REMARK    1  A    between atoms: C_1  and  C_2
REMARK    2  A    between atoms: C_2  and  C_4
REMARK    3  A    between atoms: C_2  and  N_11
REMARK    4  A    between atoms: C_4  and  C_5
REMARK    5  A    between atoms: C_5  and  C_6
REMARK    6  A    between atoms: C_6  and  C_7
REMARK    7  A    between atoms: C_7  and  C_8
REMARK    8  A    between atoms: C_7  and  C_9
REMARK    9  A    between atoms: C_7  and  O_10
REMARK   10  A    between atoms: C_12  and  C_14
REMARK   11  A    between atoms: C_25  and  C_27
REMARK   12  A    between atoms: C_29  and  O_35
REMARK   13  A    between atoms: C_32  and  O_33
REMARK   14  A    between atoms: O_33  and  C_34
REMARK   15  A    between atoms: O_35  and  C_36
REMARK                            x       y       z     vdW  Elec       q    Type
REMARK                         _______ _______ _______ _____ _____    ______ ____
ROOT
ATOM      1  C   UNL     1       2.776  -1.093   2.396  0.00  0.00    +0.100 C 
ATOM      2  C   UNL     1       2.679  -0.061   3.542  0.00  0.00    +0.121 C 
ATOM      3  N   UNL     1       3.999  -0.120   4.212  0.00  0.00    -0.296 N 
ATOM      4  C   UNL     1       4.970  -0.266   3.101  0.00  0.00    +0.115 C 
ATOM      5  C   UNL     1       4.281  -1.224   2.109  0.00  0.00    -0.004 C 
ATOM      6  C   UNL     1       4.742  -2.658   2.354  0.00  0.00    -0.010 C 
ATOM      7  C   UNL     1       6.229  -2.776   2.008  0.00  0.00    -0.082 C 
ATOM      8  N   UNL     1       6.438  -2.407   0.603  0.00  0.00    +0.379 N 
ATOM      9  C   UNL     1       6.079  -0.999   0.397  0.00  0.00    -0.082 C 
ATOM     10  C   UNL     1       4.585  -0.805   0.674  0.00  0.00    -0.010 C 
ATOM     11  C   UNL     1       4.258  -0.056   5.533  0.00  0.00    +0.250 C 
ATOM     12  O   UNL     1       3.342  -0.034   6.332  0.00  0.00    -0.270 OA
ATOM     13  H   UNL     1       7.408  -2.544   0.361  0.00  0.00    -0.086 HD
ATOM     14  H   UNL     1       5.861  -2.989   0.014  0.00  0.00    -0.086 HD
ENDROOT
BRANCH  11  15
ATOM     15  C   UNL     1       5.654  -0.011   6.009  0.00  0.00    +0.082 A 
ATOM     16  C   UNL     1       6.627   0.665   5.269  0.00  0.00    +0.062 A 
ATOM     17  C   UNL     1       7.933   0.703   5.722  0.00  0.00    +0.121 A 
ATOM     18  C   UNL     1       8.279   0.070   6.910  0.00  0.00    +0.049 A 
ATOM     19  C   UNL     1       7.324  -0.600   7.647  0.00  0.00    +0.050 A 
ATOM     20  C   UNL     1       6.008  -0.641   7.209  0.00  0.00    +0.132 A 
BRANCH  20  21
ATOM     21  O   UNL     1       5.069  -1.296   7.938  0.00  0.00    -0.494 OA
ATOM     22  C   UNL     1       5.503  -1.915   9.150  0.00  0.00    +0.277 C 
ENDBRANCH  20  21
BRANCH  17  23
ATOM     23  O   UNL     1       8.881   1.360   5.003  0.00  0.00    -0.495 OA
ATOM     24  C   UNL     1      10.210   1.360   5.528  0.00  0.00    +0.277 C 
ENDBRANCH  17  23
ENDBRANCH  11  15
BRANCH   1  26
ATOM     25  N   UNL     1       1.648  -1.458   0.225  0.00  0.00    -0.312 N 
ATOM     26  C   UNL     1       2.051  -0.590   1.174  0.00  0.00    +0.218 C 
ATOM     27  O   UNL     1       1.831   0.596   1.044  0.00  0.00    -0.275 OA
ATOM     28  H   UNL     1       1.824  -2.406   0.328  0.00  0.00    +0.149 HD
BRANCH  25  30
ATOM     29  C   UNL     1      -0.549  -0.840  -0.654  0.00  0.00    +0.028 C 
ATOM     30  C   UNL     1       0.944  -0.969  -0.963  0.00  0.00    +0.070 C 
BRANCH  30  31
ATOM     31  C   UNL     1       1.142  -1.955  -2.116  0.00  0.00    +0.022 C 
BRANCH  31  32
ATOM     32  C   UNL     1       2.621  -1.990  -2.508  0.00  0.00    +0.005 C 
BRANCH  32  33
ATOM     33  C   UNL     1       2.820  -2.977  -3.660  0.00  0.00    +0.034 C 
BRANCH  33  34
ATOM     34  C   UNL     1       4.298  -3.012  -4.053  0.00  0.00    +0.061 C 
ATOM     35  C   UNL     1       4.478  -3.901  -5.284  0.00  0.00    +0.041 C 
ATOM     36  C   UNL     1       4.774  -1.593  -4.374  0.00  0.00    +0.041 C 
BRANCH  34  37
ATOM     37  O   UNL     1       5.066  -3.538  -2.968  0.00  0.00    -0.389 OA
ATOM     38  H   UNL     1       4.818  -4.436  -2.710  0.00  0.00    +0.210 HD
ENDBRANCH  34  37
ENDBRANCH  33  34
ENDBRANCH  32  33
ENDBRANCH  31  32
ENDBRANCH  30  31
ENDBRANCH  25  30
ENDBRANCH   1  26
TORSDOF 10
