REMARK  Name = ZINC20532196
REMARK  14 active torsions:
REMARK  status: ('A' for Active; 'I' for Inactive)
REMARK    1  A    between atoms: C_1  and  C_2
REMARK    2  A    between atoms: C_2  and  N_3
REMARK    3  A    between atoms: C_9  and  N_31
REMARK    4  A    between atoms: C_10  and  C_11
REMARK    5  A    between atoms: C_11  and  C_13
REMARK    6  A    between atoms: C_11  and  N_18
REMARK    7  A    between atoms: C_13  and  C_14
REMARK    8  A    between atoms: C_14  and  C_15
REMARK    9  A    between atoms: C_15  and  C_16
REMARK   10  A    between atoms: C_15  and  C_17
REMARK   11  A    between atoms: N_21  and  C_22
REMARK   12  A    between atoms: C_27  and  O_28
REMARK   13  A    between atoms: O_28  and  C_29
REMARK   14  A    between atoms: C_29  and  C_30
REMARK                            x       y       z     vdW  Elec       q    Type
REMARK                         _______ _______ _______ _____ _____    ______ ____
ROOT
ATOM      1  C   UNL     1       2.439   3.820  -0.381  0.00  0.00    +0.108 C 
ENDROOT
BRANCH   1   9
ATOM      2  N   UNL     1      -0.659   7.742   0.933  0.00  0.00    +0.383 N 
ATOM      3  C   UNL     1      -0.239   6.635   1.804  0.00  0.00    -0.074 C 
ATOM      4  C   UNL     1       0.346   5.495   0.966  0.00  0.00    +0.018 C 
ATOM      5  C   UNL     1       1.422   6.077   0.053  0.00  0.00    -0.034 A 
ATOM      6  C   UNL     1       1.452   7.420  -0.173  0.00  0.00    -0.021 A 
ATOM      7  S   UNL     1       2.836   7.636  -1.257  0.00  0.00    -0.077 S 
ATOM      8  C   UNL     1       3.327   5.922  -1.366  0.00  0.00    +0.090 A 
ATOM      9  C   UNL     1       2.401   5.314  -0.577  0.00  0.00    +0.007 A 
ATOM     10  C   UNL     1       0.516   8.443   0.380  0.00  0.00    -0.035 C 
ATOM     11  H   UNL     1      -1.236   7.318   0.097  0.00  0.00    -0.081 HD
BRANCH   8  12
ATOM     12  N   UNL     1       4.388   5.352  -2.080  0.00  0.00    -0.317 N 
ATOM     13  C   UNL     1       5.291   4.456  -1.584  0.00  0.00    +0.092 A 
ATOM     14  C   UNL     1       6.155   4.138  -2.570  0.00  0.00    +0.019 A 
ATOM     15  C   UNL     1       5.779   4.871  -3.714  0.00  0.00    +0.019 A 
ATOM     16  C   UNL     1       4.696   5.605  -3.386  0.00  0.00    +0.092 A 
ENDBRANCH   8  12
BRANCH   2  18
ATOM     17  C   UNL     1      -0.815   9.203   2.892  0.00  0.00    -0.017 C 
ATOM     18  C   UNL     1      -1.538   8.673   1.652  0.00  0.00    -0.082 C 
ENDBRANCH   2  18
ENDBRANCH   1   9
BRANCH   1  19
ATOM     19  N   UNL     1       1.088   3.274  -0.533  0.00  0.00    -0.292 N 
ATOM     20  C   UNL     1       0.907   2.080  -1.132  0.00  0.00    +0.304 C 
ATOM     21  O   UNL     1       1.865   1.457  -1.547  0.00  0.00    -0.252 OA
ATOM     22  N   UNL     1      -0.336   1.578  -1.272  0.00  0.00    -0.266 N 
ATOM     23  H   UNL     1       0.221   3.838  -0.158  0.00  0.00    +0.151 HD
ATOM     24  H   UNL     1      -1.208   2.173  -0.964  0.00  0.00    +0.156 HD
BRANCH  22  25
ATOM     25  C   UNL     1      -0.517   0.296  -1.809  0.00  0.00    +0.077 A 
ATOM     26  C   UNL     1       0.363  -0.188  -2.766  0.00  0.00    +0.027 A 
ATOM     27  C   UNL     1       0.186  -1.454  -3.291  0.00  0.00    +0.002 A 
ATOM     28  C   UNL     1      -0.874  -2.237  -2.872  0.00  0.00    +0.004 A 
ATOM     29  C   UNL     1      -1.759  -1.759  -1.923  0.00  0.00    +0.047 A 
ATOM     30  C   UNL     1      -1.585  -0.493  -1.388  0.00  0.00    +0.142 A 
BRANCH  30  31
ATOM     31  O   UNL     1      -2.454  -0.022  -0.455  0.00  0.00    -0.490 OA
BRANCH  31  32
ATOM     32  C   UNL     1      -3.525  -0.886  -0.071  0.00  0.00    +0.226 C 
ATOM     33  C   UNL     1      -4.392  -0.189   0.979  0.00  0.00    +0.048 C 
ENDBRANCH  31  32
ENDBRANCH  30  31
ENDBRANCH  22  25
ENDBRANCH   1  19
BRANCH   1  34
ATOM     34  C   UNL     1       2.963   3.503   1.021  0.00  0.00    +0.027 C 
BRANCH  34  35
ATOM     35  C   UNL     1       3.119   1.989   1.176  0.00  0.00    +0.005 C 
BRANCH  35  36
ATOM     36  C   UNL     1       3.643   1.672   2.578  0.00  0.00    -0.017 C 
ATOM     37  C   UNL     1       2.598   2.080   3.618  0.00  0.00    +0.007 C 
ATOM     38  C   UNL     1       3.917   0.171   2.693  0.00  0.00    +0.007 C 
ENDBRANCH  35  36
ENDBRANCH  34  35
ENDBRANCH   1  34
TORSDOF 10
