REMARK  Name = ZINC35702110
REMARK  10 active torsions:
REMARK  status: ('A' for Active; 'I' for Inactive)
REMARK    1  A    between atoms: C_1  and  C_2
REMARK    2  A    between atoms: C_3  and  C_33
REMARK    3  A    between atoms: C_4  and  C_23
REMARK    4  A    between atoms: C_7  and  C_12
REMARK    5  A    between atoms: C_13  and  N_15
REMARK    6  A    between atoms: N_15  and  C_16
REMARK    7  A    between atoms: C_16  and  C_17
REMARK    8  A    between atoms: C_26  and  C_29
REMARK    9  A    between atoms: N_35  and  C_36
REMARK   10  A    between atoms: N_35  and  C_37
REMARK                            x       y       z     vdW  Elec       q    Type
REMARK                         _______ _______ _______ _____ _____    ______ ____
ROOT
ATOM      1  C   UNL     1       0.046   1.909   0.279  0.00  0.00    +0.066 C 
ATOM      2  C   UNL     1       0.054   0.403   0.330  0.00  0.00    +0.051 C 
ATOM      3  C   UNL     1      -1.121  -0.295   0.134  0.00  0.00    +0.060 C 
ATOM      4  C   UNL     1      -1.062  -1.805   0.194  0.00  0.00    +0.148 C 
ATOM      5  N   UNL     1       0.265  -2.421   0.461  0.00  0.00    -0.267 N 
ATOM      6  C   UNL     1       0.553  -3.768   0.558  0.00  0.00    +0.048 C 
ATOM      7  C   UNL     1       1.833  -4.119   0.808  0.00  0.00    +0.072 C 
ATOM      8  S   UNL     1       2.639  -2.533   0.906  0.00  0.00    -0.060 S 
ATOM      9  C   UNL     1       1.307  -1.551   0.626  0.00  0.00    +0.166 C 
ATOM     10  N   UNL     1       1.188  -0.241   0.556  0.00  0.00    -0.230 NA
ENDROOT
BRANCH   4  11
ATOM     11  C   UNL     1      -1.565  -2.342  -1.121  0.00  0.00    -0.022 A 
ATOM     12  C   UNL     1      -0.709  -2.436  -2.202  0.00  0.00    +0.006 A 
ATOM     13  C   UNL     1      -1.171  -2.928  -3.409  0.00  0.00    +0.013 A 
ATOM     14  C   UNL     1      -2.488  -3.327  -3.534  0.00  0.00    +0.055 A 
ATOM     15  C   UNL     1      -3.344  -3.234  -2.452  0.00  0.00    +0.013 A 
ATOM     16  C   UNL     1      -2.881  -2.746  -1.244  0.00  0.00    +0.006 A 
BRANCH  14  17
ATOM     17  C   UNL     1      -2.992  -3.863  -4.849  0.00  0.00    +0.417 C 
ATOM     18  F   UNL     1      -2.813  -5.250  -4.887  0.00  0.00    -0.166 F 
ATOM     19  F   UNL     1      -4.352  -3.564  -4.984  0.00  0.00    -0.166 F 
ATOM     20  F   UNL     1      -2.278  -3.272  -5.897  0.00  0.00    -0.166 F 
ENDBRANCH  14  17
ENDBRANCH   4  11
BRANCH   3  21
ATOM     21  C   UNL     1      -2.329   0.374  -0.112  0.00  0.00    +0.246 C 
ATOM     22  O   UNL     1      -2.733   0.501  -1.256  0.00  0.00    -0.270 OA
ATOM     23  N   UNL     1      -3.043   0.876   0.915  0.00  0.00    -0.304 N 
ATOM     24  C   UNL     1      -4.349   1.492   0.667  0.00  0.00    +0.132 C 
ATOM     25  C   UNL     1      -2.513   0.805   2.279  0.00  0.00    +0.132 C 
ENDBRANCH   3  21
BRANCH   6  26
ATOM     26  C   UNL     1      -0.497  -4.784   0.397  0.00  0.00    +0.091 C 
ATOM     27  C   UNL     1      -0.219  -6.082   0.624  0.00  0.00    +0.239 C 
ATOM     28  O   UNL     1       1.053  -6.466   0.890  0.00  0.00    -0.271 OA
BRANCH  27  29
ATOM     29  N   UNL     1      -1.233  -7.024   0.585  0.00  0.00    -0.309 N 
ATOM     30  H   UNL     1      -2.130  -6.762   0.323  0.00  0.00    +0.149 HD
BRANCH  29  31
ATOM     31  C   UNL     1      -0.952  -8.418   0.940  0.00  0.00    +0.136 C 
BRANCH  31  32
ATOM     32  C   UNL     1      -2.201  -9.267   0.698  0.00  0.00    +0.135 C 
ATOM     33  C   UNL     1      -1.936 -10.740   1.101  0.00  0.00    +0.035 C 
ATOM     34  C   UNL     1      -3.380 -11.228   1.400  0.00  0.00    +0.031 C 
ATOM     35  C   UNL     1      -4.038  -9.961   1.988  0.00  0.00    +0.160 C 
ATOM     36  O   UNL     1      -3.274  -8.831   1.548  0.00  0.00    -0.375 OA
ENDBRANCH  31  32
ENDBRANCH  29  31
ENDBRANCH  27  29
ENDBRANCH   6  26
TORSDOF 7
