REMARK  Name = ZINC36674269
REMARK  9 active torsions:
REMARK  status: ('A' for Active; 'I' for Inactive)
REMARK    1  A    between atoms: C_1  and  C_2
REMARK    2  A    between atoms: N_10  and  C_14
REMARK    3  A    between atoms: C_14  and  C_15
REMARK    4  A    between atoms: N_17  and  C_18
REMARK    5  A    between atoms: C_18  and  C_19
REMARK    6  A    between atoms: C_19  and  C_21
REMARK    7  A    between atoms: C_19  and  N_28
REMARK    8  A    between atoms: N_28  and  C_29
REMARK    9  A    between atoms: N_28  and  C_30
REMARK                            x       y       z     vdW  Elec       q    Type
REMARK                         _______ _______ _______ _____ _____    ______ ____
ROOT
ATOM      1  C   UNL     1       3.126  -6.421  -1.774  0.00  0.00    +0.231 C 
ATOM      2  O   UNL     1       2.926  -5.687  -2.719  0.00  0.00    -0.274 OA
ATOM      3  N   UNL     1       3.708  -7.621  -1.965  0.00  0.00    -0.315 N 
ATOM      4  H   UNL     1       3.868  -8.209  -1.210  0.00  0.00    +0.149 HD
ENDROOT
BRANCH   1   5
ATOM      5  C   UNL     1       2.724  -5.991  -0.387  0.00  0.00    +0.213 C 
BRANCH   5  15
ATOM      6  C   UNL     1      -1.080   1.033  -0.778  0.00  0.00    +0.007 C 
ATOM      7  C   UNL     1      -0.954  -0.492  -0.790  0.00  0.00    -0.014 C 
ATOM      8  C   UNL     1      -0.030  -0.918  -1.933  0.00  0.00    +0.006 C 
ATOM      9  C   UNL     1       0.086  -2.444  -1.951  0.00  0.00    +0.035 C 
ATOM     10  C   UNL     1       0.643  -2.929  -0.617  0.00  0.00    +0.113 C 
ATOM     11  C   UNL     1      -0.258  -2.493   0.534  0.00  0.00    +0.035 C 
ATOM     12  C   UNL     1      -0.373  -0.966   0.543  0.00  0.00    +0.006 C 
ATOM     13  C   UNL     1       0.799  -4.432  -0.624  0.00  0.00    +0.247 C 
ATOM     14  O   UNL     1      -0.075  -5.260  -0.762  0.00  0.00    -0.273 OA
ATOM     15  N   UNL     1       2.117  -4.658  -0.446  0.00  0.00    -0.215 N 
ATOM     16  C   UNL     1       2.802  -3.514  -0.329  0.00  0.00    +0.310 C 
ATOM     17  O   UNL     1       4.005  -3.461  -0.161  0.00  0.00    -0.252 OA
ATOM     18  N   UNL     1       2.010  -2.429  -0.417  0.00  0.00    -0.285 N 
ATOM     19  H   UNL     1       2.286  -1.501  -0.361  0.00  0.00    +0.151 HD
ENDBRANCH   5  15
ENDBRANCH   1   5
BRANCH   3  20
ATOM     20  C   UNL     1       4.100  -8.040  -3.313  0.00  0.00    +0.093 C 
BRANCH  20  21
ATOM     21  C   UNL     1       4.847  -9.373  -3.237  0.00  0.00    -0.020 C 
BRANCH  21  22
ATOM     22  C   UNL     1       3.906 -10.449  -2.759  0.00  0.00    -0.041 A 
ATOM     23  C   UNL     1       3.853 -10.773  -1.416  0.00  0.00    +0.003 A 
ATOM     24  C   UNL     1       2.991 -11.760  -0.977  0.00  0.00    +0.000 A 
ATOM     25  C   UNL     1       2.181 -12.424  -1.880  0.00  0.00    +0.001 A 
ATOM     26  C   UNL     1       2.234 -12.100  -3.223  0.00  0.00    +0.020 A 
ATOM     27  C   UNL     1       3.093 -11.108  -3.662  0.00  0.00    +0.043 A 
ATOM     28 CL   UNL     1       3.154 -10.697  -5.347  0.00  0.00    -0.083 Cl
ENDBRANCH  21  22
BRANCH  21  29
ATOM     29  N   UNL     1       5.970  -9.251  -2.299  0.00  0.00    +0.382 N 
ATOM     30  C   UNL     1       6.714 -10.518  -2.258  0.00  0.00    -0.096 C 
ATOM     31  C   UNL     1       6.864  -8.173  -2.742  0.00  0.00    -0.096 C 
ATOM     32  H   UNL     1       5.618  -9.039  -1.377  0.00  0.00    -0.082 HD
ENDBRANCH  21  29
ENDBRANCH  20  21
ENDBRANCH   3  20
TORSDOF 6
