REMARK  Name = ZINC12347785
REMARK  8 active torsions:
REMARK  status: ('A' for Active; 'I' for Inactive)
REMARK    1  A    between atoms: C_1  and  C_2
REMARK    2  A    between atoms: C_2  and  C_29
REMARK    3  A    between atoms: C_6  and  C_16
REMARK    4  A    between atoms: C_13  and  O_14
REMARK    5  A    between atoms: C_20  and  O_24
REMARK    6  A    between atoms: C_21  and  O_22
REMARK    7  A    between atoms: O_22  and  C_23
REMARK    8  A    between atoms: O_24  and  C_25
REMARK                            x       y       z     vdW  Elec       q    Type
REMARK                         _______ _______ _______ _____ _____    ______ ____
ROOT
ATOM      1  C   UNL     1       6.943  -1.528   2.790  0.00  0.00    +0.011 C 
ATOM      2  C   UNL     1       6.278  -0.293   3.402  0.00  0.00    -0.023 C 
ATOM      3  C   UNL     1       6.336   0.869   2.409  0.00  0.00    +0.058 C 
ATOM      4  C   UNL     1       5.589   0.499   1.148  0.00  0.00    +0.017 C 
ATOM      5  C   UNL     1       4.520  -0.325   1.196  0.00  0.00    +0.024 C 
ATOM      6  C   UNL     1       3.724  -0.695  -0.038  0.00  0.00    +0.096 C 
ATOM      7  C   UNL     1       4.492  -0.309  -1.270  0.00  0.00    +0.067 A 
ATOM      8  C   UNL     1       5.584   0.516  -1.226  0.00  0.00    +0.126 A 
ATOM      9  N   UNL     1       6.037   0.666  -2.485  0.00  0.00    -0.260 N 
ATOM     10  H   UNL     1       6.824   1.215  -2.768  0.00  0.00    +0.190 HD
ATOM     11  N   UNL     1       5.208  -0.089  -3.331  0.00  0.00    -0.134 NA
ATOM     12  C   UNL     1       4.284  -0.671  -2.598  0.00  0.00    +0.237 A 
ATOM     13  N   UNL     1       6.046   1.043  -0.026  0.00  0.00    -0.303 N 
ATOM     14  C   UNL     1       4.093  -0.884   2.414  0.00  0.00    +0.162 C 
ATOM     15  O   UNL     1       3.125  -1.618   2.423  0.00  0.00    -0.292 OA
ATOM     16  C   UNL     1       4.807  -0.595   3.704  0.00  0.00    +0.086 C 
ATOM     17  C   UNL     1       7.001   0.096   4.693  0.00  0.00    +0.011 C 
ATOM     18  H   UNL     1       6.678   1.779  -0.018  0.00  0.00    +0.153 HD
ENDROOT
BRANCH   6  19
ATOM     19  C   UNL     1       2.405   0.035  -0.021  0.00  0.00    +0.010 A 
ATOM     20  C   UNL     1       2.379   1.417  -0.013  0.00  0.00    +0.008 A 
ATOM     21  C   UNL     1       1.171   2.089   0.002  0.00  0.00    +0.004 A 
ATOM     22  C   UNL     1      -0.017   1.381   0.010  0.00  0.00    +0.049 A 
ATOM     23  C   UNL     1       0.002  -0.004   0.002  0.00  0.00    +0.162 A 
ATOM     24  C   UNL     1       1.218  -0.680  -0.013  0.00  0.00    +0.166 A 
BRANCH  24  25
ATOM     25  O   UNL     1       1.242  -2.040  -0.021  0.00  0.00    -0.491 OA
ATOM     26  C   UNL     1       1.242  -2.682  -1.298  0.00  0.00    +0.277 C 
ENDBRANCH  24  25
BRANCH  23  27
ATOM     27  O   UNL     1      -1.165  -0.702   0.010  0.00  0.00    -0.491 OA
ATOM     28  C   UNL     1      -2.375   0.059   0.026  0.00  0.00    +0.277 C 
ENDBRANCH  23  27
ENDBRANCH   6  19
BRANCH  12  29
ATOM     29  O   UNL     1       3.297  -1.485  -3.058  0.00  0.00    -0.491 OA
ATOM     30  H   UNL     1       3.377  -1.579  -4.050  0.00  0.00    +0.294 HD
ENDBRANCH  12  29
TORSDOF 4
