REMARK  Name = ZINC22781485
REMARK  4 active torsions:
REMARK  status: ('A' for Active; 'I' for Inactive)
REMARK    1  A    between atoms: C_1  and  N_2
REMARK    2  A    between atoms: C_5  and  O_24
REMARK    3  A    between atoms: C_12  and  C_14
REMARK    4  A    between atoms: C_16  and  N_21
REMARK                            x       y       z     vdW  Elec       q    Type
REMARK                         _______ _______ _______ _____ _____    ______ ____
ROOT
ATOM      1  C   UNL     1      -6.413   1.221  -1.211  0.00  0.00    -0.095 C 
ATOM      2  N   UNL     1      -4.985   1.566  -1.189  0.00  0.00    +0.383 N 
ATOM      3  C   UNL     1      -4.345   1.241  -2.470  0.00  0.00    -0.076 C 
ATOM      4  C   UNL     1      -2.897   1.738  -2.464  0.00  0.00    +0.016 C 
ATOM      5  C   UNL     1      -2.145   1.075  -1.309  0.00  0.00    +0.066 C 
ATOM      6  C   UNL     1      -0.709   1.599  -1.251  0.00  0.00    +0.035 C 
ATOM      7  C   UNL     1       0.029   0.922  -0.094  0.00  0.00    +0.003 C 
ATOM      8  C   UNL     1      -0.686   1.231   1.222  0.00  0.00    +0.000 C 
ATOM      9  C   UNL     1      -2.126   0.718   1.161  0.00  0.00    +0.005 C 
ATOM     10  C   UNL     1      -2.857   1.404   0.006  0.00  0.00    +0.011 C 
ATOM     11  C   UNL     1      -4.301   0.909  -0.067  0.00  0.00    -0.028 C 
ATOM     12  H   UNL     1      -4.899   2.653  -1.041  0.00  0.00    -0.081 HD
ENDROOT
BRANCH  11  13
ATOM     13  C   UNL     1      -4.312  -0.583  -0.276  0.00  0.00    -0.012 A 
ATOM     14  C   UNL     1      -4.854  -1.116  -1.430  0.00  0.00    +0.038 A 
ATOM     15  C   UNL     1      -4.859  -2.484  -1.625  0.00  0.00    +0.127 A 
ATOM     16  C   UNL     1      -4.331  -3.324  -0.661  0.00  0.00    +0.036 A 
ATOM     17  C   UNL     1      -3.793  -2.797   0.496  0.00  0.00    +0.053 A 
ATOM     18  C   UNL     1      -3.782  -1.423   0.692  0.00  0.00    +0.181 A 
ATOM     19  O   UNL     1      -3.252  -0.902   1.830  0.00  0.00    -0.288 OA
BRANCH  15  20
ATOM     20  N   UNL     1      -5.436  -3.052  -2.864  0.00  0.00    +0.056 N 
ATOM     21  O   UNL     1      -5.445  -4.258  -3.035  0.00  0.00    -0.126 OA
ATOM     22  O   UNL     1      -5.901  -2.313  -3.713  0.00  0.00    -0.126 OA
ENDBRANCH  15  20
ENDBRANCH  11  13
BRANCH   5  23
ATOM     23  O   UNL     1      -2.128  -0.341  -1.502  0.00  0.00    -0.388 OA
ATOM     24  H   UNL     1      -1.628  -0.990  -0.767  0.00  0.00    +0.210 HD
ENDBRANCH   5  23
TORSDOF 3
