REMARK  Name = ZINC35657143
REMARK  8 active torsions:
REMARK  status: ('A' for Active; 'I' for Inactive)
REMARK    1  A    between atoms: C_1  and  C_2
REMARK    2  A    between atoms: C_2  and  O_3
REMARK    3  A    between atoms: O_3  and  C_4
REMARK    4  A    between atoms: C_7  and  O_10
REMARK    5  A    between atoms: O_10  and  C_11
REMARK    6  A    between atoms: C_11  and  C_12
REMARK    7  A    between atoms: C_15  and  C_17
REMARK    8  A    between atoms: N_22  and  C_25
REMARK                            x       y       z     vdW  Elec       q    Type
REMARK                         _______ _______ _______ _____ _____    ______ ____
ROOT
ATOM      1  C   UNL     1      -3.263 -11.175  -1.644  0.00  0.00    +0.282 C 
ATOM      2  O   UNL     1      -3.121 -12.297  -1.195  0.00  0.00    -0.267 OA
ATOM      3  N   UNL     1      -3.368 -10.989  -2.974  0.00  0.00    -0.299 N 
ATOM      4  C   UNL     1      -3.383  -9.636  -3.550  0.00  0.00    +0.089 C 
ATOM      5  C   UNL     1      -2.350  -9.577  -4.681  0.00  0.00    -0.059 C 
ATOM      6  N   UNL     1      -2.622 -10.650  -5.646  0.00  0.00    +0.385 N 
ATOM      7  C   UNL     1      -2.434 -11.958  -5.007  0.00  0.00    -0.059 C 
ATOM      8  C   UNL     1      -3.465 -12.134  -3.893  0.00  0.00    +0.089 C 
ATOM      9  H   UNL     1      -3.572 -10.571  -5.976  0.00  0.00    -0.081 HD
ENDROOT
BRANCH   6  10
ATOM     10  C   UNL     1      -1.702 -10.526  -6.784  0.00  0.00    -0.065 C 
ATOM     11  C   UNL     1      -1.904  -9.168  -7.459  0.00  0.00    -0.009 C 
ATOM     12  C   UNL     1      -0.945  -9.039  -8.644  0.00  0.00    -0.012 C 
ATOM     13  C   UNL     1      -1.227 -10.156  -9.652  0.00  0.00    +0.007 C 
ATOM     14  C   UNL     1      -1.024 -11.514  -8.977  0.00  0.00    -0.012 C 
ATOM     15  C   UNL     1      -1.983 -11.643  -7.792  0.00  0.00    -0.009 C 
ATOM     16  C   UNL     1       0.419 -11.627  -8.480  0.00  0.00    +0.007 C 
ATOM     17  C   UNL     1       0.700 -10.510  -7.473  0.00  0.00    -0.012 C 
ATOM     18  C   UNL     1       0.498  -9.152  -8.148  0.00  0.00    +0.007 C 
ATOM     19  C   UNL     1      -0.259 -10.639  -6.288  0.00  0.00    -0.009 C 
ENDBRANCH   6  10
BRANCH   1  23
ATOM     20  C   UNL     1      -3.565  -7.974   0.005  0.00  0.00    +0.143 A 
ATOM     21  C   UNL     1      -3.245  -8.737   1.073  0.00  0.00    +0.049 A 
ATOM     22  C   UNL     1      -3.084 -10.052   0.609  0.00  0.00    +0.055 A 
ATOM     23  C   UNL     1      -3.318 -10.024  -0.736  0.00  0.00    +0.190 A 
ATOM     24  O   UNL     1      -3.614  -8.755  -1.083  0.00  0.00    -0.452 OA
BRANCH  20  25
ATOM     25  C   UNL     1      -3.831  -6.491   0.033  0.00  0.00    +0.303 C 
BRANCH  25  26
ATOM     26  O   UNL     1      -2.609  -5.784  -0.187  0.00  0.00    -0.484 OA
BRANCH  26  30
ATOM     27  C   UNL     1      -2.808  -1.660  -0.204  0.00  0.00    +0.121 A 
ATOM     28  C   UNL     1      -1.592  -2.297  -0.405  0.00  0.00    +0.049 A 
ATOM     29  C   UNL     1      -1.526  -3.677  -0.399  0.00  0.00    +0.049 A 
ATOM     30  C   UNL     1      -2.675  -4.425  -0.192  0.00  0.00    +0.121 A 
ATOM     31  C   UNL     1      -3.890  -3.789   0.010  0.00  0.00    +0.049 A 
ATOM     32  C   UNL     1      -3.956  -2.409   0.009  0.00  0.00    +0.049 A 
BRANCH  27  33
ATOM     33  O   UNL     1      -2.873  -0.302  -0.210  0.00  0.00    -0.492 OA
BRANCH  33  35
ATOM     34  C   UNL     1      -1.922   1.911  -0.407  0.00  0.00    +0.048 C 
ATOM     35  C   UNL     1      -1.652   0.405  -0.435  0.00  0.00    +0.225 C 
ENDBRANCH  33  35
ENDBRANCH  27  33
ENDBRANCH  26  30
ENDBRANCH  25  26
ENDBRANCH  20  25
ENDBRANCH   1  23
TORSDOF 7
