REMARK  Name = ZINC62947316
REMARK  3 active torsions:
REMARK  status: ('A' for Active; 'I' for Inactive)
REMARK    1  A    between atoms: C_6  and  C_7
REMARK    2  A    between atoms: C_9  and  C_12
REMARK    3  A    between atoms: C_14  and  N_18
REMARK                            x       y       z     vdW  Elec       q    Type
REMARK                         _______ _______ _______ _____ _____    ______ ____
ROOT
ATOM      1  C   UNL     1      -1.272  -0.765   0.011  0.00  0.00    +0.202 A 
ATOM      2  N   UNL     1      -1.382  -2.103   0.010  0.00  0.00    -0.187 NA
ATOM      3  C   UNL     1      -2.649  -2.447   0.020  0.00  0.00    +0.260 A 
ATOM      4  O   UNL     1      -3.390  -1.326   0.027  0.00  0.00    -0.332 OA
ATOM      5  N   UNL     1      -2.474  -0.241   0.026  0.00  0.00    -0.056 NA
ENDROOT
BRANCH   1  11
ATOM      6  C   UNL     1      -0.017   1.389   0.010  0.00  0.00    +0.014 A 
ATOM      7  C   UNL     1       1.169   2.094   0.002  0.00  0.00    +0.042 A 
ATOM      8  C   UNL     1       2.379   1.420  -0.013  0.00  0.00    +0.158 A 
ATOM      9  C   UNL     1       2.403   0.032  -0.022  0.00  0.00    +0.159 A 
ATOM     10  C   UNL     1       1.220  -0.681  -0.014  0.00  0.00    +0.053 A 
ATOM     11  C   UNL     1       0.002  -0.004   0.002  0.00  0.00    +0.025 A 
ATOM     12  F   UNL     1       3.585  -0.622  -0.038  0.00  0.00    -0.202 F 
ATOM     13  F   UNL     1       3.538   2.114  -0.021  0.00  0.00    -0.202 F 
ENDBRANCH   1  11
BRANCH   3  14
ATOM     14  C   UNL     1      -3.171  -3.831   0.021  0.00  0.00    +0.059 A 
ATOM     15  C   UNL     1      -4.549  -4.070   0.027  0.00  0.00    +0.039 A 
ATOM     16  C   UNL     1      -4.987  -5.390   0.028  0.00  0.00    +0.044 A 
ATOM     17  C   UNL     1      -4.048  -6.415   0.025  0.00  0.00    +0.133 A 
ATOM     18  N   UNL     1      -2.756  -6.152   0.020  0.00  0.00    -0.261 NA
ATOM     19  C   UNL     1      -2.296  -4.918   0.012  0.00  0.00    +0.124 A 
BRANCH  16  20
ATOM     20  N   UNL     1      -6.354  -5.681   0.034  0.00  0.00    -0.357 N 
ATOM     21  H   UNL     1      -7.003  -4.961   0.036  0.00  0.00    +0.142 HD
ATOM     22  H   UNL     1      -6.652  -6.604   0.035  0.00  0.00    +0.142 HD
ENDBRANCH  16  20
ENDBRANCH   3  14
TORSDOF 3
