REMARK  Name = ZINC08671095
REMARK  7 active torsions:
REMARK  status: ('A' for Active; 'I' for Inactive)
REMARK    1  A    between atoms: C_1  and  C_2
REMARK    2  A    between atoms: C_7  and  C_14
REMARK    3  A    between atoms: C_11  and  C_12
REMARK    4  A    between atoms: C_14  and  C_16
REMARK    5  A    between atoms: C_14  and  N_28
REMARK    6  A    between atoms: N_20  and  C_21
REMARK    7  A    between atoms: C_21  and  C_22
REMARK                            x       y       z     vdW  Elec       q    Type
REMARK                         _______ _______ _______ _____ _____    ______ ____
ROOT
ATOM      1  C   UNL     1       0.357  -6.569   1.704  0.00  0.00    +0.179 C 
ENDROOT
BRANCH   1   8
ATOM      2  C   UNL     1       0.872   1.380   2.107  0.00  0.00    +0.044 C 
ATOM      3  C   UNL     1       1.007  -0.120   2.057  0.00  0.00    -0.046 A 
ATOM      4  C   UNL     1       2.263  -0.701   2.170  0.00  0.00    +0.004 A 
ATOM      5  C   UNL     1       2.407  -2.058   2.126  0.00  0.00    +0.010 A 
ATOM      6  C   UNL     1       1.280  -2.871   1.967  0.00  0.00    -0.001 A 
ATOM      7  C   UNL     1       1.398  -4.329   1.916  0.00  0.00    +0.021 A 
ATOM      8  C   UNL     1       0.271  -5.066   1.760  0.00  0.00    +0.045 A 
ATOM      9  C   UNL     1      -0.984  -4.429   1.649  0.00  0.00    +0.255 A 
ATOM     10  N   UNL     1      -1.103  -3.091   1.694  0.00  0.00    -0.322 N 
ATOM     11  C   UNL     1       0.005  -2.286   1.852  0.00  0.00    +0.052 A 
ATOM     12  C   UNL     1      -0.118  -0.901   1.905  0.00  0.00    -0.024 A 
ATOM     13  C   UNL     1      -1.476  -0.257   1.789  0.00  0.00    +0.046 C 
ATOM     14  O   UNL     1      -1.986  -5.110   1.509  0.00  0.00    -0.268 OA
ATOM     15  H   UNL     1      -1.981  -2.686   1.614  0.00  0.00    +0.169 HD
ENDBRANCH   1   8
BRANCH   1  16
ATOM     16  N   UNL     1      -0.532  -7.148   2.715  0.00  0.00    -0.315 N 
ATOM     17  C   UNL     1      -1.582  -8.133   2.443  0.00  0.00    +0.111 C 
ATOM     18  C   UNL     1      -2.226  -8.421   3.809  0.00  0.00    +0.056 C 
ATOM     19  C   UNL     1      -1.466  -7.547   4.780  0.00  0.00    -0.025 A 
ATOM     20  C   UNL     1      -0.499  -6.845   4.077  0.00  0.00    +0.034 A 
ATOM     21  C   UNL     1       0.340  -5.968   4.768  0.00  0.00    +0.023 A 
ATOM     22  C   UNL     1       0.207  -5.810   6.131  0.00  0.00    +0.002 A 
ATOM     23  C   UNL     1      -0.757  -6.519   6.824  0.00  0.00    +0.000 A 
ATOM     24  C   UNL     1      -1.597  -7.381   6.145  0.00  0.00    +0.005 A 
ENDBRANCH   1  16
BRANCH   1  25
ATOM     25  C   UNL     1       1.775  -7.001   1.977  0.00  0.00    +0.177 A 
ATOM     26  N   UNL     1       2.368  -7.050   3.145  0.00  0.00    -0.111 NA
ATOM     27  N   UNL     1       3.572  -7.469   2.963  0.00  0.00    -0.023 NA
ATOM     28  N   UNL     1       3.764  -7.688   1.710  0.00  0.00    -0.044 NA
ATOM     29  N   UNL     1       2.678  -7.416   1.069  0.00  0.00    -0.223 N 
BRANCH  29  30
ATOM     30  C   UNL     1       2.467  -7.534  -0.376  0.00  0.00    +0.182 C 
BRANCH  30  31
ATOM     31  C   UNL     1       2.931  -6.272  -1.056  0.00  0.00    -0.026 A 
ATOM     32  C   UNL     1       2.030  -5.259  -1.323  0.00  0.00    +0.005 A 
ATOM     33  C   UNL     1       2.455  -4.101  -1.946  0.00  0.00    +0.000 A 
ATOM     34  C   UNL     1       3.783  -3.956  -2.303  0.00  0.00    +0.000 A 
ATOM     35  C   UNL     1       4.685  -4.969  -2.036  0.00  0.00    +0.000 A 
ATOM     36  C   UNL     1       4.260  -6.125  -1.409  0.00  0.00    +0.005 A 
ENDBRANCH  30  31
ENDBRANCH  29  30
ENDBRANCH   1  25
TORSDOF 5
