REMARK  Name = ZINC34848007
REMARK  8 active torsions:
REMARK  status: ('A' for Active; 'I' for Inactive)
REMARK    1  A    between atoms: C_1  and  C_2
REMARK    2  A    between atoms: C_5  and  N_9
REMARK    3  A    between atoms: C_6  and  C_8
REMARK    4  A    between atoms: C_10  and  C_12
REMARK    5  A    between atoms: C_12  and  C_13
REMARK    6  A    between atoms: N_17  and  C_31
REMARK    7  A    between atoms: N_20  and  N_21
REMARK    8  A    between atoms: C_22  and  C_24
REMARK                            x       y       z     vdW  Elec       q    Type
REMARK                         _______ _______ _______ _____ _____    ______ ____
ROOT
ATOM      1  C   UNL     1      -0.236  -6.847  -2.628  0.00  0.00    +0.191 C 
ATOM      2  C   UNL     1      -0.296  -8.361  -2.660  0.00  0.00    +0.244 C 
ATOM      3  O   UNL     1       0.549  -9.136  -2.263  0.00  0.00    -0.273 OA
ATOM      4  N   UNL     1      -1.482  -8.668  -3.220  0.00  0.00    -0.254 N 
ATOM      5  C   UNL     1      -2.174  -7.569  -3.544  0.00  0.00    +0.159 C 
ATOM      6  S   UNL     1      -3.722  -7.599  -4.274  0.00  0.00    -0.017 S 
ATOM      7  N   UNL     1      -1.515  -6.434  -3.232  0.00  0.00    -0.219 N 
ATOM      8  C   UNL     1      -1.956 -10.035  -3.448  0.00  0.00    +0.140 C 
ENDROOT
BRANCH   7   9
ATOM      9  N   UNL     1      -1.958  -5.121  -3.439  0.00  0.00    -0.228 N 
ATOM     10  C   UNL     1      -1.944  -4.593  -4.679  0.00  0.00    +0.260 C 
ATOM     11  O   UNL     1      -1.548  -5.256  -5.618  0.00  0.00    -0.269 OA
ATOM     12  H   UNL     1      -2.273  -4.592  -2.690  0.00  0.00    +0.173 HD
BRANCH  10  13
ATOM     13  C   UNL     1      -2.411  -3.208  -4.898  0.00  0.00    +0.038 A 
ATOM     14  C   UNL     1      -2.861  -2.442  -3.821  0.00  0.00    +0.014 A 
ATOM     15  C   UNL     1      -3.296  -1.150  -4.031  0.00  0.00    +0.016 A 
ATOM     16  C   UNL     1      -3.287  -0.613  -5.307  0.00  0.00    +0.018 A 
ATOM     17  C   UNL     1      -2.841  -1.368  -6.380  0.00  0.00    +0.016 A 
ATOM     18  C   UNL     1      -2.398  -2.659  -6.181  0.00  0.00    +0.014 A 
ATOM     19 BR   UNL     1      -3.885   1.159  -5.587  0.00  0.00    -0.050 Br
ENDBRANCH  10  13
ENDBRANCH   7   9
BRANCH   1  20
ATOM     20  C   UNL     1      -0.134  -6.343  -1.187  0.00  0.00    +0.129 C 
BRANCH  20  22
ATOM     21  N   UNL     1       0.059  -4.170  -0.021  0.00  0.00    -0.285 N 
ATOM     22  C   UNL     1      -0.040  -4.839  -1.187  0.00  0.00    +0.220 C 
ATOM     23  O   UNL     1      -0.054  -4.230  -2.236  0.00  0.00    -0.275 OA
ATOM     24  H   UNL     1       0.135  -4.658   0.814  0.00  0.00    +0.155 HD
BRANCH  21  29
ATOM     25  C   UNL     1       0.025   1.503   0.005  0.00  0.00    +0.044 C 
ATOM     26  C   UNL     1       0.034  -0.004  -0.002  0.00  0.00    -0.050 A 
ATOM     27  C   UNL     1       0.632  -0.685  -1.046  0.00  0.00    +0.005 A 
ATOM     28  C   UNL     1       0.641  -2.066  -1.055  0.00  0.00    +0.024 A 
ATOM     29  C   UNL     1       0.051  -2.771  -0.014  0.00  0.00    +0.036 A 
ATOM     30  C   UNL     1      -0.548  -2.083   1.033  0.00  0.00    -0.029 A 
ATOM     31  C   UNL     1      -0.550  -0.702   1.039  0.00  0.00    +0.008 A 
ATOM     32  C   UNL     1      -1.190  -2.843   2.165  0.00  0.00    +0.045 C 
ENDBRANCH  21  29
ENDBRANCH  20  22
ENDBRANCH   1  20
TORSDOF 5
