REMARK  Name = ZINC54501755
REMARK  9 active torsions:
REMARK  status: ('A' for Active; 'I' for Inactive)
REMARK    1  A    between atoms: C_1  and  C_2
REMARK    2  A    between atoms: C_2  and  O_3
REMARK    3  A    between atoms: O_3  and  C_4
REMARK    4  A    between atoms: C_4  and  C_6
REMARK    5  A    between atoms: C_7  and  C_25
REMARK    6  A    between atoms: C_8  and  C_23
REMARK    7  A    between atoms: C_9  and  N_11
REMARK    8  A    between atoms: N_11  and  C_12
REMARK    9  A    between atoms: C_12  and  C_22
REMARK                            x       y       z     vdW  Elec       q    Type
REMARK                         _______ _______ _______ _____ _____    ______ ____
ROOT
ATOM      1  N   UNL     1      -6.834  -2.928   0.051  0.00  0.00    -0.311 N 
ATOM      2  H   UNL     1      -7.325  -3.763   0.001  0.00  0.00    +0.152 HD
ENDROOT
BRANCH   1   3
ATOM      3  C   UNL     1      -7.501  -1.757   0.156  0.00  0.00    +0.023 C 
ATOM      4  C   UNL     1      -8.364  -1.546   1.213  0.00  0.00    +0.116 C 
ATOM      5  C   UNL     1      -8.482  -2.517   2.316  0.00  0.00    +0.256 C 
ATOM      6  O   UNL     1      -7.818  -3.536   2.325  0.00  0.00    -0.270 OA
ATOM      7  N   UNL     1      -9.347  -2.245   3.315  0.00  0.00    -0.263 N 
ATOM      8  C   UNL     1     -10.084  -1.126   3.318  0.00  0.00    +0.143 C 
ATOM      9  S   UNL     1     -11.155  -0.864   4.629  0.00  0.00    -0.018 S 
ATOM     10  N   UNL     1     -10.029  -0.200   2.350  0.00  0.00    -0.263 N 
ATOM     11  C   UNL     1      -9.204  -0.336   1.291  0.00  0.00    +0.256 C 
ATOM     12  O   UNL     1      -9.159   0.513   0.421  0.00  0.00    -0.270 OA
ATOM     13  C   UNL     1      -7.302  -0.681  -0.881  0.00  0.00    +0.061 C 
ATOM     14  H   UNL     1      -9.437  -2.874   4.048  0.00  0.00    +0.157 HD
ATOM     15  H   UNL     1     -10.591   0.587   2.415  0.00  0.00    +0.157 HD
ENDBRANCH   1   3
BRANCH   1  19
ATOM     16  C   UNL     1      -2.852  -2.476  -0.056  0.00  0.00    +0.102 A 
ATOM     17  C   UNL     1      -3.236  -3.803  -0.038  0.00  0.00    -0.010 A 
ATOM     18  C   UNL     1      -4.601  -4.041  -0.001  0.00  0.00    +0.084 A 
ATOM     19  C   UNL     1      -5.454  -2.936   0.015  0.00  0.00    +0.088 A 
ATOM     20  S   UNL     1      -4.413  -1.618  -0.013  0.00  0.00    -0.065 S 
ATOM     21  C   UNL     1      -2.231  -4.925  -0.058  0.00  0.00    +0.046 C 
BRANCH  16  22
ATOM     22  C   UNL     1      -1.502  -1.916  -0.094  0.00  0.00    +0.346 C 
ATOM     23  O   UNL     1      -0.537  -2.656  -0.120  0.00  0.00    -0.244 OA
BRANCH  22  24
ATOM     24  O   UNL     1      -1.327  -0.578  -0.101  0.00  0.00    -0.461 OA
BRANCH  24  26
ATOM     25  C   UNL     1       0.018   1.429  -0.141  0.00  0.00    +0.048 C 
ATOM     26  C   UNL     1       0.019  -0.101  -0.139  0.00  0.00    +0.229 C 
ENDBRANCH  24  26
ENDBRANCH  22  24
ENDBRANCH  16  22
BRANCH  18  27
ATOM     27  C   UNL     1      -5.120  -5.375   0.020  0.00  0.00    +0.102 C 
ATOM     28  N   UNL     1      -5.531  -6.434   0.037  0.00  0.00    -0.191 NA
ENDBRANCH  18  27
ENDBRANCH   1  19
TORSDOF 6
