REMARK  Name = ZINC59401588
REMARK  12 active torsions:
REMARK  status: ('A' for Active; 'I' for Inactive)
REMARK    1  A    between atoms: C_1  and  C_2
REMARK    2  A    between atoms: C_5  and  N_9
REMARK    3  A    between atoms: C_7  and  C_8
REMARK    4  A    between atoms: N_9  and  C_10
REMARK    5  A    between atoms: N_9  and  S_31
REMARK    6  A    between atoms: C_10  and  C_11
REMARK    7  A    between atoms: N_13  and  N_14
REMARK    8  A    between atoms: C_15  and  C_16
REMARK    9  A    between atoms: C_18  and  C_30
REMARK   10  A    between atoms: N_19  and  C_22
REMARK   11  A    between atoms: C_20  and  C_21
REMARK   12  A    between atoms: S_31  and  C_34
REMARK                            x       y       z     vdW  Elec       q    Type
REMARK                         _______ _______ _______ _____ _____    ______ ____
ROOT
ATOM      1  C   UNL     1      -0.456  -5.063   2.175  0.00  0.00    +0.251 C 
ATOM      2  O   UNL     1      -1.567  -4.613   1.989  0.00  0.00    -0.272 OA
ATOM      3  N   UNL     1      -0.174  -5.709   3.324  0.00  0.00    -0.206 N 
ATOM      4  H   UNL     1       0.714  -6.069   3.473  0.00  0.00    +0.177 HD
ENDROOT
BRANCH   3   5
ATOM      5  N   UNL     1      -1.165  -5.862   4.303  0.00  0.00    -0.188 NA
ATOM      6  C   UNL     1      -0.894  -6.484   5.409  0.00  0.00    +0.140 C 
BRANCH   6   7
ATOM      7  C   UNL     1      -1.936  -6.645   6.439  0.00  0.00    +0.016 A 
ATOM      8  C   UNL     1      -1.795  -7.311   7.737  0.00  0.00    +0.032 A 
ATOM      9  C   UNL     1      -2.990  -7.221   8.348  0.00  0.00    +0.022 A 
ATOM     10  N   UNL     1      -3.856  -6.553   7.529  0.00  0.00    -0.317 N 
ATOM     11  C   UNL     1      -3.225  -6.197   6.377  0.00  0.00    +0.030 A 
ATOM     12  C   UNL     1      -3.844  -5.442   5.229  0.00  0.00    +0.064 C 
ATOM     13  C   UNL     1      -3.321  -7.768   9.712  0.00  0.00    +0.064 C 
BRANCH  10  14
ATOM     14  C   UNL     1      -5.194  -6.270   7.833  0.00  0.00    +0.048 A 
ATOM     15  C   UNL     1      -6.214  -6.847   7.088  0.00  0.00    +0.027 A 
ATOM     16  C   UNL     1      -7.532  -6.568   7.389  0.00  0.00    +0.023 A 
ATOM     17  C   UNL     1      -7.839  -5.713   8.433  0.00  0.00    +0.059 A 
ATOM     18  C   UNL     1      -6.824  -5.136   9.179  0.00  0.00    +0.061 A 
ATOM     19  C   UNL     1      -5.503  -5.417   8.884  0.00  0.00    +0.047 A 
ATOM     20 CL   UNL     1      -7.212  -4.065  10.488  0.00  0.00    -0.082 Cl
ATOM     21 CL   UNL     1      -9.497  -5.364   8.809  0.00  0.00    -0.082 Cl
ENDBRANCH  10  14
ENDBRANCH   6   7
ENDBRANCH   3   5
BRANCH   1  22
ATOM     22  C   UNL     1       0.610  -4.899   1.122  0.00  0.00    +0.228 C 
BRANCH  22  23
ATOM     23  N   UNL     1       0.058  -4.167  -0.021  0.00  0.00    -0.199 N 
BRANCH  23  28
ATOM     24  C   UNL     1      -0.018   1.503   0.010  0.00  0.00    +0.044 C 
ATOM     25  C   UNL     1       0.002  -0.004   0.002  0.00  0.00    -0.047 A 
ATOM     26  C   UNL     1       0.006  -0.687  -1.200  0.00  0.00    +0.005 A 
ATOM     27  C   UNL     1       0.024  -2.068  -1.212  0.00  0.00    +0.025 A 
ATOM     28  C   UNL     1       0.040  -2.771  -0.013  0.00  0.00    +0.052 A 
ATOM     29  C   UNL     1       0.036  -2.081   1.192  0.00  0.00    +0.028 A 
ATOM     30  C   UNL     1       0.023  -0.700   1.196  0.00  0.00    -0.046 A 
ATOM     31  C   UNL     1       0.025   0.049   2.504  0.00  0.00    +0.044 C 
ENDBRANCH  23  28
BRANCH  23  32
ATOM     32  S   UNL     1      -0.543  -4.996  -1.322  0.00  0.00    +0.043 S 
ATOM     33  O   UNL     1      -1.029  -6.218  -0.781  0.00  0.00    -0.155 OA
ATOM     34  O   UNL     1      -1.428  -4.083  -1.956  0.00  0.00    -0.155 OA
ATOM     35  C   UNL     1       0.896  -5.310  -2.381  0.00  0.00    +0.218 C 
ENDBRANCH  23  32
ENDBRANCH  22  23
ENDBRANCH   1  22
TORSDOF 7
