REMARK  Name = ZINC24351260
REMARK  11 active torsions:
REMARK  status: ('A' for Active; 'I' for Inactive)
REMARK    1  A    between atoms: C_1  and  C_2
REMARK    2  A    between atoms: C_2  and  C_3
REMARK    3  A    between atoms: C_3  and  C_4
REMARK    4  A    between atoms: C_4  and  N_5
REMARK    5  A    between atoms: C_6  and  N_37
REMARK    6  A    between atoms: C_7  and  N_14
REMARK    7  A    between atoms: N_14  and  C_15
REMARK    8  A    between atoms: C_15  and  C_16
REMARK    9  A    between atoms: C_22  and  C_24
REMARK   10  A    between atoms: C_31  and  C_36
REMARK   11  A    between atoms: C_33  and  C_35
REMARK                            x       y       z     vdW  Elec       q    Type
REMARK                         _______ _______ _______ _____ _____    ______ ____
ROOT
ATOM      1  N   UNL     1      -2.134  -4.919  -2.464  0.00  0.00    -0.256 N 
ATOM      2  C   UNL     1      -1.691  -4.297  -3.576  0.00  0.00    +0.255 C 
ATOM      3  O   UNL     1      -1.242  -4.949  -4.499  0.00  0.00    -0.269 OA
ENDROOT
BRANCH   2   4
ATOM      4  C   UNL     1      -1.751  -2.826  -3.672  0.00  0.00    +0.079 A 
ATOM      5  C   UNL     1      -1.710  -2.048  -2.514  0.00  0.00    +0.017 A 
ATOM      6  C   UNL     1      -1.766  -0.674  -2.601  0.00  0.00    +0.001 A 
ATOM      7  C   UNL     1      -1.860  -0.062  -3.841  0.00  0.00    +0.007 A 
ATOM      8  C   UNL     1      -1.897  -0.820  -4.990  0.00  0.00    +0.001 A 
ATOM      9  C   UNL     1      -1.844  -2.206  -4.931  0.00  0.00    +0.137 A 
ATOM     10  O   UNL     1      -1.910  -2.756  -6.171  0.00  0.00    -0.487 OA
ATOM     11  C   UNL     1      -1.555  -1.763  -7.149  0.00  0.00    +0.178 C 
ATOM     12  C   UNL     1      -1.977  -0.442  -6.457  0.00  0.00    +0.060 C 
ATOM     13  C   UNL     1      -3.402  -0.038  -6.841  0.00  0.00    +0.016 C 
ATOM     14  C   UNL     1      -0.051  -1.791  -7.428  0.00  0.00    +0.052 C 
ENDBRANCH   2   4
BRANCH   1  17
ATOM     15  N   UNL     1      -2.796  -3.521   0.869  0.00  0.00    -0.280 N 
ATOM     16  C   UNL     1      -2.213  -4.263  -0.132  0.00  0.00    +0.127 A 
ATOM     17  C   UNL     1      -2.707  -4.167  -1.417  0.00  0.00    +0.140 A 
ATOM     18  C   UNL     1      -3.790  -3.303  -1.666  0.00  0.00    +0.277 A 
ATOM     19  O   UNL     1      -4.244  -3.196  -2.793  0.00  0.00    -0.266 OA
ATOM     20  N   UNL     1      -4.321  -2.594  -0.650  0.00  0.00    -0.273 N 
ATOM     21  H   UNL     1      -5.168  -1.917  -0.836  0.00  0.00    +0.173 HD
ATOM     22  C   UNL     1      -3.829  -2.704   0.596  0.00  0.00    +0.331 A 
ATOM     23  O   UNL     1      -4.327  -2.053   1.494  0.00  0.00    -0.246 OA
BRANCH  16  24
ATOM     24  N   UNL     1      -1.153  -5.094   0.145  0.00  0.00    -0.343 N 
ATOM     25  H   UNL     1      -0.692  -5.684  -0.660  0.00  0.00    +0.144 HD
ATOM     26  H   UNL     1      -0.767  -5.168   1.172  0.00  0.00    +0.144 HD
ENDBRANCH  16  24
BRANCH  15  27
ATOM     27  C   UNL     1      -2.284  -3.617   2.238  0.00  0.00    +0.128 C 
BRANCH  27  28
ATOM     28  C   UNL     1      -3.028  -4.726   2.984  0.00  0.00    +0.021 C 
BRANCH  28  30
ATOM     29  C   UNL     1      -3.238  -5.935   5.160  0.00  0.00    +0.004 C 
ATOM     30  C   UNL     1      -2.494  -4.826   4.414  0.00  0.00    -0.002 C 
ENDBRANCH  28  30
ENDBRANCH  27  28
ENDBRANCH  15  27
ENDBRANCH   1  17
BRANCH   1  31
ATOM     31  C   UNL     1      -2.019  -6.374  -2.344  0.00  0.00    +0.149 C 
BRANCH  31  32
ATOM     32  C   UNL     1      -3.202  -7.028  -3.012  0.00  0.00    -0.030 A 
ATOM     33  C   UNL     1      -4.385  -7.191  -2.317  0.00  0.00    +0.005 A 
ATOM     34  C   UNL     1      -5.471  -7.786  -2.931  0.00  0.00    +0.000 A 
ATOM     35  C   UNL     1      -5.370  -8.227  -4.237  0.00  0.00    +0.000 A 
ATOM     36  C   UNL     1      -4.185  -8.069  -4.931  0.00  0.00    +0.000 A 
ATOM     37  C   UNL     1      -3.101  -7.469  -4.318  0.00  0.00    +0.005 A 
ENDBRANCH  31  32
ENDBRANCH   1  31
TORSDOF 8
