REMARK  Name = ZINC14741944
REMARK  5 active torsions:
REMARK  status: ('A' for Active; 'I' for Inactive)
REMARK    1  A    between atoms: C_2  and  C_3
REMARK    2  A    between atoms: C_3  and  N_4
REMARK    3  A    between atoms: C_7  and  C_9
REMARK    4  A    between atoms: C_19  and  N_66
REMARK    5  A    between atoms: C_23  and  N_66
REMARK                            x       y       z     vdW  Elec       q    Type
REMARK                         _______ _______ _______ _____ _____    ______ ____
ROOT
ATOM      1  N   UNL     1      -3.708   1.695   1.333  0.00  0.00    -0.264 N 
ATOM      2  C   UNL     1      -3.768   0.966   2.460  0.00  0.00    +0.043 A 
ATOM      3  C   UNL     1      -4.819   1.427   3.181  0.00  0.00    +0.004 A 
ATOM      4  C   UNL     1      -5.386   2.462   2.418  0.00  0.00    +0.151 A 
ATOM      5  N   UNL     1      -4.659   2.563   1.318  0.00  0.00    -0.166 NA
ATOM      6  C   UNL     1      -5.238   0.889   4.521  0.00  0.00    +0.023 C 
ATOM      7  C   UNL     1      -4.076   0.065   5.094  0.00  0.00    -0.067 C 
ATOM      8  C   UNL     1      -3.578  -0.921   4.034  0.00  0.00    -0.009 C 
ATOM      9  C   UNL     1      -2.868  -0.156   2.910  0.00  0.00    +0.054 C 
ENDROOT
BRANCH   4  10
ATOM     10  C   UNL     1      -6.564   3.278   2.776  0.00  0.00    +0.267 C 
ATOM     11  O   UNL     1      -7.079   3.155   3.870  0.00  0.00    -0.268 OA
ATOM     12  N   UNL     1      -7.068   4.159   1.889  0.00  0.00    -0.296 N 
ATOM     13  C   UNL     1      -6.395   4.326   0.620  0.00  0.00    +0.108 C 
ATOM     14  C   UNL     1      -5.314   5.421   0.739  0.00  0.00    +0.019 C 
ATOM     15  C   UNL     1      -5.941   6.746   0.859  0.00  0.00    +0.002 C 
ATOM     16  C   UNL     1      -6.800   6.924   2.107  0.00  0.00    +0.002 C 
ATOM     17  C   UNL     1      -8.188   6.396   1.838  0.00  0.00    +0.019 C 
ATOM     18  C   UNL     1      -8.280   4.917   2.255  0.00  0.00    +0.108 C 
ENDBRANCH   4  10
BRANCH   7  19
ATOM     19  N   UNL     1      -4.541  -0.686   6.275  0.00  0.00    +0.383 N 
ATOM     20  H   UNL     1      -3.970  -1.533   6.384  0.00  0.00    -0.085 HD
ATOM     21  H   UNL     1      -5.524  -0.952   6.142  0.00  0.00    -0.085 HD
BRANCH  19  22
ATOM     22  C   UNL     1      -4.421   0.142   7.489  0.00  0.00    -0.071 C 
ATOM     23  C   UNL     1      -2.994  -0.007   8.057  0.00  0.00    -0.016 C 
ATOM     24  C   UNL     1      -2.711   1.171   8.950  0.00  0.00    -0.002 C 
ATOM     25  C   UNL     1      -3.020   0.875  10.430  0.00  0.00    -0.000 C 
ATOM     26  C   UNL     1      -4.330   0.086  10.620  0.00  0.00    -0.000 C 
ATOM     27  C   UNL     1      -5.434   0.578   9.723  0.00  0.00    -0.002 C 
ATOM     28  C   UNL     1      -5.441  -0.277   8.439  0.00  0.00    -0.016 C 
ENDBRANCH  19  22
ENDBRANCH   7  19
BRANCH   1  29
ATOM     29  C   UNL     1      -2.709   1.524   0.275  0.00  0.00    +0.170 C 
BRANCH  29  31
ATOM     30  C   UNL     1      -0.320   1.884   0.623  0.00  0.00    +0.006 C 
ATOM     31  C   UNL     1      -1.520   2.405   0.559  0.00  0.00    -0.012 C 
ENDBRANCH  29  31
ENDBRANCH   1  29
TORSDOF 5
