REMARK  Name = ZINC39534036
REMARK  9 active torsions:
REMARK  status: ('A' for Active; 'I' for Inactive)
REMARK    1  A    between atoms: C_4  and  O_32
REMARK    2  A    between atoms: C_5  and  C_7
REMARK    3  A    between atoms: C_10  and  C_13
REMARK    4  A    between atoms: C_13  and  C_15
REMARK    5  A    between atoms: C_13  and  N_24
REMARK    6  A    between atoms: C_15  and  N_16
REMARK    7  A    between atoms: N_16  and  C_17
REMARK    8  A    between atoms: C_22  and  O_23
REMARK    9  A    between atoms: C_28  and  O_31
REMARK                            x       y       z     vdW  Elec       q    Type
REMARK                         _______ _______ _______ _____ _____    ______ ____
ROOT
ATOM      1  C   UNL     1       1.319  -6.441  -0.046  0.00  0.00    +0.104 C 
ENDROOT
BRANCH   1   2
ATOM      2  N   UNL     1       1.456  -6.936   1.330  0.00  0.00    -0.295 NA
ATOM      3  C   UNL     1       0.290  -6.563   2.142  0.00  0.00    +0.066 C 
ATOM      4  C   UNL     1       0.444  -7.148   3.548  0.00  0.00    -0.063 C 
ATOM      5  N   UNL     1       1.674  -6.631   4.161  0.00  0.00    +0.398 N 
ATOM      6  C   UNL     1       2.832  -7.032   3.352  0.00  0.00    +0.073 C 
ATOM      7  C   UNL     1       2.699  -6.447   1.944  0.00  0.00    +0.096 C 
ATOM      8  H   UNL     1       1.629  -5.624   4.208  0.00  0.00    -0.082 HD
ATOM      9  H   UNL     1       1.769  -7.006   5.093  0.00  0.00    -0.082 HD
BRANCH   6  10
ATOM     10  O   UNL     1       4.030  -6.543   3.959  0.00  0.00    -0.409 OA
ATOM     11  H   UNL     1       4.180  -6.874   4.855  0.00  0.00    +0.207 HD
ENDBRANCH   6  10
ENDBRANCH   1   2
BRANCH   1  15
ATOM     12  C   UNL     1       0.880  -2.188   0.008  0.00  0.00    -0.014 A 
ATOM     13  C   UNL     1      -0.157  -3.004   0.457  0.00  0.00    +0.009 A 
ATOM     14  C   UNL     1      -0.009  -4.376   0.437  0.00  0.00    +0.006 A 
ATOM     15  C   UNL     1       1.164  -4.942  -0.028  0.00  0.00    -0.029 A 
ATOM     16  C   UNL     1       2.197  -4.136  -0.474  0.00  0.00    +0.006 A 
ATOM     17  C   UNL     1       2.058  -2.763  -0.464  0.00  0.00    +0.009 A 
BRANCH  12  22
ATOM     18  C   UNL     1       1.573   1.458   0.606  0.00  0.00    +0.001 A 
ATOM     19  C   UNL     1       0.443   2.045   0.062  0.00  0.00    +0.004 A 
ATOM     20  C   UNL     1      -0.547   1.261  -0.499  0.00  0.00    +0.046 A 
ATOM     21  C   UNL     1      -0.413  -0.118  -0.521  0.00  0.00    +0.125 A 
ATOM     22  C   UNL     1       0.728  -0.713   0.026  0.00  0.00    +0.024 A 
ATOM     23  C   UNL     1       1.720   0.086   0.590  0.00  0.00    +0.012 A 
BRANCH  21  24
ATOM     24  O   UNL     1      -1.386  -0.889  -1.073  0.00  0.00    -0.506 OA
ATOM     25  H   UNL     1      -1.264  -1.060  -2.017  0.00  0.00    +0.292 HD
ENDBRANCH  21  24
ENDBRANCH  12  22
ENDBRANCH   1  15
BRANCH   1  26
ATOM     26  C   UNL     1       0.086  -7.072  -0.696  0.00  0.00    +0.125 C 
BRANCH  26  27
ATOM     27  N   UNL     1       0.182  -8.532  -0.607  0.00  0.00    -0.339 N 
ATOM     28  H   UNL     1       0.951  -8.943  -0.182  0.00  0.00    +0.146 HD
BRANCH  27  29
ATOM     29  C   UNL     1      -0.837  -9.333  -1.136  0.00  0.00    +0.069 A 
ATOM     30  C   UNL     1      -1.934  -8.748  -1.750  0.00  0.00    +0.026 A 
ATOM     31  C   UNL     1      -2.938  -9.541  -2.272  0.00  0.00    +0.002 A 
ATOM     32  C   UNL     1      -2.852 -10.918  -2.184  0.00  0.00    +0.004 A 
ATOM     33  C   UNL     1      -1.761 -11.509  -1.574  0.00  0.00    +0.047 A 
ATOM     34  C   UNL     1      -0.748 -10.721  -1.053  0.00  0.00    +0.138 A 
BRANCH  34  35
ATOM     35  O   UNL     1       0.329 -11.301  -0.457  0.00  0.00    -0.505 OA
ATOM     36  H   UNL     1       0.220 -11.448   0.493  0.00  0.00    +0.292 HD
ENDBRANCH  34  35
ENDBRANCH  27  29
ENDBRANCH  26  27
ENDBRANCH   1  26
TORSDOF 9
