REMARK  Name = ZINC01111485
REMARK  13 active torsions:
REMARK  status: ('A' for Active; 'I' for Inactive)
REMARK    1  A    between atoms: C_1  and  C_2
REMARK    2  A    between atoms: C_2  and  N_3
REMARK    3  A    between atoms: N_3  and  C_4
REMARK    4  A    between atoms: N_3  and  C_6
REMARK    5  A    between atoms: C_4  and  C_5
REMARK    6  A    between atoms: C_9  and  C_12
REMARK    7  A    between atoms: C_15  and  C_26
REMARK    8  A    between atoms: C_21  and  N_25
REMARK    9  A    between atoms: C_22  and  C_23
REMARK   10  A    between atoms: C_28  and  O_34
REMARK   11  A    between atoms: C_31  and  O_32
REMARK   12  A    between atoms: O_32  and  C_33
REMARK   13  A    between atoms: O_34  and  C_35
REMARK                            x       y       z     vdW  Elec       q    Type
REMARK                         _______ _______ _______ _____ _____    ______ ____
ROOT
ATOM      1  C   UNL     1      -0.268  -6.137  -1.916  0.00  0.00    +0.102 C 
ATOM      2  C   UNL     1      -1.714  -6.555  -1.996  0.00  0.00    +0.054 A 
ATOM      3  C   UNL     1      -2.645  -6.634  -1.014  0.00  0.00    +0.077 A 
ATOM      4  N   UNL     1      -3.807  -7.062  -1.593  0.00  0.00    -0.273 N 
ATOM      5  N   UNL     1      -3.564  -7.246  -2.963  0.00  0.00    -0.135 NA
ATOM      6  H   UNL     1      -4.650  -7.213  -1.137  0.00  0.00    +0.189 HD
ATOM      7  C   UNL     1      -2.320  -6.945  -3.206  0.00  0.00    +0.245 A 
ATOM      8  O   UNL     1      -1.633  -6.972  -4.380  0.00  0.00    -0.421 OA
ATOM      9  C   UNL     1      -0.290  -6.878  -4.316  0.00  0.00    +0.201 C 
ATOM     10  C   UNL     1       0.400  -6.503  -3.217  0.00  0.00    +0.098 C 
ENDROOT
BRANCH   1  14
ATOM     11  C   UNL     1      -0.016  -1.917  -1.304  0.00  0.00    +0.013 A 
ATOM     12  C   UNL     1       0.622  -2.781  -0.433  0.00  0.00    +0.022 A 
ATOM     13  C   UNL     1       0.540  -4.146  -0.631  0.00  0.00    +0.006 A 
ATOM     14  C   UNL     1      -0.180  -4.648  -1.699  0.00  0.00    -0.034 A 
ATOM     15  C   UNL     1      -0.819  -3.784  -2.569  0.00  0.00    +0.006 A 
ATOM     16  C   UNL     1      -0.741  -2.419  -2.369  0.00  0.00    +0.022 A 
BRANCH  11  17
ATOM     17  N   UNL     1       0.066  -0.536  -1.103  0.00  0.00    -0.394 NA
ATOM     18  H   UNL     1      -0.397  -0.058  -1.861  0.00  0.00    +0.126 HD
BRANCH  17  20
ATOM     19  C   UNL     1      -2.080  -0.489   0.075  0.00  0.00    +0.022 C 
ATOM     20  C   UNL     1      -0.584  -0.185   0.167  0.00  0.00    +0.081 C 
ENDBRANCH  17  20
BRANCH  17  21
ATOM     21  C   UNL     1       1.478  -0.131  -1.060  0.00  0.00    +0.081 C 
ATOM     22  C   UNL     1       1.569   1.395  -0.997  0.00  0.00    +0.022 C 
ENDBRANCH  17  21
ENDBRANCH  11  17
ENDBRANCH   1  14
BRANCH   3  23
ATOM     23  C   UNL     1      -2.442  -6.317   0.416  0.00  0.00    +0.045 A 
ATOM     24  C   UNL     1      -3.105  -5.235   0.994  0.00  0.00    +0.059 A 
ATOM     25  C   UNL     1      -2.911  -4.943   2.333  0.00  0.00    +0.121 A 
ATOM     26  C   UNL     1      -2.058  -5.725   3.100  0.00  0.00    +0.049 A 
ATOM     27  C   UNL     1      -1.398  -6.798   2.533  0.00  0.00    +0.050 A 
ATOM     28  C   UNL     1      -1.588  -7.104   1.196  0.00  0.00    +0.129 A 
BRANCH  28  29
ATOM     29  O   UNL     1      -0.943  -8.164   0.641  0.00  0.00    -0.494 OA
ATOM     30  C   UNL     1      -0.170  -8.985   1.519  0.00  0.00    +0.277 C 
ENDBRANCH  28  29
BRANCH  25  31
ATOM     31  O   UNL     1      -3.557  -3.888   2.899  0.00  0.00    -0.495 OA
ATOM     32  C   UNL     1      -3.310  -3.644   4.285  0.00  0.00    +0.277 C 
ENDBRANCH  25  31
ENDBRANCH   3  23
BRANCH   9  33
ATOM     33  N   UNL     1       0.426  -7.183  -5.446  0.00  0.00    -0.328 N 
ATOM     34  H   UNL     1      -0.035  -7.456  -6.254  0.00  0.00    +0.145 HD
ATOM     35  H   UNL     1       1.395  -7.126  -5.437  0.00  0.00    +0.145 HD
ENDBRANCH   9  33
BRANCH  10  36
ATOM     36  C   UNL     1       1.829  -6.450  -3.290  0.00  0.00    +0.101 C 
ATOM     37  N   UNL     1       2.963  -6.409  -3.348  0.00  0.00    -0.191 NA
ENDBRANCH  10  36
TORSDOF 9
