REMARK  Name = ZINC19938739
REMARK  9 active torsions:
REMARK  status: ('A' for Active; 'I' for Inactive)
REMARK    1  A    between atoms: C_1  and  C_2
REMARK    2  A    between atoms: C_3  and  C_30
REMARK    3  A    between atoms: C_4  and  C_21
REMARK    4  A    between atoms: C_10  and  C_15
REMARK    5  A    between atoms: C_24  and  N_27
REMARK    6  A    between atoms: N_27  and  C_28
REMARK    7  A    between atoms: N_27  and  C_29
REMARK    8  A    between atoms: C_30  and  O_32
REMARK    9  A    between atoms: O_32  and  C_33
REMARK                            x       y       z     vdW  Elec       q    Type
REMARK                         _______ _______ _______ _____ _____    ______ ____
ROOT
ATOM      1  C   UNL     1       2.433   0.978  -0.453  0.00  0.00    +0.061 C 
ATOM      2  C   UNL     1       1.167   1.659  -0.000  0.00  0.00    +0.016 C 
ATOM      3  C   UNL     1       1.204   2.943   0.394  0.00  0.00    +0.065 C 
ATOM      4  C   UNL     1      -0.035   3.652   0.857  0.00  0.00    +0.092 C 
ATOM      5  C   UNL     1      -1.275   2.918   0.414  0.00  0.00    +0.024 C 
ATOM      6  C   UNL     1      -1.210   1.627   0.017  0.00  0.00    +0.016 C 
ATOM      7  N   UNL     1      -0.011   0.966   0.007  0.00  0.00    -0.321 N 
ATOM      8  C   UNL     1      -2.449   0.882  -0.406  0.00  0.00    +0.059 C 
ATOM      9  C   UNL     1      -3.442   1.857  -1.043  0.00  0.00    +0.032 C 
ATOM     10  C   UNL     1      -3.773   2.950  -0.021  0.00  0.00    +0.088 C 
ATOM     11  C   UNL     1      -2.497   3.613   0.419  0.00  0.00    +0.162 C 
ATOM     12  O   UNL     1      -2.522   4.772   0.784  0.00  0.00    -0.292 OA
ATOM     13  H   UNL     1      -0.002  -0.134   0.006  0.00  0.00    +0.152 HD
ENDROOT
BRANCH   9  14
ATOM     14  C   UNL     1      -4.700   1.122  -1.425  0.00  0.00    -0.044 A 
ATOM     15  C   UNL     1      -5.431   0.455  -0.459  0.00  0.00    +0.004 A 
ATOM     16  C   UNL     1      -6.588  -0.215  -0.809  0.00  0.00    +0.000 A 
ATOM     17  C   UNL     1      -7.009  -0.228  -2.125  0.00  0.00    +0.000 A 
ATOM     18  C   UNL     1      -6.276   0.435  -3.092  0.00  0.00    +0.000 A 
ATOM     19  C   UNL     1      -5.121   1.110  -2.741  0.00  0.00    +0.004 A 
ENDBRANCH   9  14
BRANCH   4  20
ATOM     20  C   UNL     1      -0.022   3.737   2.362  0.00  0.00    -0.035 A 
ATOM     21  C   UNL     1       0.005   2.580   3.119  0.00  0.00    +0.006 A 
ATOM     22  C   UNL     1       0.023   2.655   4.497  0.00  0.00    +0.023 A 
ATOM     23  C   UNL     1       0.002   3.895   5.124  0.00  0.00    +0.029 A 
ATOM     24  C   UNL     1      -0.032   5.055   4.361  0.00  0.00    +0.023 A 
ATOM     25  C   UNL     1      -0.043   4.973   2.983  0.00  0.00    +0.006 A 
BRANCH  23  26
ATOM     26  N   UNL     1       0.013   3.974   6.519  0.00  0.00    -0.336 N 
ATOM     27  C   UNL     1      -0.010   5.282   7.178  0.00  0.00    +0.129 C 
ATOM     28  C   UNL     1       0.048   2.750   7.322  0.00  0.00    +0.129 C 
ENDBRANCH  23  26
ENDBRANCH   4  20
BRANCH   3  29
ATOM     29  C   UNL     1       2.435   3.641   0.371  0.00  0.00    +0.338 C 
ATOM     30  O   UNL     1       3.446   3.078  -0.003  0.00  0.00    -0.245 OA
BRANCH  29  31
ATOM     31  O   UNL     1       2.486   4.931   0.763  0.00  0.00    -0.458 OA
BRANCH  31  32
ATOM     32  C   UNL     1       3.762   5.573   0.715  0.00  0.00    +0.177 C 
ATOM     33  C   UNL     1       4.478   5.431   2.074  0.00  0.00    +0.044 C 
ATOM     34  C   UNL     1       5.210   6.784   2.260  0.00  0.00    +0.004 C 
ATOM     35  C   UNL     1       4.196   7.804   1.683  0.00  0.00    +0.004 C 
ATOM     36  C   UNL     1       3.584   7.081   0.466  0.00  0.00    +0.044 C 
ENDBRANCH  31  32
ENDBRANCH  29  31
ENDBRANCH   3  29
TORSDOF 6
