REMARK  Name = ZINC40561731
REMARK  16 active torsions:
REMARK  status: ('A' for Active; 'I' for Inactive)
REMARK    1  A    between atoms: C_1  and  C_2
REMARK    2  A    between atoms: C_2  and  C_3
REMARK    3  A    between atoms: N_16  and  C_30
REMARK    4  A    between atoms: C_17  and  C_19
REMARK    5  A    between atoms: C_22  and  O_27
REMARK    6  A    between atoms: C_23  and  O_25
REMARK    7  A    between atoms: O_25  and  C_26
REMARK    8  A    between atoms: O_27  and  C_28
REMARK    9  A    between atoms: C_28  and  C_29
REMARK   10  A    between atoms: C_30  and  C_31
REMARK   11  A    between atoms: C_31  and  C_32
REMARK   12  A    between atoms: C_32  and  N_33
REMARK   13  A    between atoms: N_33  and  C_34
REMARK   14  A    between atoms: N_33  and  C_36
REMARK   15  A    between atoms: C_34  and  C_35
REMARK   16  A    between atoms: C_36  and  C_37
REMARK                            x       y       z     vdW  Elec       q    Type
REMARK                         _______ _______ _______ _____ _____    ______ ____
ROOT
ATOM      1  C   UNL     1      -0.916   1.977  -1.287  0.00  0.00    -0.047 A 
ATOM      2  C   UNL     1      -1.365   1.847   0.020  0.00  0.00    +0.007 A 
ATOM      3  C   UNL     1      -2.531   1.170   0.301  0.00  0.00    +0.047 A 
ATOM      4  C   UNL     1      -3.277   0.605  -0.733  0.00  0.00    +0.139 A 
ATOM      5  C   UNL     1      -2.816   0.748  -2.052  0.00  0.00    +0.065 A 
ATOM      6  C   UNL     1      -1.633   1.438  -2.318  0.00  0.00    +0.019 A 
ATOM      7  C   UNL     1      -3.611   0.164  -3.161  0.00  0.00    +0.199 A 
ATOM      8  O   UNL     1      -3.207   0.094  -4.308  0.00  0.00    -0.287 OA
ATOM      9  C   UNL     1      -4.931  -0.321  -2.744  0.00  0.00    +0.072 A 
ATOM     10  C   UNL     1      -5.265  -0.405  -1.422  0.00  0.00    +0.199 A 
ATOM     11  O   UNL     1      -4.415  -0.062  -0.434  0.00  0.00    -0.450 OA
ATOM     12  C   UNL     1      -6.645  -0.913  -1.325  0.00  0.00    +0.283 C 
ATOM     13  O   UNL     1      -7.246  -1.101  -0.286  0.00  0.00    -0.267 OA
ATOM     14  N   UNL     1      -7.143  -1.139  -2.558  0.00  0.00    -0.284 N 
ATOM     15  C   UNL     1      -6.105  -0.787  -3.541  0.00  0.00    +0.145 C 
ENDROOT
BRANCH  15  16
ATOM     16  C   UNL     1      -5.732  -1.996  -4.358  0.00  0.00    -0.019 A 
ATOM     17  C   UNL     1      -5.669  -3.241  -3.760  0.00  0.00    +0.009 A 
ATOM     18  C   UNL     1      -5.327  -4.354  -4.506  0.00  0.00    +0.050 A 
ATOM     19  C   UNL     1      -5.046  -4.223  -5.856  0.00  0.00    +0.162 A 
ATOM     20  C   UNL     1      -5.109  -2.970  -6.459  0.00  0.00    +0.162 A 
ATOM     21  C   UNL     1      -5.458  -1.860  -5.706  0.00  0.00    +0.055 A 
BRANCH  20  22
ATOM     22  O   UNL     1      -4.834  -2.836  -7.784  0.00  0.00    -0.491 OA
ATOM     23  C   UNL     1      -4.919  -1.520  -8.335  0.00  0.00    +0.277 C 
ENDBRANCH  20  22
BRANCH  19  24
ATOM     24  O   UNL     1      -4.708  -5.316  -6.591  0.00  0.00    -0.489 OA
BRANCH  24  25
ATOM     25  C   UNL     1      -4.663  -6.569  -5.907  0.00  0.00    +0.226 C 
ATOM     26  C   UNL     1      -4.268  -7.673  -6.889  0.00  0.00    +0.048 C 
ENDBRANCH  24  25
ENDBRANCH  19  24
ENDBRANCH  15  16
BRANCH   1  28
ATOM     27  C   UNL     1       0.056   4.202  -1.792  0.00  0.00    +0.009 C 
ATOM     28  C   UNL     1       0.365   2.720  -1.570  0.00  0.00    +0.032 C 
ENDBRANCH   1  28
BRANCH  14  29
ATOM     29  C   UNL     1      -8.482  -1.647  -2.865  0.00  0.00    +0.107 C 
BRANCH  29  30
ATOM     30  C   UNL     1      -9.451  -0.473  -3.017  0.00  0.00    +0.000 C 
BRANCH  30  31
ATOM     31  C   UNL     1     -10.850  -1.003  -3.338  0.00  0.00    -0.077 C 
BRANCH  31  32
ATOM     32  N   UNL     1     -11.780   0.124  -3.485  0.00  0.00    +0.379 N 
ATOM     33  H   UNL     1     -11.747   0.697  -2.655  0.00  0.00    -0.082 HD
BRANCH  32  34
ATOM     34  C   UNL     1     -11.393   0.930  -4.651  0.00  0.00    -0.082 C 
ATOM     35  C   UNL     1     -12.271   2.181  -4.720  0.00  0.00    -0.017 C 
ENDBRANCH  32  34
BRANCH  32  36
ATOM     36  C   UNL     1     -13.144  -0.387  -3.674  0.00  0.00    -0.082 C 
ATOM     37  C   UNL     1     -13.600  -1.105  -2.402  0.00  0.00    -0.017 C 
ENDBRANCH  32  36
ENDBRANCH  31  32
ENDBRANCH  30  31
ENDBRANCH  29  30
ENDBRANCH  14  29
TORSDOF 11
