REMARK  Name = ZINC08434830
REMARK  8 active torsions:
REMARK  status: ('A' for Active; 'I' for Inactive)
REMARK    1  A    between atoms: C_1  and  C_2
REMARK    2  A    between atoms: C_7  and  O_10
REMARK    3  A    between atoms: O_10  and  C_11
REMARK    4  A    between atoms: C_11  and  C_13
REMARK    5  A    between atoms: C_14  and  C_31
REMARK    6  A    between atoms: C_19  and  C_21
REMARK    7  A    between atoms: C_26  and  O_27
REMARK    8  A    between atoms: O_27  and  C_28
REMARK                            x       y       z     vdW  Elec       q    Type
REMARK                         _______ _______ _______ _____ _____    ______ ____
ROOT
ATOM      1  C   UNL     1      -1.582   2.662   1.193  0.00  0.00    +0.078 C 
ATOM      2  C   UNL     1      -2.547   2.074   1.933  0.00  0.00    +0.021 C 
ATOM      3  N   UNL     1      -3.392   1.152   1.385  0.00  0.00    -0.273 N 
ATOM      4  C   UNL     1      -3.337   0.763   0.105  0.00  0.00    +0.304 C 
ATOM      5  O   UNL     1      -4.133  -0.065  -0.293  0.00  0.00    -0.252 OA
ATOM      6  N   UNL     1      -2.429   1.261  -0.758  0.00  0.00    -0.288 N 
ATOM      7  C   UNL     1      -1.469   2.263  -0.264  0.00  0.00    +0.147 C 
ATOM      8  C   UNL     1      -2.693   2.442   3.387  0.00  0.00    +0.061 C 
ATOM      9  H   UNL     1      -4.069   0.756   1.955  0.00  0.00    +0.156 HD
ATOM     10  H   UNL     1      -2.407   0.965  -1.681  0.00  0.00    +0.151 HD
ENDROOT
BRANCH   7  11
ATOM     11  C   UNL     1      -0.079   1.729  -0.494  0.00  0.00    +0.022 A 
ATOM     12  C   UNL     1       0.674   1.280   0.574  0.00  0.00    +0.029 A 
ATOM     13  C   UNL     1       1.948   0.784   0.364  0.00  0.00    +0.043 A 
ATOM     14  C   UNL     1       2.471   0.736  -0.916  0.00  0.00    +0.043 A 
ATOM     15  C   UNL     1       1.721   1.183  -1.987  0.00  0.00    +0.084 A 
ATOM     16  C   UNL     1       0.443   1.682  -1.778  0.00  0.00    +0.144 A 
ATOM     17 CL   UNL     1       2.378   1.123  -3.593  0.00  0.00    -0.080 Cl
ATOM     18 CL   UNL     1       2.892   0.220   1.708  0.00  0.00    -0.083 Cl
BRANCH  16  19
ATOM     19  O   UNL     1      -0.297   2.123  -2.829  0.00  0.00    -0.493 OA
ATOM     20  C   UNL     1      -0.090   3.474  -3.247  0.00  0.00    +0.277 C 
ENDBRANCH  16  19
ENDBRANCH   7  11
BRANCH   1  21
ATOM     21  C   UNL     1      -0.705   3.617   1.760  0.00  0.00    +0.339 C 
ATOM     22  O   UNL     1      -0.885   4.006   2.899  0.00  0.00    -0.245 OA
BRANCH  21  23
ATOM     23  O   UNL     1       0.329   4.095   1.038  0.00  0.00    -0.458 OA
BRANCH  23  29
ATOM     24  C   UNL     1       3.217   8.026   0.437  0.00  0.00    +0.007 C 
ATOM     25  C   UNL     1       2.707   6.978   1.428  0.00  0.00    -0.011 C 
ATOM     26  C   UNL     1       3.889   6.181   1.981  0.00  0.00    +0.003 C 
ATOM     27  C   UNL     1       3.379   5.132   2.972  0.00  0.00    +0.004 C 
ATOM     28  C   UNL     1       2.413   4.184   2.258  0.00  0.00    +0.045 C 
ATOM     29  C   UNL     1       1.231   4.981   1.705  0.00  0.00    +0.177 C 
ATOM     30  C   UNL     1       1.742   6.029   0.714  0.00  0.00    +0.048 C 
ENDBRANCH  23  29
ENDBRANCH  21  23
ENDBRANCH   1  21
TORSDOF 5
