REMARK  Name = ZINC15911373
REMARK  9 active torsions:
REMARK  status: ('A' for Active; 'I' for Inactive)
REMARK    1  A    between atoms: C_3  and  N_10
REMARK    2  A    between atoms: C_5  and  N_7
REMARK    3  A    between atoms: C_11  and  C_13
REMARK    4  A    between atoms: C_13  and  C_14
REMARK    5  A    between atoms: N_18  and  C_32
REMARK    6  A    between atoms: N_20  and  C_21
REMARK    7  A    between atoms: C_24  and  O_27
REMARK    8  A    between atoms: O_27  and  C_28
REMARK    9  A    between atoms: C_32  and  C_33
REMARK                            x       y       z     vdW  Elec       q    Type
REMARK                         _______ _______ _______ _____ _____    ______ ____
ROOT
ATOM      1  C   UNL     1      -0.976   1.301  -1.210  0.00  0.00    +0.149 C 
ATOM      2  C   UNL     1      -0.369   0.733  -2.482  0.00  0.00    +0.235 C 
ATOM      3  O   UNL     1      -0.222  -0.459  -2.649  0.00  0.00    -0.274 OA
ATOM      4  N   UNL     1      -0.013   1.619  -3.397  0.00  0.00    -0.247 N 
ATOM      5  C   UNL     1      -0.179   2.976  -3.212  0.00  0.00    +0.164 C 
ATOM      6  N   UNL     1       0.131   3.949  -4.035  0.00  0.00    -0.226 NA
ATOM      7  S   UNL     1      -0.915   3.097  -1.589  0.00  0.00    -0.077 S 
ENDROOT
BRANCH   6   8
ATOM      8  C   UNL     1      -0.109   5.251  -3.679  0.00  0.00    +0.067 A 
ATOM      9  C   UNL     1      -1.331   5.606  -3.105  0.00  0.00    +0.031 A 
ATOM     10  C   UNL     1      -1.565   6.916  -2.741  0.00  0.00    +0.048 A 
ATOM     11  C   UNL     1      -0.594   7.883  -2.958  0.00  0.00    +0.127 A 
ATOM     12  C   UNL     1       0.621   7.536  -3.534  0.00  0.00    +0.048 A 
ATOM     13  C   UNL     1       0.866   6.227  -3.894  0.00  0.00    +0.031 A 
BRANCH  11  14
ATOM     14  O   UNL     1      -0.831   9.174  -2.604  0.00  0.00    -0.434 OA
BRANCH  14  15
ATOM     15  C   UNL     1      -2.102   9.462  -2.016  0.00  0.00    +0.541 C 
ATOM     16  F   UNL     1      -3.119   9.125  -2.915  0.00  0.00    -0.166 F 
ATOM     17  F   UNL     1      -2.252   8.717  -0.841  0.00  0.00    -0.166 F 
ENDBRANCH  14  15
ENDBRANCH  11  14
ENDBRANCH   6   8
BRANCH   1  18
ATOM     18  C   UNL     1      -0.118   0.963   0.011  0.00  0.00    +0.120 C 
BRANCH  18  20
ATOM     19  N   UNL     1      -0.242   1.246   2.466  0.00  0.00    -0.285 N 
ATOM     20  C   UNL     1      -0.815   1.437   1.261  0.00  0.00    +0.219 C 
ATOM     21  O   UNL     1      -1.891   1.990   1.182  0.00  0.00    -0.275 OA
ATOM     22  H   UNL     1       0.581   0.737   2.536  0.00  0.00    +0.155 HD
BRANCH  19  25
ATOM     23  C   UNL     1      -1.321   1.641   5.958  0.00  0.00    +0.004 A 
ATOM     24  C   UNL     1      -0.736   1.109   4.826  0.00  0.00    +0.023 A 
ATOM     25  C   UNL     1      -0.833   1.782   3.615  0.00  0.00    +0.036 A 
ATOM     26  C   UNL     1      -1.514   2.991   3.548  0.00  0.00    +0.056 A 
ATOM     27  C   UNL     1      -2.100   3.515   4.683  0.00  0.00    +0.128 A 
ATOM     28  C   UNL     1      -2.002   2.842   5.888  0.00  0.00    +0.033 A 
BRANCH  27  29
ATOM     29  N   UNL     1      -2.831   4.800   4.612  0.00  0.00    +0.056 N 
ATOM     30  O   UNL     1      -3.345   5.265   5.613  0.00  0.00    -0.126 OA
ATOM     31  O   UNL     1      -2.918   5.393   3.551  0.00  0.00    -0.126 OA
ENDBRANCH  27  29
ENDBRANCH  19  25
ENDBRANCH  18  20
ENDBRANCH   1  18
BRANCH   4  32
ATOM     32  C   UNL     1       0.578   1.143  -4.649  0.00  0.00    +0.147 C 
BRANCH  32  33
ATOM     33  C   UNL     1      -0.530   0.898  -5.676  0.00  0.00    +0.136 C 
ATOM     34  C   UNL     1       0.062   0.313  -6.977  0.00  0.00    +0.035 C 
ATOM     35  C   UNL     1      -0.772   0.973  -8.098  0.00  0.00    +0.031 C 
ATOM     36  C   UNL     1      -1.769   1.877  -7.341  0.00  0.00    +0.160 C 
ATOM     37  O   UNL     1      -1.135   2.148  -6.071  0.00  0.00    -0.375 OA
ENDBRANCH  32  33
ENDBRANCH   4  32
TORSDOF 9
