REMARK  Name = ZINC40548988
REMARK  9 active torsions:
REMARK  status: ('A' for Active; 'I' for Inactive)
REMARK    1  A    between atoms: C_1  and  C_2
REMARK    2  A    between atoms: C_2  and  O_3
REMARK    3  A    between atoms: O_3  and  C_4
REMARK    4  A    between atoms: C_8  and  C_10
REMARK    5  A    between atoms: C_13  and  C_29
REMARK    6  A    between atoms: N_20  and  C_21
REMARK    7  A    between atoms: C_31  and  C_37
REMARK    8  A    between atoms: C_32  and  C_36
REMARK    9  A    between atoms: C_34  and  O_35
REMARK                            x       y       z     vdW  Elec       q    Type
REMARK                         _______ _______ _______ _____ _____    ______ ____
ROOT
ATOM      1  C   UNL     1      -4.094  -4.401  -0.054  0.00  0.00    +0.142 C 
ATOM      2  C   UNL     1      -4.628  -4.745  -1.418  0.00  0.00    +0.035 A 
ATOM      3  C   UNL     1      -4.980  -4.295  -2.695  0.00  0.00    +0.102 A 
ATOM      4  N   UNL     1      -5.413  -5.339  -3.375  0.00  0.00    -0.173 NA
ATOM      5  N   UNL     1      -5.369  -6.402  -2.654  0.00  0.00    -0.272 N 
ATOM      6  H   UNL     1      -5.638  -7.286  -2.949  0.00  0.00    +0.189 HD
ATOM      7  C   UNL     1      -4.885  -6.103  -1.412  0.00  0.00    +0.126 A 
ATOM      8  C   UNL     1      -4.535  -6.639  -0.092  0.00  0.00    +0.266 C 
ATOM      9  O   UNL     1      -4.645  -7.805   0.235  0.00  0.00    -0.268 OA
ATOM     10  N   UNL     1      -4.074  -5.657   0.706  0.00  0.00    -0.280 N 
ENDROOT
BRANCH   3  11
ATOM     11  C   UNL     1      -4.885  -2.900  -3.192  0.00  0.00    +0.044 A 
ATOM     12  C   UNL     1      -5.319  -1.843  -2.396  0.00  0.00    +0.017 A 
ATOM     13  C   UNL     1      -5.229  -0.547  -2.863  0.00  0.00    -0.047 A 
ATOM     14  C   UNL     1      -4.707  -0.294  -4.120  0.00  0.00    -0.044 A 
ATOM     15  C   UNL     1      -4.274  -1.336  -4.917  0.00  0.00    +0.049 A 
ATOM     16  C   UNL     1      -4.353  -2.641  -4.458  0.00  0.00    +0.126 A 
ATOM     17  C   UNL     1      -4.612   1.124  -4.621  0.00  0.00    +0.044 C 
ATOM     18  C   UNL     1      -5.700   0.596  -2.002  0.00  0.00    +0.044 C 
BRANCH  16  19
ATOM     19  O   UNL     1      -3.921  -3.666  -5.239  0.00  0.00    -0.506 OA
ATOM     20  H   UNL     1      -4.579  -3.982  -5.872  0.00  0.00    +0.292 HD
ENDBRANCH  16  19
ENDBRANCH   3  11
BRANCH  10  21
ATOM     21  C   UNL     1      -3.628  -5.815   2.092  0.00  0.00    +0.100 C 
ATOM     22  C   UNL     1      -4.785  -6.367   2.941  0.00  0.00    +0.047 C 
ATOM     23  C   UNL     1      -4.208  -6.816   4.314  0.00  0.00    +0.168 C 
ATOM     24  S   UNL     1      -2.633  -7.606   3.774  0.00  0.00    -0.029 S 
ATOM     25  O   UNL     1      -1.586  -7.184   4.636  0.00  0.00    -0.174 OA
ATOM     26  O   UNL     1      -2.858  -8.995   3.574  0.00  0.00    -0.174 OA
ATOM     27  C   UNL     1      -2.429  -6.792   2.139  0.00  0.00    +0.188 C 
ENDBRANCH  10  21
BRANCH   1  32
ATOM     28  C   UNL     1      -1.187  -1.987  -0.038  0.00  0.00    +0.121 A 
ATOM     29  C   UNL     1      -0.134  -2.822  -0.384  0.00  0.00    +0.045 A 
ATOM     30  C   UNL     1      -0.367  -4.163  -0.621  0.00  0.00    +0.004 A 
ATOM     31  C   UNL     1      -1.648  -4.673  -0.513  0.00  0.00    +0.006 A 
ATOM     32  C   UNL     1      -2.699  -3.842  -0.170  0.00  0.00    -0.019 A 
ATOM     33  C   UNL     1      -2.470  -2.502   0.074  0.00  0.00    +0.051 A 
BRANCH  28  34
ATOM     34  O   UNL     1      -0.960  -0.667   0.196  0.00  0.00    -0.492 OA
BRANCH  34  36
ATOM     35  C   UNL     1       0.445   1.292   0.362  0.00  0.00    +0.048 C 
ATOM     36  C   UNL     1       0.386  -0.207   0.062  0.00  0.00    +0.225 C 
ENDBRANCH  34  36
ENDBRANCH  28  34
ENDBRANCH   1  32
TORSDOF 6
