REMARK  Name = ZINC08283397
REMARK  10 active torsions:
REMARK  status: ('A' for Active; 'I' for Inactive)
REMARK    1  A    between atoms: C_1  and  C_2
REMARK    2  A    between atoms: C_5  and  C_8
REMARK    3  A    between atoms: C_11  and  S_14
REMARK    4  A    between atoms: N_12  and  N_13
REMARK    5  A    between atoms: S_14  and  C_15
REMARK    6  A    between atoms: C_15  and  C_17
REMARK    7  A    between atoms: C_15  and  C_18
REMARK    8  A    between atoms: N_20  and  C_21
REMARK    9  A    between atoms: C_26  and  C_31
REMARK   10  A    between atoms: C_28  and  C_30
REMARK                            x       y       z     vdW  Elec       q    Type
REMARK                         _______ _______ _______ _____ _____    ______ ____
ROOT
ATOM      1  C   UNL     1      -6.648  -0.420  -6.810  0.00  0.00    +0.182 A 
ATOM      2  N   UNL     1      -5.960   0.674  -6.582  0.00  0.00    -0.127 NA
ATOM      3  N   UNL     1      -5.158   0.490  -5.594  0.00  0.00    -0.121 NA
ATOM      4  C   UNL     1      -5.279  -0.737  -5.138  0.00  0.00    +0.209 A 
ATOM      5  N   UNL     1      -6.233  -1.358  -5.893  0.00  0.00    -0.224 N 
ENDROOT
BRANCH   1  10
ATOM      6  C   UNL     1     -10.649  -1.158 -10.881  0.00  0.00    +0.044 C 
ATOM      7  C   UNL     1      -9.601  -0.965  -9.815  0.00  0.00    -0.050 A 
ATOM      8  C   UNL     1      -9.530  -1.847  -8.752  0.00  0.00    +0.004 A 
ATOM      9  C   UNL     1      -8.573  -1.676  -7.772  0.00  0.00    +0.012 A 
ATOM     10  C   UNL     1      -7.676  -0.610  -7.856  0.00  0.00    +0.021 A 
ATOM     11  C   UNL     1      -7.757   0.280  -8.928  0.00  0.00    +0.012 A 
ATOM     12  C   UNL     1      -8.715   0.094  -9.904  0.00  0.00    +0.004 A 
ENDBRANCH   1  10
BRANCH   5  13
ATOM     13  N   UNL     1      -6.681  -2.642  -5.763  0.00  0.00    -0.295 N 
ATOM     14  H   UNL     1      -7.520  -2.677  -5.203  0.00  0.00    +0.163 HD
ATOM     15  H   UNL     1      -6.832  -3.065  -6.667  0.00  0.00    +0.163 HD
ENDBRANCH   5  13
BRANCH   4  16
ATOM     16  S   UNL     1      -4.382  -1.446  -3.797  0.00  0.00    -0.072 S 
BRANCH  16  17
ATOM     17  C   UNL     1      -3.344  -0.038  -3.334  0.00  0.00    +0.137 C 
ATOM     18  C   UNL     1      -4.227   1.098  -2.815  0.00  0.00    +0.029 C 
BRANCH  17  19
ATOM     19  C   UNL     1      -2.380  -0.458  -2.255  0.00  0.00    +0.226 C 
ATOM     20  O   UNL     1      -2.608  -1.445  -1.588  0.00  0.00    -0.275 OA
ATOM     21  N   UNL     1      -1.263   0.262  -2.030  0.00  0.00    -0.311 N 
ATOM     22  H   UNL     1      -1.080   1.052  -2.564  0.00  0.00    +0.149 HD
BRANCH  21  23
ATOM     23  C   UNL     1      -0.326  -0.146  -0.981  0.00  0.00    +0.076 C 
ATOM     24  C   UNL     1      -0.786   0.422   0.363  0.00  0.00    +0.022 C 
ATOM     25  C   UNL     1       0.193  -0.005   1.459  0.00  0.00    +0.002 C 
ATOM     26  C   UNL     1       1.589   0.528   1.131  0.00  0.00    +0.003 C 
ATOM     27  C   UNL     1       2.049  -0.040  -0.213  0.00  0.00    -0.009 C 
ATOM     28  C   UNL     1       1.071   0.387  -1.309  0.00  0.00    +0.009 C 
ATOM     29  C   UNL     1       1.028   1.914  -1.388  0.00  0.00    +0.009 C 
ATOM     30  C   UNL     1       3.446   0.493  -0.540  0.00  0.00    +0.008 C 
ENDBRANCH  21  23
ENDBRANCH  17  19
ENDBRANCH  16  17
ENDBRANCH   4  16
TORSDOF 6
