REMARK  Name = ZINC09418352
REMARK  9 active torsions:
REMARK  status: ('A' for Active; 'I' for Inactive)
REMARK    1  A    between atoms: C_1  and  C_2
REMARK    2  A    between atoms: C_2  and  O_3
REMARK    3  A    between atoms: O_3  and  C_4
REMARK    4  A    between atoms: C_4  and  C_6
REMARK    5  A    between atoms: C_7  and  N_21
REMARK    6  A    between atoms: C_16  and  C_19
REMARK    7  A    between atoms: C_16  and  C_20
REMARK    8  A    between atoms: C_22  and  C_24
REMARK    9  A    between atoms: C_24  and  N_59
REMARK                            x       y       z     vdW  Elec       q    Type
REMARK                         _______ _______ _______ _____ _____    ______ ____
ROOT
ATOM      1  C   UNL     1       2.420  -0.141   0.081  0.00  0.00    +0.120 A 
ATOM      2  C   UNL     1       2.328   1.179  -0.301  0.00  0.00    +0.064 A 
ATOM      3  C   UNL     1       3.557   1.900  -0.593  0.00  0.00    +0.030 A 
ATOM      4  C   UNL     1       3.720   3.247  -0.996  0.00  0.00    +0.020 A 
ATOM      5  C   UNL     1       4.989   3.738  -1.221  0.00  0.00    +0.000 A 
ATOM      6  C   UNL     1       6.091   2.916  -1.052  0.00  0.00    +0.051 A 
ATOM      7  N   UNL     1       5.933   1.657  -0.678  0.00  0.00    -0.244 NA
ATOM      8  C   UNL     1       4.744   1.145  -0.453  0.00  0.00    +0.111 A 
ATOM      9  S   UNL     1       4.173  -0.459   0.050  0.00  0.00    -0.060 S 
ATOM     10  C   UNL     1       7.491   3.427  -1.284  0.00  0.00    +0.090 C 
ATOM     11  C   UNL     1       7.441   4.723  -2.095  0.00  0.00    +0.070 C 
ATOM     12  O   UNL     1       6.489   5.603  -1.485  0.00  0.00    -0.369 OA
ATOM     13  C   UNL     1       5.139   5.173  -1.655  0.00  0.00    +0.197 C 
ATOM     14  C   UNL     1       7.011   4.415  -3.530  0.00  0.00    +0.041 C 
ATOM     15  C   UNL     1       8.822   5.381  -2.097  0.00  0.00    +0.041 C 
ENDROOT
BRANCH   2  16
ATOM     16  N   UNL     1       1.092   1.808  -0.401  0.00  0.00    -0.285 N 
ATOM     17  C   UNL     1       0.797   2.847   0.406  0.00  0.00    +0.201 C 
ATOM     18  O   UNL     1       1.572   3.174   1.280  0.00  0.00    -0.278 OA
ATOM     19  H   UNL     1       0.441   1.499  -1.050  0.00  0.00    +0.155 HD
BRANCH  17  20
ATOM     20  C   UNL     1      -0.496   3.599   0.225  0.00  0.00    +0.019 C 
BRANCH  20  26
ATOM     21  C   UNL     1      -0.679   4.122   2.582  0.00  0.00    -0.078 C 
ATOM     22  C   UNL     1      -0.620   5.262   3.601  0.00  0.00    -0.019 C 
ATOM     23  C   UNL     1      -1.774   6.234   3.340  0.00  0.00    -0.004 C 
ATOM     24  C   UNL     1      -1.678   6.755   1.904  0.00  0.00    -0.019 C 
ATOM     25  C   UNL     1      -1.706   5.572   0.934  0.00  0.00    -0.078 C 
ATOM     26  N   UNL     1      -0.556   4.688   1.221  0.00  0.00    +0.385 N 
ATOM     27  H   UNL     1       0.308   5.238   1.166  0.00  0.00    -0.081 HD
ENDBRANCH  20  26
ENDBRANCH  17  20
ENDBRANCH   2  16
BRANCH   1  28
ATOM     28  C   UNL     1       1.371  -1.034   0.417  0.00  0.00    +0.348 C 
ATOM     29  O   UNL     1       0.224  -0.631   0.474  0.00  0.00    -0.244 OA
BRANCH  28  30
ATOM     30  O   UNL     1       1.644  -2.330   0.673  0.00  0.00    -0.461 OA
BRANCH  30  32
ATOM     31  C   UNL     1       1.040  -4.596   1.260  0.00  0.00    +0.048 C 
ATOM     32  C   UNL     1       0.539  -3.173   1.005  0.00  0.00    +0.229 C 
ENDBRANCH  30  32
ENDBRANCH  28  30
ENDBRANCH   1  28
TORSDOF 6
