REMARK  Name = ZINC13495870
REMARK  16 active torsions:
REMARK  status: ('A' for Active; 'I' for Inactive)
REMARK    1  A    between atoms: C_1  and  C_2
REMARK    2  A    between atoms: C_2  and  C_3
REMARK    3  A    between atoms: C_3  and  C_5
REMARK    4  A    between atoms: C_3  and  N_74
REMARK    5  A    between atoms: N_9  and  C_10
REMARK    6  A    between atoms: C_10  and  C_11
REMARK    7  A    between atoms: C_10  and  C_12
REMARK    8  A    between atoms: C_10  and  C_13
REMARK    9  A    between atoms: C_13  and  C_14
REMARK   10  A    between atoms: C_15  and  C_16
REMARK   11  A    between atoms: C_15  and  N_74
REMARK   12  A    between atoms: C_16  and  C_17
REMARK   13  A    between atoms: C_22  and  C_23
REMARK   14  A    between atoms: C_24  and  C_25
REMARK   15  A    between atoms: C_24  and  N_74
REMARK   16  A    between atoms: C_31  and  C_37
REMARK                            x       y       z     vdW  Elec       q    Type
REMARK                         _______ _______ _______ _____ _____    ______ ____
ROOT
ATOM      1  N   UNL     1       3.457   2.530  -1.645  0.00  0.00    +0.389 N 
ATOM      2  H   UNL     1       2.692   3.105  -2.016  0.00  0.00    -0.080 HD
ENDROOT
BRANCH   1   3
ATOM      3  C   UNL     1       2.883   1.416  -0.860  0.00  0.00    +0.003 C 
BRANCH   3   4
ATOM      4  C   UNL     1       1.593   0.986  -1.509  0.00  0.00    +0.139 A 
ATOM      5  N   UNL     1       1.341   0.941  -2.795  0.00  0.00    -0.115 NA
ATOM      6  N   UNL     1       0.130   0.527  -2.948  0.00  0.00    -0.023 NA
ATOM      7  N   UNL     1      -0.394   0.302  -1.794  0.00  0.00    -0.043 NA
ATOM      8  N   UNL     1       0.477   0.570  -0.882  0.00  0.00    -0.225 N 
BRANCH   8   9
ATOM      9  C   UNL     1       0.287   0.450   0.566  0.00  0.00    +0.061 C 
ATOM     10  C   UNL     1       0.311   1.842   1.200  0.00  0.00    +0.036 C 
ATOM     11  C   UNL     1       1.411  -0.401   1.159  0.00  0.00    +0.036 C 
BRANCH   9  12
ATOM     12  C   UNL     1      -1.061  -0.216   0.849  0.00  0.00    +0.026 C 
ATOM     13  C   UNL     1      -1.260  -0.342   2.361  0.00  0.00    +0.006 C 
ENDBRANCH   9  12
ENDBRANCH   8   9
ENDBRANCH   3   4
BRANCH   3  15
ATOM     14  C   UNL     1       5.202   0.699  -0.266  0.00  0.00    +0.002 C 
ATOM     15  C   UNL     1       3.854   0.235  -0.822  0.00  0.00    -0.011 C 
ENDBRANCH   3  15
ENDBRANCH   1   3
BRANCH   1  16
ATOM     16  C   UNL     1       4.312   3.370  -0.779  0.00  0.00    -0.073 C 
BRANCH  16  17
ATOM     17  C   UNL     1       3.414   4.206   0.136  0.00  0.00    +0.017 C 
BRANCH  17  18
ATOM     18  C   UNL     1       4.256   5.196   0.897  0.00  0.00    -0.046 A 
ATOM     19  C   UNL     1       4.700   4.891   2.171  0.00  0.00    +0.004 A 
ATOM     20  C   UNL     1       5.477   5.798   2.867  0.00  0.00    +0.000 A 
ATOM     21  C   UNL     1       5.801   7.014   2.295  0.00  0.00    +0.000 A 
ATOM     22  C   UNL     1       5.353   7.321   1.024  0.00  0.00    +0.003 A 
ATOM     23  C   UNL     1       4.580   6.412   0.325  0.00  0.00    -0.047 A 
ATOM     24  C   UNL     1       4.091   6.747  -1.060  0.00  0.00    +0.044 C 
ENDBRANCH  17  18
ENDBRANCH  16  17
ENDBRANCH   1  16
BRANCH   1  25
ATOM     25  C   UNL     1       4.249   1.998  -2.773  0.00  0.00    -0.037 C 
BRANCH  25  26
ATOM     26  C   UNL     1       3.318   1.722  -3.926  0.00  0.00    +0.001 A 
ATOM     27  C   UNL     1       2.749   2.753  -4.597  0.00  0.00    +0.017 A 
ATOM     28  C   UNL     1       1.853   2.451  -5.715  0.00  0.00    -0.001 A 
ATOM     29  C   UNL     1       1.240   3.473  -6.448  0.00  0.00    +0.010 A 
ATOM     30  C   UNL     1       0.406   3.158  -7.482  0.00  0.00    +0.001 A 
ATOM     31  C   UNL     1       0.159   1.832  -7.812  0.00  0.00    +0.005 A 
ATOM     32  C   UNL     1       0.751   0.809  -7.103  0.00  0.00    -0.026 A 
ATOM     33  C   UNL     1       1.605   1.106  -6.046  0.00  0.00    +0.052 A 
ATOM     34  N   UNL     1       2.211   0.102  -5.321  0.00  0.00    -0.322 N 
ATOM     35  H   UNL     1       2.039  -0.824  -5.550  0.00  0.00    +0.169 HD
ATOM     36  C   UNL     1       3.037   0.390  -4.299  0.00  0.00    +0.251 A 
ATOM     37  O   UNL     1       3.555  -0.523  -3.679  0.00  0.00    -0.268 OA
ATOM     38  C   UNL     1       0.474  -0.626  -7.472  0.00  0.00    +0.046 C 
ENDBRANCH  25  26
ENDBRANCH   1  25
TORSDOF 10
