REMARK  Name = ZINC09477015
REMARK  5 active torsions:
REMARK  status: ('A' for Active; 'I' for Inactive)
REMARK    1  A    between atoms: C_1  and  C_2
REMARK    2  A    between atoms: C_4  and  O_28
REMARK    3  A    between atoms: C_5  and  C_23
REMARK    4  A    between atoms: C_11  and  C_12
REMARK    5  A    between atoms: C_23  and  N_49
REMARK                            x       y       z     vdW  Elec       q    Type
REMARK                         _______ _______ _______ _____ _____    ______ ____
ROOT
ATOM      1  C   UNL     1       4.610   0.050  -0.034  0.00  0.00    +0.045 C 
ATOM      2  C   UNL     1       3.587   1.156  -0.021  0.00  0.00    -0.033 A 
ATOM      3  C   UNL     1       3.989   2.461  -0.041  0.00  0.00    +0.050 A 
ATOM      4  C   UNL     1       3.046   3.484  -0.029  0.00  0.00    +0.122 A 
ATOM      5  C   UNL     1       1.691   3.194   0.004  0.00  0.00    +0.020 A 
ATOM      6  C   UNL     1       1.265   1.872   0.024  0.00  0.00    +0.145 A 
ATOM      7  C   UNL     1       2.226   0.848   0.011  0.00  0.00    +0.071 A 
ATOM      8  C   UNL     1       1.479  -0.423   0.038  0.00  0.00    +0.232 C 
ATOM      9  O   UNL     1       1.933  -1.555   0.037  0.00  0.00    -0.283 OA
ATOM     10  C   UNL     1       0.068  -0.020   0.065  0.00  0.00    +0.179 C 
ATOM     11  C   UNL     1      -1.007  -0.857   0.096  0.00  0.00    +0.096 C 
ATOM     12  O   UNL     1       0.027   1.332   0.056  0.00  0.00    -0.451 OA
ENDROOT
BRANCH  11  13
ATOM     13  C   UNL     1      -2.318  -0.325   0.121  0.00  0.00    +0.133 A 
ATOM     14  C   UNL     1      -3.466  -1.060   0.152  0.00  0.00    +0.058 A 
ATOM     15  C   UNL     1      -4.543  -0.138   0.169  0.00  0.00    +0.022 A 
ATOM     16  C   UNL     1      -5.936  -0.277   0.201  0.00  0.00    +0.027 A 
ATOM     17  C   UNL     1      -6.728   0.836   0.210  0.00  0.00    +0.019 A 
ATOM     18  C   UNL     1      -6.162   2.104   0.187  0.00  0.00    +0.019 A 
ATOM     19  C   UNL     1      -4.793   2.263   0.156  0.00  0.00    +0.048 A 
ATOM     20  C   UNL     1      -3.967   1.146   0.146  0.00  0.00    +0.136 A 
ATOM     21  O   UNL     1      -2.627   0.990   0.123  0.00  0.00    -0.455 OA
ATOM     22 BR   UNL     1      -8.610   0.649   0.252  0.00  0.00    -0.050 Br
ENDBRANCH  11  13
BRANCH   4  23
ATOM     23  O   UNL     1       3.456   4.778  -0.048  0.00  0.00    -0.506 OA
ATOM     24  H   UNL     1       3.668   5.137   0.825  0.00  0.00    +0.292 HD
ENDBRANCH   4  23
BRANCH   5  25
ATOM     25  C   UNL     1       0.681   4.312   0.018  0.00  0.00    -0.036 C 
BRANCH  25  30
ATOM     26  C   UNL     1      -0.055   3.651  -2.208  0.00  0.00    -0.078 C 
ATOM     27  C   UNL     1      -0.739   4.381  -3.391  0.00  0.00    -0.020 C 
ATOM     28  C   UNL     1      -1.404   5.598  -2.708  0.00  0.00    -0.020 C 
ATOM     29  C   UNL     1      -0.626   5.796  -1.393  0.00  0.00    -0.078 C 
ATOM     30  N   UNL     1       0.419   4.771  -1.379  0.00  0.00    +0.383 N 
ATOM     31  H   UNL     1       1.285   5.154  -1.776  0.00  0.00    -0.081 HD
ENDBRANCH  25  30
ENDBRANCH   5  25
TORSDOF 4
