REMARK  Name = ZINC01153869
REMARK  8 active torsions:
REMARK  status: ('A' for Active; 'I' for Inactive)
REMARK    1  A    between atoms: C_1  and  C_2
REMARK    2  A    between atoms: C_5  and  C_8
REMARK    3  A    between atoms: C_8  and  C_10
REMARK    4  A    between atoms: C_12  and  C_24
REMARK    5  A    between atoms: C_18  and  C_19
REMARK    6  A    between atoms: C_18  and  O_23
REMARK    7  A    between atoms: C_27  and  C_29
REMARK    8  A    between atoms: C_34  and  N_35
REMARK                            x       y       z     vdW  Elec       q    Type
REMARK                         _______ _______ _______ _____ _____    ______ ____
ROOT
ATOM      1  C   UNL     1      -4.214   4.082   2.603  0.00  0.00    +0.147 C 
ATOM      2  C   UNL     1      -3.632   4.628   1.295  0.00  0.00    +0.156 C 
ATOM      3  N   UNL     1      -2.711   5.725   1.598  0.00  0.00    -0.289 N 
ATOM      4  C   UNL     1      -2.876   6.492   2.687  0.00  0.00    +0.302 C 
ATOM      5  O   UNL     1      -2.087   7.396   2.888  0.00  0.00    -0.253 OA
ATOM      6  N   UNL     1      -3.875   6.303   3.561  0.00  0.00    -0.264 N 
ATOM      7  C   UNL     1      -4.864   5.240   3.369  0.00  0.00    +0.243 C 
ATOM      8  H   UNL     1      -1.967   5.899   1.001  0.00  0.00    +0.151 HD
ATOM      9  H   UNL     1      -3.945   6.881   4.336  0.00  0.00    +0.153 HD
ENDROOT
BRANCH   2  10
ATOM     10  C   UNL     1      -2.889   3.530   0.577  0.00  0.00    +0.127 A 
ATOM     11  C   UNL     1      -3.363   2.806  -0.456  0.00  0.00    +0.047 A 
ATOM     12  C   UNL     1      -2.349   1.899  -0.823  0.00  0.00    +0.050 A 
ATOM     13  C   UNL     1      -1.305   2.117   0.020  0.00  0.00    +0.137 A 
ATOM     14  O   UNL     1      -1.646   3.111   0.862  0.00  0.00    -0.458 OA
BRANCH  13  15
ATOM     15  C   UNL     1      -0.017   1.392   0.010  0.00  0.00    +0.047 A 
ATOM     16  C   UNL     1       0.002  -0.004   0.002  0.00  0.00    +0.014 A 
ATOM     17  C   UNL     1       1.208  -0.674  -0.013  0.00  0.00    +0.001 A 
ATOM     18  C   UNL     1       2.396   0.034  -0.021  0.00  0.00    +0.002 A 
ATOM     19  C   UNL     1       2.385   1.417  -0.013  0.00  0.00    +0.033 A 
ATOM     20  C   UNL     1       1.186   2.100   0.002  0.00  0.00    +0.137 A 
BRANCH  20  21
ATOM     21  N   UNL     1       1.175   3.580   0.010  0.00  0.00    +0.057 N 
ATOM     22  O   UNL     1       2.226   4.197   0.003  0.00  0.00    -0.126 OA
ATOM     23  O   UNL     1       0.116   4.182   0.023  0.00  0.00    -0.126 OA
ENDBRANCH  20  21
ENDBRANCH  13  15
ENDBRANCH   2  10
BRANCH   7  24
ATOM     24  C   UNL     1      -5.351   4.743   4.731  0.00  0.00    +0.436 C 
ATOM     25  F   UNL     1      -4.266   4.251   5.463  0.00  0.00    -0.166 F 
ATOM     26  F   UNL     1      -5.944   5.801   5.429  0.00  0.00    -0.166 F 
ATOM     27  F   UNL     1      -6.290   3.722   4.546  0.00  0.00    -0.166 F 
ENDBRANCH   7  24
BRANCH   1  28
ATOM     28  C   UNL     1      -3.112   3.476   3.433  0.00  0.00    +0.173 C 
ATOM     29  O   UNL     1      -2.567   4.137   4.291  0.00  0.00    -0.292 OA
BRANCH  28  34
ATOM     30  C   UNL     1      -1.498  -1.967   2.534  0.00  0.00    +0.044 C 
ATOM     31  C   UNL     1      -1.921  -0.540   2.770  0.00  0.00    -0.050 A 
ATOM     32  C   UNL     1      -1.295   0.210   3.750  0.00  0.00    +0.004 A 
ATOM     33  C   UNL     1      -1.677   1.517   3.972  0.00  0.00    +0.011 A 
ATOM     34  C   UNL     1      -2.699   2.083   3.203  0.00  0.00    +0.018 A 
ATOM     35  C   UNL     1      -3.330   1.316   2.218  0.00  0.00    +0.011 A 
ATOM     36  C   UNL     1      -2.934   0.012   2.006  0.00  0.00    +0.004 A 
ENDBRANCH  28  34
ENDBRANCH   1  28
BRANCH   7  37
ATOM     37  O   UNL     1      -5.970   5.747   2.620  0.00  0.00    -0.364 OA
ATOM     38  H   UNL     1      -6.429   6.483   3.046  0.00  0.00    +0.212 HD
ENDBRANCH   7  37
TORSDOF 7
