REMARK  Name = ZINC05151721
REMARK  4 active torsions:
REMARK  status: ('A' for Active; 'I' for Inactive)
REMARK    1  A    between atoms: C_1  and  C_2
REMARK    2  A    between atoms: C_5  and  N_8
REMARK    3  A    between atoms: C_11  and  C_22
REMARK    4  A    between atoms: C_13  and  C_15
REMARK                            x       y       z     vdW  Elec       q    Type
REMARK                         _______ _______ _______ _____ _____    ______ ____
ROOT
ATOM      1  N   UNL     1       3.521  -5.022  -0.059  0.00  0.00    -0.245 N 
ATOM      2  C   UNL     1       2.485  -4.104  -0.044  0.00  0.00    +0.170 A 
ATOM      3  C   UNL     1       1.290  -4.846  -0.037  0.00  0.00    +0.117 A 
ATOM      4  C   UNL     1       0.076  -4.158  -0.021  0.00  0.00    +0.154 A 
ATOM      5  N   UNL     1       0.100  -2.824  -0.009  0.00  0.00    -0.220 NA
ATOM      6  C   UNL     1       1.247  -2.164  -0.022  0.00  0.00    +0.163 A 
ATOM      7  N   UNL     1       2.421  -2.785  -0.037  0.00  0.00    -0.208 NA
ATOM      8  N   UNL     1       1.647  -6.183  -0.047  0.00  0.00    -0.303 N 
ATOM      9  H   UNL     1       1.035  -6.934  -0.045  0.00  0.00    +0.171 HD
ATOM     10  C   UNL     1       2.992  -6.261  -0.060  0.00  0.00    +0.333 A 
ATOM     11  O   UNL     1       3.633  -7.295  -0.072  0.00  0.00    -0.246 OA
ENDROOT
BRANCH   1  16
ATOM     12  C   UNL     1       9.057  -3.777  -0.105  0.00  0.00    +0.044 C 
ATOM     13  C   UNL     1       7.587  -4.107  -0.093  0.00  0.00    -0.050 A 
ATOM     14  C   UNL     1       7.177  -5.428  -0.096  0.00  0.00    +0.005 A 
ATOM     15  C   UNL     1       5.830  -5.734  -0.084  0.00  0.00    +0.026 A 
ATOM     16  C   UNL     1       4.888  -4.715  -0.070  0.00  0.00    +0.053 A 
ATOM     17  C   UNL     1       5.303  -3.390  -0.074  0.00  0.00    +0.026 A 
ATOM     18  C   UNL     1       6.651  -3.090  -0.080  0.00  0.00    +0.005 A 
ENDBRANCH   1  16
BRANCH   6  19
ATOM     19  C   UNL     1       1.220  -0.681  -0.013  0.00  0.00    +0.022 A 
ATOM     20  C   UNL     1       2.413   0.040  -0.021  0.00  0.00    +0.012 A 
ATOM     21  C   UNL     1       2.383   1.420  -0.013  0.00  0.00    +0.003 A 
ATOM     22  C   UNL     1       1.173   2.089   0.002  0.00  0.00    +0.038 A 
ATOM     23  C   UNL     1      -0.017   1.378   0.010  0.00  0.00    +0.124 A 
ATOM     24  C   UNL     1       0.002  -0.004   0.002  0.00  0.00    +0.050 A 
ATOM     25  F   UNL     1      -1.196   2.037   0.019  0.00  0.00    -0.205 F 
ENDBRANCH   6  19
BRANCH   4  26
ATOM     26  C   UNL     1      -1.210  -4.891  -0.013  0.00  0.00    +0.262 C 
ATOM     27  O   UNL     1      -1.216  -6.107  -0.020  0.00  0.00    -0.269 OA
ATOM     28  N   UNL     1      -2.374  -4.212   0.002  0.00  0.00    -0.324 N 
ATOM     29  H   UNL     1      -2.368  -3.241   0.007  0.00  0.00    +0.145 HD
ATOM     30  H   UNL     1      -3.216  -4.692   0.007  0.00  0.00    +0.145 HD
ENDBRANCH   4  26
TORSDOF 3
