REMARK  Name = ZINC63896808
REMARK  6 active torsions:
REMARK  status: ('A' for Active; 'I' for Inactive)
REMARK    1  A    between atoms: C_1  and  C_2
REMARK    2  A    between atoms: C_3  and  C_18
REMARK    3  A    between atoms: N_6  and  C_8
REMARK    4  A    between atoms: C_8  and  C_9
REMARK    5  A    between atoms: N_19  and  N_20
REMARK    6  A    between atoms: C_21  and  C_23
REMARK                            x       y       z     vdW  Elec       q    Type
REMARK                         _______ _______ _______ _____ _____    ______ ____
ROOT
ATOM      1  C   UNL     1      -0.018   1.503   0.010  0.00  0.00    +0.062 C 
ATOM      2  C   UNL     1       0.002  -0.004   0.002  0.00  0.00    +0.023 C 
ATOM      3  C   UNL     1      -1.099  -0.778   0.003  0.00  0.00    +0.023 C 
ATOM      4  C   UNL     1      -0.613  -2.212  -0.007  0.00  0.00    +0.200 C 
ATOM      5  N   UNL     1       0.859  -2.094  -0.013  0.00  0.00    -0.203 NA
ATOM      6  N   UNL     1       1.142  -0.759  -0.013  0.00  0.00    -0.280 N 
ATOM      7 CL   UNL     1      -1.174  -3.079   1.471  0.00  0.00    -0.098 Cl
ATOM      8  H   UNL     1       2.040  -0.392  -0.020  0.00  0.00    +0.166 HD
ENDROOT
BRANCH   3   9
ATOM      9  C   UNL     1      -2.445  -0.338   0.012  0.00  0.00    +0.138 C 
ATOM     10  N   UNL     1      -2.715   0.939   0.020  0.00  0.00    -0.188 NA
BRANCH  10  11
ATOM     11  N   UNL     1      -4.046   1.374   0.028  0.00  0.00    -0.203 N 
ATOM     12  C   UNL     1      -4.324   2.692   0.036  0.00  0.00    +0.262 C 
ATOM     13  O   UNL     1      -3.418   3.506   0.036  0.00  0.00    -0.269 OA
ATOM     14  H   UNL     1      -4.768   0.726   0.029  0.00  0.00    +0.178 HD
BRANCH  12  15
ATOM     15  C   UNL     1      -5.716   3.147   0.045  0.00  0.00    +0.044 C 
ATOM     16  C   UNL     1      -6.167   4.451   0.049  0.00  0.00    +0.008 A 
ATOM     17  C   UNL     1      -5.499   5.701   0.044  0.00  0.00    +0.010 A 
ATOM     18  C   UNL     1      -6.207   6.851   0.049  0.00  0.00    +0.001 A 
ATOM     19  C   UNL     1      -7.610   6.872   0.059  0.00  0.00    +0.002 A 
ATOM     20  C   UNL     1      -8.342   5.735   0.064  0.00  0.00    +0.026 A 
ATOM     21  C   UNL     1      -7.649   4.439   0.058  0.00  0.00    +0.043 A 
ATOM     22  N   UNL     1      -8.095   3.212   0.061  0.00  0.00    -0.380 N 
ATOM     23  C   UNL     1      -6.959   2.285   0.047  0.00  0.00    +0.154 C 
ATOM     24  H   UNL     1      -9.030   2.954   0.067  0.00  0.00    +0.160 HD
ENDBRANCH  12  15
ENDBRANCH  10  11
ENDBRANCH   3   9
BRANCH   5  25
ATOM     25  C   UNL     1       1.434  -2.749  -1.196  0.00  0.00    +0.145 C 
BRANCH  25  26
ATOM     26  C   UNL     1       2.938  -2.716  -1.106  0.00  0.00    +0.005 A 
ATOM     27  C   UNL     1       3.640  -1.649  -1.636  0.00  0.00    +0.047 A 
ATOM     28  C   UNL     1       5.021  -1.619  -1.554  0.00  0.00    +0.020 A 
ATOM     29  C   UNL     1       5.699  -2.657  -0.942  0.00  0.00    +0.003 A 
ATOM     30  C   UNL     1       4.998  -3.724  -0.412  0.00  0.00    +0.020 A 
ATOM     31  C   UNL     1       3.617  -3.751  -0.489  0.00  0.00    +0.047 A 
ATOM     32 CL   UNL     1       2.737  -5.088   0.184  0.00  0.00    -0.083 Cl
ATOM     33 CL   UNL     1       2.788  -0.346  -2.405  0.00  0.00    -0.083 Cl
ENDBRANCH  25  26
ENDBRANCH   5  25
TORSDOF 5
