REMARK  Name = ZINC67209899
REMARK  10 active torsions:
REMARK  status: ('A' for Active; 'I' for Inactive)
REMARK    1  A    between atoms: C_1  and  C_2
REMARK    2  A    between atoms: C_2  and  C_4
REMARK    3  A    between atoms: C_2  and  N_21
REMARK    4  A    between atoms: N_6  and  C_7
REMARK    5  A    between atoms: C_14  and  C_16
REMARK    6  A    between atoms: C_22  and  O_24
REMARK    7  A    between atoms: O_24  and  C_25
REMARK    8  A    between atoms: C_25  and  C_26
REMARK    9  A    between atoms: C_25  and  C_27
REMARK   10  A    between atoms: C_25  and  C_28
REMARK                            x       y       z     vdW  Elec       q    Type
REMARK                         _______ _______ _______ _____ _____    ______ ____
ROOT
ATOM      1  C   UNL     1       0.730  -0.501   1.224  0.00  0.00    +0.237 C 
ATOM      2  O   UNL     1       0.155  -1.204   2.029  0.00  0.00    -0.273 OA
ATOM      3  N   UNL     1       2.019  -0.161   1.426  0.00  0.00    -0.284 N 
ATOM      4  H   UNL     1       2.498   0.344   0.751  0.00  0.00    +0.155 HD
ENDROOT
BRANCH   3   5
ATOM      5  C   UNL     1       2.665  -0.537   2.610  0.00  0.00    +0.036 A 
ATOM      6  C   UNL     1       2.364  -1.761   3.205  0.00  0.00    +0.025 A 
ATOM      7  C   UNL     1       2.985  -2.142   4.360  0.00  0.00    +0.032 A 
ATOM      8  C   UNL     1       3.932  -1.302   4.955  0.00  0.00    +0.090 A 
ATOM      9  C   UNL     1       4.237  -0.067   4.356  0.00  0.00    +0.068 A 
ATOM     10  C   UNL     1       3.604   0.307   3.180  0.00  0.00    +0.051 A 
ATOM     11  N   UNL     1       5.190   0.529   5.161  0.00  0.00    -0.335 N 
ATOM     12  C   UNL     1       5.437  -0.331   6.201  0.00  0.00    +0.175 A 
ATOM     13  N   UNL     1       4.693  -1.406   6.073  0.00  0.00    -0.225 NA
ATOM     14  H   UNL     1       5.607   1.393   5.017  0.00  0.00    +0.167 HD
BRANCH  12  15
ATOM     15  C   UNL     1       6.390  -0.087   7.294  0.00  0.00    +0.170 A 
ATOM     16  C   UNL     1       6.652  -0.932   8.331  0.00  0.00    +0.053 A 
ATOM     17  C   UNL     1       7.621  -0.301   9.132  0.00  0.00    +0.042 A 
ATOM     18  C   UNL     1       7.902   0.885   8.554  0.00  0.00    +0.196 A 
ATOM     19  O   UNL     1       7.162   1.008   7.441  0.00  0.00    -0.460 OA
ENDBRANCH  12  15
ENDBRANCH   3   5
BRANCH   1  21
ATOM     20  C   UNL     1      -0.013   1.521  -0.004  0.00  0.00    +0.038 C 
ATOM     21  C   UNL     1       0.004  -0.009  -0.002  0.00  0.00    +0.159 C 
BRANCH  21  22
ATOM     22  N   UNL     1      -1.372  -0.512   0.011  0.00  0.00    -0.270 N 
ATOM     23  C   UNL     1      -2.049  -0.651  -1.146  0.00  0.00    +0.401 C 
ATOM     24  O   UNL     1      -1.519  -0.358  -2.199  0.00  0.00    -0.226 OA
ATOM     25  H   UNL     1      -1.795  -0.746   0.852  0.00  0.00    +0.153 HD
BRANCH  23  26
ATOM     26  O   UNL     1      -3.313  -1.113  -1.134  0.00  0.00    -0.445 OA
BRANCH  26  27
ATOM     27  C   UNL     1      -3.971  -1.234  -2.397  0.00  0.00    +0.107 C 
ATOM     28  C   UNL     1      -3.189  -2.200  -3.290  0.00  0.00    +0.055 C 
ATOM     29  C   UNL     1      -5.388  -1.772  -2.184  0.00  0.00    +0.055 C 
ATOM     30  C   UNL     1      -4.042   0.138  -3.069  0.00  0.00    +0.055 C 
ENDBRANCH  26  27
ENDBRANCH  23  26
ENDBRANCH  21  22
ENDBRANCH   1  21
TORSDOF 6
