REMARK  Name = ZINC28289926
REMARK  9 active torsions:
REMARK  status: ('A' for Active; 'I' for Inactive)
REMARK    1  A    between atoms: C_1  and  C_2
REMARK    2  A    between atoms: C_2  and  C_3
REMARK    3  A    between atoms: C_2  and  C_4
REMARK    4  A    between atoms: C_2  and  C_5
REMARK    5  A    between atoms: C_8  and  C_11
REMARK    6  A    between atoms: C_11  and  C_13
REMARK    7  A    between atoms: C_11  and  N_29
REMARK    8  A    between atoms: C_13  and  N_14
REMARK    9  A    between atoms: C_15  and  C_17
REMARK                            x       y       z     vdW  Elec       q    Type
REMARK                         _______ _______ _______ _____ _____    ______ ____
ROOT
ATOM      1  C   UNL     1      -2.624   4.191   0.102  0.00  0.00    -0.020 C 
ENDROOT
BRANCH   1   5
ATOM      2  C   UNL     1      -2.537   8.461   0.207  0.00  0.00    -0.042 A 
ATOM      3  C   UNL     1      -2.780   7.803  -0.985  0.00  0.00    +0.004 A 
ATOM      4  C   UNL     1      -2.808   6.422  -1.019  0.00  0.00    +0.002 A 
ATOM      5  C   UNL     1      -2.593   5.697   0.139  0.00  0.00    -0.059 A 
ATOM      6  C   UNL     1      -2.355   6.355   1.331  0.00  0.00    +0.002 A 
ATOM      7  C   UNL     1      -2.322   7.736   1.364  0.00  0.00    +0.004 A 
BRANCH   2   9
ATOM      8  C   UNL     1      -3.859  10.516  -0.211  0.00  0.00    +0.015 C 
ATOM      9  C   UNL     1      -2.506   9.967   0.244  0.00  0.00    -0.013 C 
ATOM     10  C   UNL     1      -2.219  10.436   1.672  0.00  0.00    +0.015 C 
ATOM     11  C   UNL     1      -1.408  10.478  -0.691  0.00  0.00    +0.015 C 
ENDBRANCH   2   9
ENDBRANCH   1   5
BRANCH   1  12
ATOM     12  N   UNL     1      -3.304   3.686   1.302  0.00  0.00    +0.385 N 
ATOM     13  C   UNL     1      -4.699   4.189   1.375  0.00  0.00    -0.078 C 
ATOM     14  C   UNL     1      -5.388   3.187   2.334  0.00  0.00    -0.020 C 
ATOM     15  C   UNL     1      -4.739   1.838   1.949  0.00  0.00    -0.020 C 
ATOM     16  C   UNL     1      -3.409   2.211   1.270  0.00  0.00    -0.078 C 
ATOM     17  H   UNL     1      -2.700   4.029   2.155  0.00  0.00    -0.081 HD
ENDBRANCH   1  12
BRANCH   1  18
ATOM     18  C   UNL     1      -1.192   3.653   0.062  0.00  0.00    +0.094 C 
BRANCH  18  19
ATOM     19  N   UNL     1      -0.556   4.048  -1.198  0.00  0.00    -0.310 N 
ATOM     20  C   UNL     1       0.746   3.775  -1.410  0.00  0.00    +0.279 C 
ATOM     21  O   UNL     1       1.395   3.205  -0.555  0.00  0.00    -0.267 OA
ATOM     22  H   UNL     1      -1.142   4.568  -1.970  0.00  0.00    +0.149 HD
BRANCH  20  23
ATOM     23  C   UNL     1       1.389   4.175  -2.684  0.00  0.00    +0.193 A 
ATOM     24  C   UNL     1       2.702   3.897  -2.865  0.00  0.00    +0.103 A 
ATOM     25  C   UNL     1       3.341   4.289  -4.131  0.00  0.00    +0.193 A 
ATOM     26  O   UNL     1       4.517   4.060  -4.351  0.00  0.00    -0.287 OA
ATOM     27  C   UNL     1       2.490   4.977  -5.120  0.00  0.00    +0.064 A 
ATOM     28  C   UNL     1       2.999   5.394  -6.350  0.00  0.00    +0.016 A 
ATOM     29  C   UNL     1       2.180   6.029  -7.242  0.00  0.00    +0.016 A 
ATOM     30  C   UNL     1       0.847   6.260  -6.930  0.00  0.00    +0.021 A 
ATOM     31  C   UNL     1       0.326   5.854  -5.719  0.00  0.00    +0.062 A 
ATOM     32  C   UNL     1       1.141   5.206  -4.797  0.00  0.00    +0.141 A 
ATOM     33  O   UNL     1       0.649   4.803  -3.610  0.00  0.00    -0.450 OA
ATOM     34 BR   UNL     1      -0.267   7.139  -8.179  0.00  0.00    -0.050 Br
ENDBRANCH  20  23
ENDBRANCH  18  19
ENDBRANCH   1  18
TORSDOF 6
