REMARK  Name = ZINC09123119
REMARK  7 active torsions:
REMARK  status: ('A' for Active; 'I' for Inactive)
REMARK    1  A    between atoms: C_1  and  O_2
REMARK    2  A    between atoms: O_2  and  C_3
REMARK    3  A    between atoms: C_6  and  C_11
REMARK    4  A    between atoms: C_8  and  O_9
REMARK    5  A    between atoms: O_9  and  C_10
REMARK    6  A    between atoms: C_13  and  C_24
REMARK    7  A    between atoms: C_24  and  C_26
REMARK                            x       y       z     vdW  Elec       q    Type
REMARK                         _______ _______ _______ _____ _____    ______ ____
ROOT
ATOM      1  C   UNL     1      -1.190   6.930   1.828  0.00  0.00    +0.152 C 
ATOM      2  C   UNL     1      -2.414   7.600   1.250  0.00  0.00    +0.077 C 
ATOM      3  C   UNL     1      -1.978   8.684   0.564  0.00  0.00    +0.250 C 
ATOM      4  C   UNL     1      -0.506   8.761   0.663  0.00  0.00    +0.293 C 
ATOM      5  O   UNL     1       0.183   9.623   0.153  0.00  0.00    -0.266 OA
ATOM      6  N   UNL     1      -0.041   7.738   1.402  0.00  0.00    -0.232 N 
ATOM      7  C   UNL     1       1.290   7.490   1.707  0.00  0.00    +0.168 A 
ATOM      8  N   UNL     1       2.362   8.174   1.356  0.00  0.00    -0.233 NA
ATOM      9  C   UNL     1       3.567   7.797   1.735  0.00  0.00    +0.120 A 
ATOM     10  C   UNL     1       3.685   6.683   2.499  0.00  0.00    +0.068 A 
ATOM     11  S   UNL     1       1.971   6.204   2.654  0.00  0.00    -0.060 S 
ATOM     12  O   UNL     1      -2.765   9.556  -0.107  0.00  0.00    -0.282 OA
ENDROOT
BRANCH   1  16
ATOM     13  C   UNL     1      -0.832   2.952   0.300  0.00  0.00    +0.162 A 
ATOM     14  C   UNL     1      -0.491   4.035  -0.494  0.00  0.00    +0.050 A 
ATOM     15  C   UNL     1      -0.614   5.320   0.001  0.00  0.00    +0.009 A 
ATOM     16  C   UNL     1      -1.064   5.527   1.292  0.00  0.00    -0.018 A 
ATOM     17  C   UNL     1      -1.401   4.451   2.091  0.00  0.00    +0.055 A 
ATOM     18  C   UNL     1      -1.286   3.160   1.599  0.00  0.00    +0.162 A 
BRANCH  13  20
ATOM     19  C   UNL     1      -0.245   1.549  -1.529  0.00  0.00    +0.277 C 
ATOM     20  O   UNL     1      -0.718   1.687  -0.187  0.00  0.00    -0.491 OA
ENDBRANCH  13  20
BRANCH  18  21
ATOM     21  O   UNL     1      -1.617   2.100   2.384  0.00  0.00    -0.491 OA
ATOM     22  C   UNL     1      -1.964   2.381   3.741  0.00  0.00    +0.277 C 
ENDBRANCH  18  21
ENDBRANCH   1  16
BRANCH   2  23
ATOM     23  C   UNL     1      -3.804   7.163   1.401  0.00  0.00    +0.195 C 
ATOM     24  O   UNL     1      -4.428   6.774   0.431  0.00  0.00    -0.287 OA
BRANCH  23  25
ATOM     25  C   UNL     1      -4.448   7.193   2.731  0.00  0.00    +0.022 A 
ATOM     26  C   UNL     1      -3.757   7.701   3.833  0.00  0.00    +0.013 A 
ATOM     27  C   UNL     1      -4.364   7.731   5.071  0.00  0.00    +0.016 A 
ATOM     28  C   UNL     1      -5.654   7.249   5.224  0.00  0.00    +0.018 A 
ATOM     29  C   UNL     1      -6.343   6.739   4.135  0.00  0.00    +0.016 A 
ATOM     30  C   UNL     1      -5.748   6.708   2.892  0.00  0.00    +0.013 A 
ATOM     31 BR   UNL     1      -6.477   7.287   6.926  0.00  0.00    -0.050 Br
ENDBRANCH  23  25
ENDBRANCH   2  23
TORSDOF 5
