REMARK  Name = ZINC20323175
REMARK  17 active torsions:
REMARK  status: ('A' for Active; 'I' for Inactive)
REMARK    1  A    between atoms: C_1  and  C_2
REMARK    2  A    between atoms: C_3  and  S_9
REMARK    3  A    between atoms: C_4  and  C_8
REMARK    4  A    between atoms: N_5  and  C_7
REMARK    5  A    between atoms: S_9  and  N_12
REMARK    6  A    between atoms: N_12  and  C_13
REMARK    7  A    between atoms: N_12  and  C_28
REMARK    8  A    between atoms: C_13  and  C_14
REMARK    9  A    between atoms: N_16  and  C_17
REMARK   10  A    between atoms: C_17  and  C_18
REMARK   11  A    between atoms: C_18  and  N_19
REMARK   12  A    between atoms: N_19  and  C_20
REMARK   13  A    between atoms: N_19  and  C_21
REMARK   14  A    between atoms: C_21  and  C_22
REMARK   15  A    between atoms: C_31  and  C_34
REMARK   16  A    between atoms: C_34  and  C_35
REMARK   17  A    between atoms: C_34  and  C_36
REMARK                            x       y       z     vdW  Elec       q    Type
REMARK                         _______ _______ _______ _____ _____    ______ ____
ROOT
ATOM      1  N   UNL     1      -2.279  -1.887  -1.870  0.00  0.00    -0.194 N 
ENDROOT
BRANCH   1   2
ATOM      2  C   UNL     1      -2.095  -3.117  -2.507  0.00  0.00    +0.052 A 
ATOM      3  C   UNL     1      -0.916  -3.828  -2.321  0.00  0.00    +0.025 A 
ATOM      4  C   UNL     1      -0.739  -5.045  -2.948  0.00  0.00    +0.006 A 
ATOM      5  C   UNL     1      -1.730  -5.552  -3.769  0.00  0.00    -0.045 A 
ATOM      6  C   UNL     1      -2.903  -4.845  -3.960  0.00  0.00    +0.006 A 
ATOM      7  C   UNL     1      -3.088  -3.629  -3.332  0.00  0.00    +0.025 A 
BRANCH   5   8
ATOM      8  C   UNL     1      -1.532  -6.879  -4.456  0.00  0.00    +0.013 C 
ATOM      9  C   UNL     1      -0.302  -6.804  -5.363  0.00  0.00    +0.012 C 
ATOM     10  C   UNL     1      -1.325  -7.971  -3.405  0.00  0.00    +0.012 C 
ENDBRANCH   5   8
ENDBRANCH   1   2
BRANCH   1  11
ATOM     11  S   UNL     1      -1.904  -1.722  -0.265  0.00  0.00    +0.079 S 
ATOM     12  O   UNL     1      -1.853  -0.326  -0.002  0.00  0.00    -0.150 OA
ATOM     13  O   UNL     1      -0.803  -2.585  -0.014  0.00  0.00    -0.150 OA
BRANCH  11  16
ATOM     14  C   UNL     1      -2.474  -4.819   0.801  0.00  0.00    +0.069 C 
ATOM     15  C   UNL     1      -3.428  -3.685   1.070  0.00  0.00    +0.087 A 
ATOM     16  C   UNL     1      -3.264  -2.359   0.656  0.00  0.00    +0.152 A 
ATOM     17  C   UNL     1      -4.334  -1.652   1.088  0.00  0.00    +0.063 A 
ATOM     18  N   UNL     1      -5.146  -2.500   1.752  0.00  0.00    -0.269 N 
ATOM     19  N   UNL     1      -4.556  -3.771   1.728  0.00  0.00    -0.174 NA
ATOM     20  C   UNL     1      -6.420  -2.154   2.387  0.00  0.00    +0.172 C 
ATOM     21  C   UNL     1      -4.575  -0.181   0.867  0.00  0.00    +0.067 C 
ENDBRANCH  11  16
ENDBRANCH   1  11
BRANCH   1  22
ATOM     22  C   UNL     1      -2.803  -0.745  -2.621  0.00  0.00    +0.227 C 
BRANCH  22  23
ATOM     23  C   UNL     1      -1.670  -0.046  -3.328  0.00  0.00    +0.232 C 
ATOM     24  O   UNL     1      -0.536  -0.461  -3.215  0.00  0.00    -0.274 OA
ATOM     25  N   UNL     1      -1.917   1.041  -4.086  0.00  0.00    -0.316 N 
ATOM     26  H   UNL     1      -2.945   1.418  -4.188  0.00  0.00    +0.149 HD
BRANCH  25  27
ATOM     27  C   UNL     1      -0.816   1.721  -4.773  0.00  0.00    +0.086 C 
BRANCH  27  28
ATOM     28  C   UNL     1      -1.364   2.914  -5.558  0.00  0.00    -0.060 C 
BRANCH  28  29
ATOM     29  N   UNL     1      -0.259   3.596  -6.247  0.00  0.00    +0.382 N 
ATOM     30  C   UNL     1       0.326   2.735  -7.283  0.00  0.00    -0.096 C 
ATOM     31  H   UNL     1       0.523   3.809  -5.503  0.00  0.00    -0.082 HD
BRANCH  29  32
ATOM     32  C   UNL     1      -0.703   4.876  -6.815  0.00  0.00    -0.043 C 
BRANCH  32  33
ATOM     33  C   UNL     1       0.495   5.655  -7.294  0.00  0.00    -0.064 A 
ATOM     34  C   UNL     1       1.139   6.528  -6.438  0.00  0.00    +0.002 A 
ATOM     35  C   UNL     1       2.240   7.239  -6.876  0.00  0.00    +0.000 A 
ATOM     36  C   UNL     1       2.692   7.084  -8.173  0.00  0.00    +0.000 A 
ATOM     37  C   UNL     1       2.044   6.215  -9.031  0.00  0.00    +0.000 A 
ATOM     38  C   UNL     1       0.946   5.500  -8.591  0.00  0.00    +0.002 A 
ENDBRANCH  32  33
ENDBRANCH  29  32
ENDBRANCH  28  29
ENDBRANCH  27  28
ENDBRANCH  25  27
ENDBRANCH  22  23
ENDBRANCH   1  22
TORSDOF 11
