REMARK  Name = ZINC36156171
REMARK  11 active torsions:
REMARK  status: ('A' for Active; 'I' for Inactive)
REMARK    1  A    between atoms: C_1  and  O_2
REMARK    2  A    between atoms: O_2  and  C_3
REMARK    3  A    between atoms: C_6  and  C_9
REMARK    4  A    between atoms: C_9  and  N_10
REMARK    5  A    between atoms: N_10  and  C_11
REMARK    6  A    between atoms: N_10  and  C_31
REMARK    7  A    between atoms: C_11  and  C_12
REMARK    8  A    between atoms: C_15  and  C_17
REMARK    9  A    between atoms: C_17  and  C_18
REMARK   10  A    between atoms: C_17  and  C_24
REMARK   11  A    between atoms: C_17  and  O_30
REMARK                            x       y       z     vdW  Elec       q    Type
REMARK                         _______ _______ _______ _____ _____    ______ ____
ROOT
ATOM      1  C   UNL     1       6.756  -4.399  -4.350  0.00  0.00    +0.089 A 
ATOM      2  C   UNL     1       7.876  -5.046  -3.983  0.00  0.00    +0.043 A 
ATOM      3  C   UNL     1       8.948  -4.141  -4.155  0.00  0.00    +0.048 A 
ATOM      4  C   UNL     1       8.419  -2.994  -4.618  0.00  0.00    +0.146 A 
ATOM      5  O   UNL     1       7.091  -3.158  -4.739  0.00  0.00    -0.463 OA
ENDROOT
BRANCH   1   6
ATOM      6  C   UNL     1       5.362  -4.970  -4.333  0.00  0.00    -0.002 C 
BRANCH   6   7
ATOM      7  N   UNL     1       4.733  -4.691  -3.035  0.00  0.00    +0.389 N 
ATOM      8  H   UNL     1       5.328  -5.029  -2.294  0.00  0.00    -0.080 HD
BRANCH   7   9
ATOM      9  C   UNL     1       3.431  -5.367  -2.966  0.00  0.00    -0.068 C 
ATOM     10  C   UNL     1       3.111  -6.154  -1.694  0.00  0.00    -0.017 C 
ATOM     11  C   UNL     1       3.427  -6.897  -2.994  0.00  0.00    -0.017 C 
ENDBRANCH   7   9
BRANCH   7  12
ATOM     12  C   UNL     1       4.541  -3.242  -2.886  0.00  0.00    -0.042 C 
BRANCH  12  16
ATOM     13  C   UNL     1       3.037  -2.399   1.024  0.00  0.00    +0.120 A 
ATOM     14  C   UNL     1       4.405  -2.429   0.798  0.00  0.00    +0.046 A 
ATOM     15  C   UNL     1       4.889  -2.702  -0.467  0.00  0.00    +0.005 A 
ATOM     16  C   UNL     1       4.011  -2.945  -1.507  0.00  0.00    -0.064 A 
ATOM     17  C   UNL     1       2.646  -2.915  -1.284  0.00  0.00    +0.005 A 
ATOM     18  C   UNL     1       2.158  -2.648  -0.020  0.00  0.00    +0.046 A 
BRANCH  13  20
ATOM     19  C   UNL     1       3.521  -1.884   3.294  0.00  0.00    +0.277 C 
ATOM     20  O   UNL     1       2.558  -2.131   2.267  0.00  0.00    -0.495 OA
ENDBRANCH  13  20
ENDBRANCH  12  16
ENDBRANCH   7  12
ENDBRANCH   6   7
ENDBRANCH   1   6
BRANCH   4  21
ATOM     21  C   UNL     1       9.186  -1.740  -4.949  0.00  0.00    +0.174 C 
BRANCH  21  22
ATOM     22  C   UNL     1       8.479  -0.995  -6.053  0.00  0.00    -0.004 A 
ATOM     23  C   UNL     1       9.098  -0.824  -7.277  0.00  0.00    +0.007 A 
ATOM     24  C   UNL     1       8.450  -0.141  -8.289  0.00  0.00    +0.000 A 
ATOM     25  C   UNL     1       7.183   0.370  -8.077  0.00  0.00    +0.000 A 
ATOM     26  C   UNL     1       6.564   0.197  -6.854  0.00  0.00    +0.000 A 
ATOM     27  C   UNL     1       7.210  -0.489  -5.843  0.00  0.00    +0.007 A 
ENDBRANCH  21  22
BRANCH  21  28
ATOM     28  C   UNL     1       9.269  -0.864  -3.725  0.00  0.00    -0.004 A 
ATOM     29  C   UNL     1       8.166  -0.715  -2.906  0.00  0.00    +0.007 A 
ATOM     30  C   UNL     1       8.242   0.088  -1.783  0.00  0.00    +0.000 A 
ATOM     31  C   UNL     1       9.421   0.743  -1.480  0.00  0.00    +0.000 A 
ATOM     32  C   UNL     1      10.524   0.593  -2.300  0.00  0.00    +0.000 A 
ATOM     33  C   UNL     1      10.450  -0.213  -3.420  0.00  0.00    +0.007 A 
ENDBRANCH  21  28
BRANCH  21  34
ATOM     34  O   UNL     1      10.505  -2.087  -5.377  0.00  0.00    -0.372 OA
ATOM     35  H   UNL     1      11.018  -2.569  -4.715  0.00  0.00    +0.212 HD
ENDBRANCH  21  34
ENDBRANCH   4  21
TORSDOF 10
