REMARK  Name = ZINC39595977
REMARK  11 active torsions:
REMARK  status: ('A' for Active; 'I' for Inactive)
REMARK    1  A    between atoms: C_1  and  C_2
REMARK    2  A    between atoms: C_2  and  C_3
REMARK    3  A    between atoms: C_3  and  C_4
REMARK    4  A    between atoms: C_3  and  C_6
REMARK    5  A    between atoms: C_4  and  C_5
REMARK    6  A    between atoms: C_10  and  C_19
REMARK    7  A    between atoms: N_21  and  C_22
REMARK    8  A    between atoms: C_22  and  C_23
REMARK    9  A    between atoms: C_23  and  C_25
REMARK   10  A    between atoms: C_23  and  O_26
REMARK   11  A    between atoms: O_26  and  C_27
REMARK                            x       y       z     vdW  Elec       q    Type
REMARK                         _______ _______ _______ _____ _____    ______ ____
ROOT
ATOM      1  C   UNL     1       0.997  -1.858  -2.599  0.00  0.00    +0.219 C 
ATOM      2  O   UNL     1       1.916  -2.602  -2.870  0.00  0.00    -0.275 OA
ATOM      3  N   UNL     1      -0.228  -2.363  -2.351  0.00  0.00    -0.300 N 
ATOM      4  C   UNL     1      -1.465  -1.621  -2.012  0.00  0.00    +0.121 C 
ATOM      5  C   UNL     1      -2.585  -2.357  -2.780  0.00  0.00    +0.100 C 
ATOM      6  C   UNL     1      -2.040  -3.778  -3.001  0.00  0.00    -0.004 C 
ATOM      7  C   UNL     1      -0.643  -3.786  -2.363  0.00  0.00    +0.115 C 
ATOM      8  C   UNL     1      -1.933  -4.077  -4.494  0.00  0.00    -0.010 C 
ATOM      9  C   UNL     1      -1.443  -5.514  -4.688  0.00  0.00    -0.082 C 
ATOM     10  N   UNL     1      -2.383  -6.444  -4.049  0.00  0.00    +0.379 N 
ATOM     11  C   UNL     1      -2.410  -6.211  -2.600  0.00  0.00    -0.082 C 
ATOM     12  C   UNL     1      -2.940  -4.803  -2.317  0.00  0.00    -0.010 C 
ATOM     13  H   UNL     1      -3.307  -6.300  -4.429  0.00  0.00    -0.086 HD
ATOM     14  H   UNL     1      -2.091  -7.392  -4.230  0.00  0.00    -0.086 HD
ENDROOT
BRANCH   5  15
ATOM     15  C   UNL     1      -3.846  -2.399  -1.955  0.00  0.00    +0.218 C 
ATOM     16  O   UNL     1      -3.782  -2.332  -0.746  0.00  0.00    -0.275 OA
ATOM     17  N   UNL     1      -5.044  -2.511  -2.562  0.00  0.00    -0.312 N 
ATOM     18  H   UNL     1      -5.095  -2.564  -3.529  0.00  0.00    +0.149 HD
BRANCH  17  19
ATOM     19  C   UNL     1      -6.270  -2.551  -1.760  0.00  0.00    +0.148 C 
BRANCH  19  20
ATOM     20  C   UNL     1      -7.481  -2.680  -2.687  0.00  0.00    +0.187 C 
ATOM     21  C   UNL     1      -8.761  -2.723  -1.850  0.00  0.00    +0.053 C 
BRANCH  20  22
ATOM     22  O   UNL     1      -7.527  -1.558  -3.570  0.00  0.00    -0.488 OA
BRANCH  22  23
ATOM     23  C   UNL     1      -8.170  -1.732  -4.755  0.00  0.00    +0.121 A 
ATOM     24  C   UNL     1      -8.150  -0.725  -5.709  0.00  0.00    +0.048 A 
ATOM     25  C   UNL     1      -8.804  -0.902  -6.913  0.00  0.00    +0.042 A 
ATOM     26  C   UNL     1      -9.480  -2.084  -7.167  0.00  0.00    +0.124 A 
ATOM     27  C   UNL     1      -9.501  -3.089  -6.215  0.00  0.00    +0.042 A 
ATOM     28  C   UNL     1      -8.842  -2.917  -5.013  0.00  0.00    +0.048 A 
ATOM     29  F   UNL     1     -10.119  -2.256  -8.345  0.00  0.00    -0.205 F 
ENDBRANCH  22  23
ENDBRANCH  20  22
ENDBRANCH  19  20
ENDBRANCH  17  19
ENDBRANCH   5  15
BRANCH   1  30
ATOM     30  C   UNL     1       1.225  -0.370  -2.538  0.00  0.00    +0.075 C 
BRANCH  30  32
ATOM     31  C   UNL     1       0.985   1.667  -1.111  0.00  0.00    +0.004 C 
ATOM     32  C   UNL     1       0.891   0.141  -1.135  0.00  0.00    +0.009 C 
ENDBRANCH  30  32
BRANCH  30  33
ATOM     33  C   UNL     1       2.690  -0.064  -2.857  0.00  0.00    +0.009 C 
ATOM     34  C   UNL     1       2.980  -0.426  -4.315  0.00  0.00    +0.004 C 
ENDBRANCH  30  33
ENDBRANCH   1  30
TORSDOF 8
