REMARK  Name = ZINC39990625
REMARK  10 active torsions:
REMARK  status: ('A' for Active; 'I' for Inactive)
REMARK    1  A    between atoms: C_1  and  C_2
REMARK    2  A    between atoms: C_2  and  C_4
REMARK    3  A    between atoms: C_2  and  N_15
REMARK    4  A    between atoms: N_6  and  C_7
REMARK    5  A    between atoms: C_12  and  C_13
REMARK    6  A    between atoms: N_15  and  C_16
REMARK    7  A    between atoms: C_16  and  C_18
REMARK    8  A    between atoms: C_16  and  C_28
REMARK    9  A    between atoms: C_28  and  C_29
REMARK   10  A    between atoms: C_28  and  C_30
REMARK                            x       y       z     vdW  Elec       q    Type
REMARK                         _______ _______ _______ _____ _____    ______ ____
ROOT
ATOM      1  N   UNL     1       0.640   0.090  -1.546  0.00  0.00    +0.391 N 
ATOM      2  H   UNL     1       0.778  -0.909  -1.573  0.00  0.00    -0.084 HD
ATOM      3  H   UNL     1      -0.021   0.319  -0.818  0.00  0.00    -0.084 HD
ENDROOT
BRANCH   1   5
ATOM      4  C   UNL     1       2.975   0.259  -2.262  0.00  0.00    -0.004 C 
ATOM      5  C   UNL     1       1.921   0.754  -1.270  0.00  0.00    +0.014 C 
BRANCH   5   6
ATOM      6  C   UNL     1       2.362   0.432   0.134  0.00  0.00    +0.203 C 
ATOM      7  O   UNL     1       1.677  -0.281   0.837  0.00  0.00    -0.277 OA
ATOM      8  N   UNL     1       3.519   0.935   0.610  0.00  0.00    -0.286 N 
ATOM      9  H   UNL     1       4.036   1.555   0.071  0.00  0.00    +0.155 HD
BRANCH   8  10
ATOM     10  C   UNL     1       3.972   0.565   1.875  0.00  0.00    +0.051 A 
ATOM     11  C   UNL     1       3.064   0.277   2.884  0.00  0.00    +0.024 A 
ATOM     12  C   UNL     1       3.515  -0.089   4.137  0.00  0.00    +0.002 A 
ATOM     13  C   UNL     1       4.873  -0.172   4.397  0.00  0.00    +0.001 A 
ATOM     14  C   UNL     1       5.789   0.111   3.407  0.00  0.00    +0.021 A 
ATOM     15  C   UNL     1       5.348   0.477   2.133  0.00  0.00    +0.073 A 
BRANCH  15  16
ATOM     16  C   UNL     1       6.295   0.766   1.098  0.00  0.00    +0.101 C 
ATOM     17  N   UNL     1       7.046   0.996   0.278  0.00  0.00    -0.191 NA
ENDBRANCH  15  16
ENDBRANCH   8  10
ENDBRANCH   5   6
ENDBRANCH   1   5
BRANCH   1  18
ATOM     18  C   UNL     1       0.119   0.549  -2.841  0.00  0.00    -0.037 C 
BRANCH  18  19
ATOM     19  C   UNL     1       0.935  -0.058  -3.953  0.00  0.00    -0.057 A 
ATOM     20  C   UNL     1       1.347  -1.375  -3.868  0.00  0.00    +0.006 A 
ATOM     21  C   UNL     1       2.097  -1.934  -4.885  0.00  0.00    +0.049 A 
ATOM     22  C   UNL     1       2.438  -1.175  -5.995  0.00  0.00    +0.162 A 
ATOM     23  C   UNL     1       2.022   0.148  -6.082  0.00  0.00    +0.162 A 
ATOM     24  C   UNL     1       1.266   0.702  -5.059  0.00  0.00    +0.051 A 
ATOM     25  O   UNL     1       2.339   0.908  -7.165  0.00  0.00    -0.485 OA
ATOM     26  C   UNL     1       3.404   0.432  -7.996  0.00  0.00    +0.270 C 
ATOM     27  C   UNL     1       3.182  -1.065  -8.250  0.00  0.00    +0.270 C 
ATOM     28  O   UNL     1       3.180  -1.739  -6.987  0.00  0.00    -0.485 OA
ENDBRANCH  18  19
BRANCH  18  29
ATOM     29  C   UNL     1      -1.341   0.116  -2.985  0.00  0.00    -0.027 C 
ATOM     30  C   UNL     1      -1.449  -1.395  -2.768  0.00  0.00    +0.006 C 
ATOM     31  C   UNL     1      -2.194   0.844  -1.944  0.00  0.00    +0.006 C 
ENDBRANCH  18  29
ENDBRANCH   1  18
TORSDOF 7
