REMARK  Name = ZINC06282127
REMARK  9 active torsions:
REMARK  status: ('A' for Active; 'I' for Inactive)
REMARK    1  A    between atoms: C_1  and  C_2
REMARK    2  A    between atoms: C_7  and  C_14
REMARK    3  A    between atoms: C_14  and  C_16
REMARK    4  A    between atoms: C_14  and  N_71
REMARK    5  A    between atoms: N_20  and  C_21
REMARK    6  A    between atoms: C_21  and  C_22
REMARK    7  A    between atoms: N_30  and  C_33
REMARK    8  A    between atoms: C_38  and  O_39
REMARK    9  A    between atoms: O_39  and  C_40
REMARK                            x       y       z     vdW  Elec       q    Type
REMARK                         _______ _______ _______ _____ _____    ______ ____
ROOT
ATOM      1  C   UNL     1       2.821   4.777   1.890  0.00  0.00    +0.039 C 
ENDROOT
BRANCH   1   8
ATOM      2  C   UNL     1       4.075   0.393   8.435  0.00  0.00    +0.044 C 
ATOM      3  C   UNL     1       3.977   1.067   7.090  0.00  0.00    -0.048 A 
ATOM      4  C   UNL     1       4.657   0.534   6.004  0.00  0.00    +0.004 A 
ATOM      5  C   UNL     1       4.582   1.130   4.777  0.00  0.00    +0.010 A 
ATOM      6  C   UNL     1       3.812   2.287   4.614  0.00  0.00    -0.001 A 
ATOM      7  C   UNL     1       3.709   2.951   3.313  0.00  0.00    +0.017 A 
ATOM      8  C   UNL     1       2.949   4.069   3.215  0.00  0.00    +0.011 A 
ATOM      9  C   UNL     1       2.280   4.576   4.350  0.00  0.00    +0.251 A 
ATOM     10  O   UNL     1       1.606   5.585   4.241  0.00  0.00    -0.268 OA
ATOM     11  N   UNL     1       2.364   3.970   5.547  0.00  0.00    -0.322 N 
ATOM     12  H   UNL     1       1.889   4.343   6.306  0.00  0.00    +0.169 HD
ATOM     13  C   UNL     1       3.121   2.829   5.713  0.00  0.00    +0.049 A 
ATOM     14  C   UNL     1       3.213   2.206   6.953  0.00  0.00    +0.029 A 
ENDBRANCH   1   8
BRANCH   1  20
ATOM     15  C   UNL     1       3.098   6.908   0.774  0.00  0.00    -0.058 C 
ATOM     16  C   UNL     1       3.419   8.388   1.000  0.00  0.00    +0.086 C 
ATOM     17  N   UNL     1       4.769   8.512   1.569  0.00  0.00    -0.331 N 
ATOM     18  C   UNL     1       4.867   7.792   2.846  0.00  0.00    +0.086 C 
ATOM     19  C   UNL     1       4.546   6.313   2.621  0.00  0.00    -0.058 C 
ATOM     20  N   UNL     1       3.179   6.200   2.069  0.00  0.00    +0.391 N 
ATOM     21  H   UNL     1       2.518   6.630   2.726  0.00  0.00    -0.080 HD
BRANCH  17  22
ATOM     22  C   UNL     1       5.126   9.857   1.722  0.00  0.00    +0.072 A 
ATOM     23  C   UNL     1       4.177  10.853   1.548  0.00  0.00    +0.027 A 
ATOM     24  C   UNL     1       4.532  12.180   1.700  0.00  0.00    +0.002 A 
ATOM     25  C   UNL     1       5.833  12.518   2.026  0.00  0.00    +0.004 A 
ATOM     26  C   UNL     1       6.784  11.530   2.201  0.00  0.00    +0.047 A 
ATOM     27  C   UNL     1       6.435  10.198   2.056  0.00  0.00    +0.141 A 
BRANCH  27  28
ATOM     28  O   UNL     1       7.369   9.225   2.234  0.00  0.00    -0.493 OA
ATOM     29  C   UNL     1       8.690   9.649   2.575  0.00  0.00    +0.277 C 
ENDBRANCH  27  28
ENDBRANCH  17  22
ENDBRANCH   1  20
BRANCH   1  30
ATOM     30  C   UNL     1       1.397   4.688   1.408  0.00  0.00    +0.143 A 
ATOM     31  N   UNL     1       0.372   5.366   1.865  0.00  0.00    -0.115 NA
ATOM     32  N   UNL     1      -0.671   5.009   1.197  0.00  0.00    -0.023 NA
ATOM     33  N   UNL     1      -0.337   4.125   0.322  0.00  0.00    -0.044 NA
ATOM     34  N   UNL     1       0.929   3.896   0.425  0.00  0.00    -0.228 N 
BRANCH  34  35
ATOM     35  C   UNL     1       1.711   2.956  -0.381  0.00  0.00    +0.178 C 
BRANCH  35  36
ATOM     36  C   UNL     1       1.723   1.586   0.301  0.00  0.00    +0.140 C 
ATOM     37  C   UNL     1       2.556   0.573  -0.524  0.00  0.00    +0.035 C 
ATOM     38  C   UNL     1       1.948  -0.781  -0.083  0.00  0.00    +0.031 C 
ATOM     39  C   UNL     1       0.561  -0.409   0.474  0.00  0.00    +0.160 C 
ATOM     40  O   UNL     1       0.400   1.010   0.307  0.00  0.00    -0.375 OA
ENDBRANCH  35  36
ENDBRANCH  34  35
ENDBRANCH   1  30
TORSDOF 7
