REMARK  Name = ZINC57503226
REMARK  5 active torsions:
REMARK  status: ('A' for Active; 'I' for Inactive)
REMARK    1  A    between atoms: C_3  and  C_21
REMARK    2  A    between atoms: N_6  and  C_11
REMARK    3  A    between atoms: C_11  and  C_12
REMARK    4  A    between atoms: N_14  and  C_15
REMARK    5  A    between atoms: C_23  and  C_26
REMARK                            x       y       z     vdW  Elec       q    Type
REMARK                         _______ _______ _______ _____ _____    ______ ____
ROOT
ATOM      1  C   UNL     1      -0.016   1.342   0.009  0.00  0.00    +0.019 A 
ATOM      2  C   UNL     1       1.170   2.089   0.002  0.00  0.00    +0.018 A 
ATOM      3  C   UNL     1       2.389   1.432  -0.013  0.00  0.00    +0.084 A 
ATOM      4  C   UNL     1       2.387  -0.040  -0.021  0.00  0.00    +0.174 A 
ATOM      5  N   UNL     1       3.352  -0.922  -0.035  0.00  0.00    -0.148 NA
ATOM      6  N   UNL     1       2.771  -2.198  -0.036  0.00  0.00    -0.203 N 
ATOM      7  C   UNL     1       1.431  -2.034  -0.022  0.00  0.00    +0.351 A 
ATOM      8  O   UNL     1       0.600  -2.925  -0.018  0.00  0.00    -0.244 OA
ATOM      9  N   UNL     1       1.177  -0.710  -0.013  0.00  0.00    -0.250 N 
ATOM     10  C   UNL     1       0.002  -0.004   0.002  0.00  0.00    +0.098 A 
ENDROOT
BRANCH   3  11
ATOM     11  C   UNL     1       3.653   2.186  -0.021  0.00  0.00    +0.262 A 
ATOM     12  N   UNL     1       3.770   3.496  -0.011  0.00  0.00    -0.187 NA
ATOM     13  C   UNL     1       5.067   3.838  -0.024  0.00  0.00    +0.202 A 
ATOM     14  N   UNL     1       5.794   2.747  -0.043  0.00  0.00    -0.056 NA
ATOM     15  O   UNL     1       4.889   1.654  -0.036  0.00  0.00    -0.332 OA
BRANCH  13  16
ATOM     16  C   UNL     1       5.593   5.226  -0.017  0.00  0.00    +0.023 A 
ATOM     17  C   UNL     1       4.714   6.307   0.009  0.00  0.00    +0.013 A 
ATOM     18  C   UNL     1       5.208   7.595   0.016  0.00  0.00    +0.021 A 
ATOM     19  C   UNL     1       6.575   7.815  -0.005  0.00  0.00    +0.041 A 
ATOM     20  C   UNL     1       7.452   6.744  -0.031  0.00  0.00    +0.021 A 
ATOM     21  C   UNL     1       6.968   5.452  -0.032  0.00  0.00    +0.013 A 
ATOM     22 CL   UNL     1       7.191   9.438   0.002  0.00  0.00    -0.084 Cl
ENDBRANCH  13  16
ENDBRANCH   3  11
BRANCH   6  23
ATOM     23  C   UNL     1       3.486  -3.476  -0.050  0.00  0.00    +0.244 C 
BRANCH  23  24
ATOM     24  C   UNL     1       3.719  -3.906  -1.476  0.00  0.00    +0.235 C 
ATOM     25  O   UNL     1       3.325  -3.213  -2.390  0.00  0.00    -0.274 OA
ATOM     26  N   UNL     1       4.364  -5.061  -1.735  0.00  0.00    -0.311 N 
ATOM     27  H   UNL     1       4.679  -5.615  -1.004  0.00  0.00    +0.149 HD
BRANCH  26  28
ATOM     28  C   UNL     1       4.589  -5.479  -3.120  0.00  0.00    +0.073 C 
ATOM     29  C   UNL     1       5.863  -4.818  -3.652  0.00  0.00    +0.022 C 
ATOM     30  C   UNL     1       6.099  -5.255  -5.099  0.00  0.00    +0.002 C 
ATOM     31  C   UNL     1       6.252  -6.776  -5.154  0.00  0.00    +0.000 C 
ATOM     32  C   UNL     1       4.978  -7.437  -4.623  0.00  0.00    +0.002 C 
ATOM     33  C   UNL     1       4.742  -7.000  -3.176  0.00  0.00    +0.022 C 
ENDBRANCH  26  28
ENDBRANCH  23  24
ENDBRANCH   6  23
TORSDOF 5
