REMARK  Name = ZINC39359541
REMARK  8 active torsions:
REMARK  status: ('A' for Active; 'I' for Inactive)
REMARK    1  A    between atoms: C_1  and  O_2
REMARK    2  A    between atoms: O_2  and  C_3
REMARK    3  A    between atoms: C_6  and  C_11
REMARK    4  A    between atoms: C_8  and  O_9
REMARK    5  A    between atoms: O_9  and  C_10
REMARK    6  A    between atoms: C_26  and  N_37
REMARK    7  A    between atoms: C_27  and  S_28
REMARK    8  A    between atoms: S_28  and  C_31
REMARK                            x       y       z     vdW  Elec       q    Type
REMARK                         _______ _______ _______ _____ _____    ______ ____
ROOT
ATOM      1  C   UNL     1      -4.841  -1.815   0.399  0.00  0.00    +0.092 C 
ATOM      2  C   UNL     1      -5.697  -1.646   1.659  0.00  0.00    +0.155 C 
ATOM      3  C   UNL     1      -6.781  -2.706   1.550  0.00  0.00    +0.129 C 
ATOM      4  C   UNL     1      -6.878  -3.647   2.565  0.00  0.00    +0.035 A 
ATOM      5  C   UNL     1      -7.872  -4.646   2.546  0.00  0.00    +0.013 A 
ATOM      6  C   UNL     1      -7.940  -5.547   3.563  0.00  0.00    +0.001 A 
ATOM      7  C   UNL     1      -7.045  -5.505   4.628  0.00  0.00    +0.002 A 
ATOM      8  C   UNL     1      -6.060  -4.565   4.700  0.00  0.00    +0.024 A 
ATOM      9  C   UNL     1      -5.929  -3.605   3.684  0.00  0.00    +0.044 A 
ATOM     10  N   UNL     1      -4.955  -2.688   3.750  0.00  0.00    -0.284 N 
ATOM     11  C   UNL     1      -4.768  -1.723   2.849  0.00  0.00    +0.229 C 
ATOM     12  O   UNL     1      -3.864  -0.917   2.969  0.00  0.00    -0.275 OA
ATOM     13  O   UNL     1      -7.575  -2.692   0.478  0.00  0.00    -0.443 OA
ATOM     14  C   UNL     1      -6.982  -2.417  -0.712  0.00  0.00    +0.206 C 
ATOM     15  C   UNL     1      -5.732  -2.006  -0.797  0.00  0.00    +0.136 C 
ATOM     16  H   UNL     1      -4.348  -2.722   4.506  0.00  0.00    +0.155 HD
ENDROOT
BRANCH   1  20
ATOM     17  C   UNL     1      -2.436   1.676  -0.162  0.00  0.00    +0.162 A 
ATOM     18  C   UNL     1      -3.816   1.762  -0.243  0.00  0.00    +0.050 A 
ATOM     19  C   UNL     1      -4.591   0.631  -0.062  0.00  0.00    +0.008 A 
ATOM     20  C   UNL     1      -3.992  -0.586   0.202  0.00  0.00    -0.034 A 
ATOM     21  C   UNL     1      -2.615  -0.679   0.284  0.00  0.00    +0.053 A 
ATOM     22  C   UNL     1      -1.832   0.449   0.097  0.00  0.00    +0.162 A 
BRANCH  17  24
ATOM     23  C   UNL     1      -2.361   4.029  -0.495  0.00  0.00    +0.277 C 
ATOM     24  O   UNL     1      -1.672   2.787  -0.341  0.00  0.00    -0.491 OA
ENDBRANCH  17  24
BRANCH  22  25
ATOM     25  O   UNL     1      -0.477   0.358   0.172  0.00  0.00    -0.491 OA
ATOM     26  C   UNL     1       0.073  -0.933   0.441  0.00  0.00    +0.277 C 
ENDBRANCH  22  25
ENDBRANCH   1  20
BRANCH  15  27
ATOM     27  S   UNL     1      -5.072  -1.663  -2.395  0.00  0.00    +0.027 S 
ATOM     28  O   UNL     1      -6.128  -1.099  -3.158  0.00  0.00    -0.164 OA
ATOM     29  O   UNL     1      -3.837  -0.991  -2.188  0.00  0.00    -0.164 OA
BRANCH  27  30
ATOM     30  C   UNL     1      -4.683  -3.212  -3.140  0.00  0.00    +0.093 A 
ATOM     31  C   UNL     1      -3.500  -3.853  -2.826  0.00  0.00    +0.027 A 
ATOM     32  C   UNL     1      -3.195  -5.068  -3.411  0.00  0.00    +0.002 A 
ATOM     33  C   UNL     1      -4.074  -5.642  -4.310  0.00  0.00    +0.000 A 
ATOM     34  C   UNL     1      -5.258  -5.001  -4.624  0.00  0.00    +0.002 A 
ATOM     35  C   UNL     1      -5.565  -3.788  -4.035  0.00  0.00    +0.027 A 
ENDBRANCH  27  30
ENDBRANCH  15  27
BRANCH  14  36
ATOM     36  N   UNL     1      -7.718  -2.572  -1.881  0.00  0.00    -0.328 N 
ATOM     37  H   UNL     1      -8.681  -2.679  -1.836  0.00  0.00    +0.145 HD
ATOM     38  H   UNL     1      -7.269  -2.573  -2.740  0.00  0.00    +0.145 HD
ENDBRANCH  14  36
TORSDOF 6
