REMARK  Name = ZINC27477880
REMARK  7 active torsions:
REMARK  status: ('A' for Active; 'I' for Inactive)
REMARK    1  A    between atoms: C_3  and  C_13
REMARK    2  A    between atoms: C_5  and  N_7
REMARK    3  A    between atoms: C_8  and  C_10
REMARK    4  A    between atoms: C_13  and  N_14
REMARK    5  A    between atoms: C_15  and  C_17
REMARK    6  A    between atoms: C_17  and  N_18
REMARK    7  A    between atoms: C_26  and  C_28
REMARK                            x       y       z     vdW  Elec       q    Type
REMARK                         _______ _______ _______ _____ _____    ______ ____
ROOT
ATOM      1  N   UNL     1       3.135   3.946  -4.536  0.00  0.00    -0.313 N 
ATOM      2  C   UNL     1       3.265   4.079  -3.201  0.00  0.00    +0.197 C 
ATOM      3  O   UNL     1       4.174   4.739  -2.743  0.00  0.00    -0.278 OA
ATOM      4  H   UNL     1       2.311   3.347  -4.951  0.00  0.00    +0.149 HD
ENDROOT
BRANCH   1   5
ATOM      5  C   UNL     1       4.091   4.598  -5.434  0.00  0.00    +0.139 C 
BRANCH   5   8
ATOM      6  C   UNL     1       3.919   2.897  -8.801  0.00  0.00    +0.002 A 
ATOM      7  C   UNL     1       4.256   3.182  -7.491  0.00  0.00    +0.005 A 
ATOM      8  C   UNL     1       3.725   4.294  -6.864  0.00  0.00    -0.029 A 
ATOM      9  C   UNL     1       2.865   5.130  -7.548  0.00  0.00    +0.028 A 
ATOM     10  C   UNL     1       2.529   4.850  -8.866  0.00  0.00    +0.034 A 
ATOM     11  C   UNL     1       3.059   3.729  -9.491  0.00  0.00    +0.023 A 
BRANCH  10  12
ATOM     12  N   UNL     1       1.658   5.695  -9.562  0.00  0.00    -0.285 N 
ATOM     13  C   UNL     1       0.793   5.180 -10.459  0.00  0.00    +0.220 C 
ATOM     14  O   UNL     1       0.824   3.997 -10.721  0.00  0.00    -0.275 OA
ATOM     15  H   UNL     1       1.679   6.779  -9.378  0.00  0.00    +0.155 HD
BRANCH  13  16
ATOM     16  C   UNL     1      -0.213   6.076 -11.134  0.00  0.00    +0.075 C 
ATOM     17  C   UNL     1      -1.688   5.880 -10.774  0.00  0.00    +0.013 C 
ATOM     18  C   UNL     1      -1.168   5.432 -12.142  0.00  0.00    +0.013 C 
ENDBRANCH  13  16
ENDBRANCH  10  12
ENDBRANCH   5   8
ENDBRANCH   1   5
BRANCH   2  19
ATOM     19  C   UNL     1       2.281   3.408  -2.277  0.00  0.00    +0.020 C 
BRANCH  19  20
ATOM     20  N   UNL     1       2.568   3.797  -0.890  0.00  0.00    +0.393 N 
ATOM     21  C   UNL     1       3.918   3.371  -0.492  0.00  0.00    -0.072 C 
ATOM     22  C   UNL     1       4.021   3.420   1.041  0.00  0.00    +0.024 C 
ATOM     23  C   UNL     1       3.452   4.725   1.495  0.00  0.00    -0.010 A 
ATOM     24  C   UNL     1       2.699   5.585   0.754  0.00  0.00    -0.046 A 
ATOM     25  C   UNL     1       2.278   6.750   1.390  0.00  0.00    +0.010 A 
ATOM     26  C   UNL     1       2.620   6.978   2.680  0.00  0.00    +0.045 A 
ATOM     27  S   UNL     1       3.579   5.521   3.070  0.00  0.00    -0.101 S 
ATOM     28  C   UNL     1       2.364   5.238  -0.694  0.00  0.00    +0.002 C 
ATOM     29  H   UNL     1       1.857   3.277  -0.232  0.00  0.00    -0.080 HD
BRANCH  28  30
ATOM     30  C   UNL     1       0.926   5.588  -0.979  0.00  0.00    -0.019 A 
ATOM     31  C   UNL     1       0.422   6.678  -1.607  0.00  0.00    +0.010 A 
ATOM     32  C   UNL     1      -0.948   6.791  -1.757  0.00  0.00    +0.008 A 
ATOM     33  C   UNL     1      -1.745   5.808  -1.273  0.00  0.00    +0.045 A 
ATOM     34  S   UNL     1      -0.554   4.675  -0.576  0.00  0.00    -0.103 S 
ENDBRANCH  28  30
ENDBRANCH  19  20
ENDBRANCH   2  19
TORSDOF 7
