REMARK  Name = ZINC08928037
REMARK  8 active torsions:
REMARK  status: ('A' for Active; 'I' for Inactive)
REMARK    1  A    between atoms: C_1  and  C_2
REMARK    2  A    between atoms: C_2  and  N_55
REMARK    3  A    between atoms: C_10  and  O_31
REMARK    4  A    between atoms: C_12  and  C_15
REMARK    5  A    between atoms: C_19  and  O_21
REMARK    6  A    between atoms: O_21  and  C_22
REMARK    7  A    between atoms: C_22  and  C_24
REMARK    8  A    between atoms: C_25  and  C_26
REMARK                            x       y       z     vdW  Elec       q    Type
REMARK                         _______ _______ _______ _____ _____    ______ ____
ROOT
ATOM      1  C   UNL     1       1.489  -4.211   1.636  0.00  0.00    -0.074 C 
ATOM      2  C   UNL     1       2.135  -2.855   1.338  0.00  0.00    +0.018 C 
ATOM      3  C   UNL     1       1.055  -1.921   0.803  0.00  0.00    -0.027 A 
ATOM      4  C   UNL     1      -0.109  -2.432   0.333  0.00  0.00    -0.021 A 
ATOM      5  S   UNL     1      -1.053  -1.021  -0.174  0.00  0.00    -0.080 S 
ATOM      6  C   UNL     1       0.067   0.208   0.230  0.00  0.00    +0.080 A 
ATOM      7  C   UNL     1       1.173  -0.477   0.752  0.00  0.00    +0.067 A 
ATOM      8  C   UNL     1       2.336   0.340   1.186  0.00  0.00    +0.220 C 
ATOM      9  N   UNL     1       2.339   1.607   0.876  0.00  0.00    -0.223 NA
ATOM     10  C   UNL     1       1.334   2.263   0.049  0.00  0.00    +0.224 C 
ATOM     11  N   UNL     1       0.031   1.577   0.127  0.00  0.00    -0.313 N 
ATOM     12  C   UNL     1      -0.483  -3.879   0.269  0.00  0.00    -0.035 C 
ATOM     13  H   UNL     1      -0.807   2.066   0.103  0.00  0.00    +0.149 HD
ATOM     14  N   UNL     1       0.755  -4.678   0.442  0.00  0.00    +0.383 N 
ATOM     15  H   UNL     1       1.350  -4.555  -0.386  0.00  0.00    -0.081 HD
ENDROOT
BRANCH  10  16
ATOM     16  C   UNL     1       1.802   2.266  -1.383  0.00  0.00    -0.002 A 
ATOM     17  C   UNL     1       0.878   2.273  -2.413  0.00  0.00    +0.007 A 
ATOM     18  C   UNL     1       1.305   2.282  -3.728  0.00  0.00    +0.004 A 
ATOM     19  C   UNL     1       2.656   2.271  -4.017  0.00  0.00    +0.046 A 
ATOM     20  C   UNL     1       3.584   2.257  -2.987  0.00  0.00    +0.132 A 
ATOM     21  C   UNL     1       3.154   2.255  -1.668  0.00  0.00    +0.053 A 
BRANCH  20  22
ATOM     22  O   UNL     1       4.914   2.247  -3.269  0.00  0.00    -0.423 OA
BRANCH  22  23
ATOM     23  C   UNL     1       5.612   1.125  -2.994  0.00  0.00    +0.337 C 
ATOM     24  O   UNL     1       5.031   0.127  -2.607  0.00  0.00    -0.245 OA
BRANCH  23  25
ATOM     25  C   UNL     1       7.015   1.107  -3.156  0.00  0.00    +0.095 C 
ATOM     26  C   UNL     1       7.716  -0.022  -2.880  0.00  0.00    +0.053 C 
BRANCH  26  27
ATOM     27  C   UNL     1       9.122  -0.039  -3.042  0.00  0.00    +0.128 A 
ATOM     28  C   UNL     1       9.956  -1.110  -2.794  0.00  0.00    +0.049 A 
ATOM     29  C   UNL     1      11.258  -0.679  -3.092  0.00  0.00    +0.042 A 
ATOM     30  C   UNL     1      11.171   0.609  -3.492  0.00  0.00    +0.195 A 
ATOM     31  O   UNL     1       9.887   0.991  -3.461  0.00  0.00    -0.464 OA
ENDBRANCH  26  27
ENDBRANCH  23  25
ENDBRANCH  22  23
ENDBRANCH  20  22
ENDBRANCH  10  16
BRANCH  14  33
ATOM     32  C   UNL     1      -0.382  -6.348   1.866  0.00  0.00    -0.017 C 
ATOM     33  C   UNL     1       0.417  -6.110   0.583  0.00  0.00    -0.082 C 
ENDBRANCH  14  33
BRANCH   8  34
ATOM     34  O   UNL     1       3.358  -0.213   1.879  0.00  0.00    -0.492 OA
ATOM     35  H   UNL     1       4.060   0.411   2.109  0.00  0.00    +0.294 HD
ENDBRANCH   8  34
TORSDOF 7
