REMARK  Name = ZINC39711024
REMARK  9 active torsions:
REMARK  status: ('A' for Active; 'I' for Inactive)
REMARK    1  A    between atoms: C_1  and  C_2
REMARK    2  A    between atoms: C_4  and  C_32
REMARK    3  A    between atoms: C_9  and  C_14
REMARK    4  A    between atoms: C_14  and  C_16
REMARK    5  A    between atoms: C_14  and  N_26
REMARK    6  A    between atoms: N_21  and  C_22
REMARK    7  A    between atoms: C_22  and  C_23
REMARK    8  A    between atoms: C_22  and  C_24
REMARK    9  A    between atoms: C_22  and  C_25
REMARK                            x       y       z     vdW  Elec       q    Type
REMARK                         _______ _______ _______ _____ _____    ______ ____
ROOT
ATOM      1  C   UNL     1       1.528  -4.435   2.734  0.00  0.00    -0.011 C 
ENDROOT
BRANCH   1  10
ATOM      2  C   UNL     1       3.336   1.940   0.071  0.00  0.00    +0.044 C 
ATOM      3  C   UNL     1       2.643   0.603   0.010  0.00  0.00    -0.050 A 
ATOM      4  C   UNL     1       2.319   0.058  -1.233  0.00  0.00    +0.008 A 
ATOM      5  C   UNL     1       1.695  -1.141  -1.367  0.00  0.00    -0.028 A 
ATOM      6  C   UNL     1       1.345  -1.895  -0.232  0.00  0.00    +0.043 A 
ATOM      7  N   UNL     1       0.734  -3.071  -0.376  0.00  0.00    -0.284 N 
ATOM      8  C   UNL     1       0.378  -3.830   0.647  0.00  0.00    +0.223 C 
ATOM      9  O   UNL     1      -0.178  -4.894   0.453  0.00  0.00    -0.275 OA
ATOM     10  C   UNL     1       0.664  -3.369   2.058  0.00  0.00    +0.088 C 
ATOM     11  C   UNL     1       1.360  -2.032   2.227  0.00  0.00    -0.006 C 
ATOM     12  C   UNL     1       1.676  -1.344   1.093  0.00  0.00    -0.007 A 
ATOM     13  C   UNL     1       2.353  -0.049   1.165  0.00  0.00    +0.012 A 
ATOM     14  C   UNL     1       1.375  -1.667  -2.743  0.00  0.00    +0.046 C 
ATOM     15  H   UNL     1       0.541  -3.385  -1.274  0.00  0.00    +0.155 HD
ENDBRANCH   1  10
BRANCH   1  16
ATOM     16  N   UNL     1       0.803  -5.713   2.752  0.00  0.00    +0.385 N 
ATOM     17  C   UNL     1      -0.531  -5.509   3.330  0.00  0.00    -0.078 C 
ATOM     18  C   UNL     1      -1.320  -6.819   3.277  0.00  0.00    -0.019 C 
ATOM     19  C   UNL     1      -0.574  -7.890   4.077  0.00  0.00    -0.004 C 
ATOM     20  C   UNL     1       0.842  -8.042   3.513  0.00  0.00    -0.019 C 
ATOM     21  C   UNL     1       1.551  -6.686   3.557  0.00  0.00    -0.078 C 
ATOM     22  H   UNL     1       0.710  -6.059   1.809  0.00  0.00    -0.081 HD
ENDBRANCH   1  16
BRANCH   1  23
ATOM     23  C   UNL     1       2.835  -4.601   1.957  0.00  0.00    +0.183 C 
ATOM     24  N   UNL     1       2.627  -5.436   0.758  0.00  0.00    -0.229 N 
ATOM     25  N   UNL     1       3.444  -6.560   0.928  0.00  0.00    -0.064 NA
ATOM     26  N   UNL     1       4.074  -6.533   1.981  0.00  0.00    -0.061 NA
ATOM     27  N   UNL     1       3.813  -5.380   2.740  0.00  0.00    -0.211 N 
ATOM     28  H   UNL     1       2.044  -5.245   0.007  0.00  0.00    +0.172 HD
BRANCH  27  29
ATOM     29  C   UNL     1       4.389  -5.024   4.038  0.00  0.00    +0.047 C 
ATOM     30  C   UNL     1       3.334  -5.203   5.131  0.00  0.00    +0.033 C 
ATOM     31  C   UNL     1       5.586  -5.930   4.331  0.00  0.00    +0.033 C 
ATOM     32  C   UNL     1       4.850  -3.565   4.008  0.00  0.00    +0.033 C 
ENDBRANCH  27  29
ENDBRANCH   1  23
TORSDOF 4
