REMARK  Name = ZINC14195956
REMARK  9 active torsions:
REMARK  status: ('A' for Active; 'I' for Inactive)
REMARK    1  A    between atoms: C_1  and  C_2
REMARK    2  A    between atoms: C_2  and  C_3
REMARK    3  A    between atoms: C_2  and  C_4
REMARK    4  A    between atoms: C_2  and  C_5
REMARK    5  A    between atoms: C_12  and  N_16
REMARK    6  A    between atoms: C_13  and  C_14
REMARK    7  A    between atoms: C_17  and  C_19
REMARK    8  A    between atoms: C_19  and  N_20
REMARK    9  A    between atoms: N_23  and  C_26
REMARK                            x       y       z     vdW  Elec       q    Type
REMARK                         _______ _______ _______ _____ _____    ______ ____
ROOT
ATOM      1  N   UNL     1       5.689  -1.799  -5.018  0.00  0.00    -0.278 N 
ATOM      2  C   UNL     1       6.739  -0.955  -5.064  0.00  0.00    +0.232 C 
ATOM      3  O   UNL     1       6.771   0.014  -4.335  0.00  0.00    -0.274 OA
ATOM      4  H   UNL     1       5.663  -2.574  -5.601  0.00  0.00    +0.155 HD
ENDROOT
BRANCH   1  11
ATOM      5  C   UNL     1       0.718  -0.497  -1.257  0.00  0.00    -0.000 C 
ATOM      6  C   UNL     1       0.745  -2.029  -1.264  0.00  0.00    +0.009 C 
ATOM      7  C   UNL     1       1.234  -2.534  -2.624  0.00  0.00    +0.037 C 
ATOM      8  C   UNL     1       2.546  -1.841  -2.959  0.00  0.00    -0.018 A 
ATOM      9  C   UNL     1       2.920  -0.705  -2.331  0.00  0.00    -0.004 A 
ATOM     10  S   UNL     1       4.483  -0.290  -3.048  0.00  0.00    -0.077 S 
ATOM     11  C   UNL     1       4.644  -1.558  -4.136  0.00  0.00    +0.090 A 
ATOM     12  C   UNL     1       3.495  -2.309  -3.953  0.00  0.00    +0.084 A 
ATOM     13  C   UNL     1       2.161   0.028  -1.267  0.00  0.00    +0.047 C 
BRANCH   5  15
ATOM     14  C   UNL     1      -0.019   1.526   0.010  0.00  0.00    +0.011 C 
ATOM     15  C   UNL     1       0.002  -0.004   0.002  0.00  0.00    -0.035 C 
ATOM     16  C   UNL     1       0.742  -0.511   1.242  0.00  0.00    +0.011 C 
ATOM     17  C   UNL     1      -1.433  -0.534   0.013  0.00  0.00    +0.011 C 
ENDBRANCH   5  15
BRANCH  12  18
ATOM     18  C   UNL     1       3.253  -3.499  -4.712  0.00  0.00    +0.102 C 
ATOM     19  N   UNL     1       3.061  -4.443  -5.314  0.00  0.00    -0.191 NA
ENDBRANCH  12  18
ENDBRANCH   1  11
BRANCH   2  20
ATOM     20  C   UNL     1       7.874  -1.216  -6.021  0.00  0.00    +0.181 C 
BRANCH  20  21
ATOM     21  N   UNL     1       8.886  -0.162  -5.879  0.00  0.00    -0.291 NA
ATOM     22  C   UNL     1       8.354   1.140  -6.303  0.00  0.00    +0.104 C 
ATOM     23  C   UNL     1       9.372   2.237  -5.972  0.00  0.00    +0.120 C 
ATOM     24  N   UNL     1      10.665   1.869  -6.568  0.00  0.00    -0.325 N 
ATOM     25  C   UNL     1      11.199   0.526  -6.299  0.00  0.00    +0.120 C 
ATOM     26  C   UNL     1      10.110  -0.504  -6.618  0.00  0.00    +0.104 C 
BRANCH  24  27
ATOM     27  C   UNL     1      11.369   2.774  -7.369  0.00  0.00    +0.065 A 
ATOM     28  C   UNL     1      12.291   3.640  -6.796  0.00  0.00    +0.026 A 
ATOM     29  C   UNL     1      12.985   4.532  -7.590  0.00  0.00    +0.002 A 
ATOM     30  C   UNL     1      12.763   4.565  -8.955  0.00  0.00    +0.003 A 
ATOM     31  C   UNL     1      11.846   3.705  -9.530  0.00  0.00    +0.040 A 
ATOM     32  C   UNL     1      11.152   2.805  -8.742  0.00  0.00    +0.144 A 
ATOM     33  F   UNL     1      10.260   1.961  -9.305  0.00  0.00    -0.204 F 
ENDBRANCH  24  27
ENDBRANCH  20  21
ENDBRANCH   2  20
TORSDOF 6
