REMARK  Name = ZINC48867496
REMARK  6 active torsions:
REMARK  status: ('A' for Active; 'I' for Inactive)
REMARK    1  A    between atoms: C_1  and  C_2
REMARK    2  A    between atoms: C_2  and  C_26
REMARK    3  A    between atoms: C_8  and  O_11
REMARK    4  A    between atoms: O_11  and  C_12
REMARK    5  A    between atoms: C_12  and  C_14
REMARK    6  A    between atoms: C_14  and  N_15
REMARK                            x       y       z     vdW  Elec       q    Type
REMARK                         _______ _______ _______ _____ _____    ______ ____
ROOT
ATOM      1  C   UNL     1       4.103  -0.967   3.738  0.00  0.00    +0.331 C 
ATOM      2  O   UNL     1       5.182  -1.111   3.214  0.00  0.00    -0.249 OA
ENDROOT
BRANCH   1   3
ATOM      3  O   UNL     1       3.016  -0.742   2.983  0.00  0.00    -0.421 OA
BRANCH   3  11
ATOM      4  C   UNL     1       1.160  -4.318   0.347  0.00  0.00    +0.056 C 
ATOM      5  C   UNL     1       2.682  -4.195   0.438  0.00  0.00    +0.109 C 
ATOM      6  C   UNL     1       3.254  -3.510  -0.826  0.00  0.00    +0.086 C 
ATOM      7  C   UNL     1       3.296  -2.055  -0.403  0.00  0.00    +0.002 A 
ATOM      8  C   UNL     1       3.437  -0.887  -1.121  0.00  0.00    +0.007 A 
ATOM      9  C   UNL     1       3.436   0.333  -0.468  0.00  0.00    +0.004 A 
ATOM     10  C   UNL     1       3.293   0.377   0.906  0.00  0.00    +0.050 A 
ATOM     11  C   UNL     1       3.155  -0.793   1.631  0.00  0.00    +0.173 A 
ATOM     12  C   UNL     1       3.159  -2.028   0.977  0.00  0.00    +0.167 A 
ATOM     13  O   UNL     1       3.058  -3.287   1.488  0.00  0.00    -0.482 OA
ATOM     14  C   UNL     1       3.323  -5.567   0.653  0.00  0.00    +0.056 C 
ENDBRANCH   3  11
ENDBRANCH   1   3
BRANCH   1  15
ATOM     15  C   UNL     1       3.977  -1.040   5.237  0.00  0.00    +0.238 C 
BRANCH  15  16
ATOM     16  N   UNL     1       5.294  -1.293   5.827  0.00  0.00    -0.213 N 
ATOM     17  C   UNL     1       5.799  -2.524   6.058  0.00  0.00    +0.247 C 
ATOM     18  O   UNL     1       5.271  -3.591   5.828  0.00  0.00    -0.273 OA
ATOM     19  C   UNL     1       7.159  -2.288   6.663  0.00  0.00    +0.113 C 
ATOM     20  C   UNL     1       8.263  -2.914   5.800  0.00  0.00    +0.035 C 
ATOM     21  C   UNL     1       9.313  -3.403   6.831  0.00  0.00    +0.003 C 
ATOM     22  C   UNL     1       8.435  -3.910   8.003  0.00  0.00    +0.003 C 
ATOM     23  C   UNL     1       7.261  -2.907   8.059  0.00  0.00    +0.035 C 
ATOM     24  N   UNL     1       7.290  -0.831   6.714  0.00  0.00    -0.285 N 
ATOM     25  C   UNL     1       6.150  -0.331   6.197  0.00  0.00    +0.310 C 
ATOM     26  O   UNL     1       5.922   0.857   6.084  0.00  0.00    -0.252 OA
ATOM     27  H   UNL     1       8.048  -0.326   7.050  0.00  0.00    +0.151 HD
ENDBRANCH  15  16
ENDBRANCH   1  15
TORSDOF 4
