REMARK  Name = ZINC54670179
REMARK  2 active torsions:
REMARK  status: ('A' for Active; 'I' for Inactive)
REMARK    1  A    between atoms: C_4  and  C_7
REMARK    2  A    between atoms: N_15  and  C_16
REMARK                            x       y       z     vdW  Elec       q    Type
REMARK                         _______ _______ _______ _____ _____    ______ ____
ROOT
ATOM      1  C   UNL     1       3.707  -0.708  -0.039  0.00  0.00    +0.108 C 
ATOM      2  C   UNL     1       4.013  -1.185  -1.474  0.00  0.00    +0.029 C 
ATOM      3  C   UNL     1       4.641  -2.585  -1.249  0.00  0.00    +0.021 C 
ATOM      4  C   UNL     1       3.831  -3.097  -0.032  0.00  0.00    +0.110 C 
ATOM      5  N   UNL     1       3.621  -1.903   0.813  0.00  0.00    -0.278 N 
ATOM      6  C   UNL     1       3.390  -1.907   2.141  0.00  0.00    +0.307 C 
ATOM      7  O   UNL     1       3.232  -0.857   2.733  0.00  0.00    -0.252 OA
ATOM      8  N   UNL     1       3.335  -3.074   2.812  0.00  0.00    -0.269 N 
ATOM      9  H   UNL     1       3.394  -3.914   2.330  0.00  0.00    +0.156 HD
ENDROOT
BRANCH   8  10
ATOM     10  C   UNL     1       3.192  -3.075   4.206  0.00  0.00    +0.038 A 
ATOM     11  C   UNL     1       3.824  -4.048   4.968  0.00  0.00    +0.027 A 
ATOM     12  C   UNL     1       3.682  -4.050   6.342  0.00  0.00    +0.051 A 
ATOM     13  C   UNL     1       2.909  -3.080   6.965  0.00  0.00    +0.162 A 
ATOM     14  C   UNL     1       2.277  -2.104   6.204  0.00  0.00    +0.164 A 
ATOM     15  C   UNL     1       2.422  -2.100   4.825  0.00  0.00    +0.072 A 
ATOM     16  O   UNL     1       1.521  -1.140   6.797  0.00  0.00    -0.485 OA
ATOM     17  C   UNL     1       1.098  -1.390   8.142  0.00  0.00    +0.270 C 
ATOM     18  C   UNL     1       2.307  -1.899   8.939  0.00  0.00    +0.270 C 
ATOM     19  O   UNL     1       2.778  -3.101   8.320  0.00  0.00    -0.485 OA
ENDBRANCH   8  10
BRANCH   1  23
ATOM     20  C   UNL     1      -0.011   1.395   0.030  0.00  0.00    +0.000 A 
ATOM     21  C   UNL     1       1.180   2.097   0.016  0.00  0.00    +0.000 A 
ATOM     22  C   UNL     1       2.383   1.417  -0.006  0.00  0.00    +0.005 A 
ATOM     23  C   UNL     1       2.395   0.034  -0.014  0.00  0.00    -0.027 A 
ATOM     24  C   UNL     1       1.204  -0.667   0.001  0.00  0.00    +0.005 A 
ATOM     25  C   UNL     1       0.001   0.013   0.022  0.00  0.00    +0.000 A 
ENDBRANCH   1  23
TORSDOF 2
