REMARK  Name = ZINC65763753
REMARK  4 active torsions:
REMARK  status: ('A' for Active; 'I' for Inactive)
REMARK    1  A    between atoms: C_6  and  N_7
REMARK    2  A    between atoms: C_10  and  C_13
REMARK    3  A    between atoms: N_15  and  S_16
REMARK    4  A    between atoms: S_16  and  C_19
REMARK                            x       y       z     vdW  Elec       q    Type
REMARK                         _______ _______ _______ _____ _____    ______ ____
ROOT
ATOM      1  C   UNL     1      -4.507  -0.973   1.179  0.00  0.00    +0.277 C 
ATOM      2  O   UNL     1      -5.728  -1.542   1.102  0.00  0.00    -0.269 OA
ATOM      3  N   UNL     1      -4.214  -0.207   2.175  0.00  0.00    -0.090 NA
ENDROOT
BRANCH   1   7
ATOM      4  N   UNL     1      -1.200  -0.722   0.010  0.00  0.00    -0.271 N 
ATOM      5  C   UNL     1      -1.294  -2.182  -0.097  0.00  0.00    +0.115 C 
ATOM      6  C   UNL     1      -2.716  -2.541   0.388  0.00  0.00    +0.042 C 
ATOM      7  C   UNL     1      -3.486  -1.231   0.101  0.00  0.00    +0.168 C 
ATOM      8  C   UNL     1      -2.417  -0.161   0.122  0.00  0.00    +0.232 C 
ATOM      9  O   UNL     1      -2.627   1.029   0.224  0.00  0.00    -0.274 OA
BRANCH   4  15
ATOM     10  C   UNL     1      -0.017   1.384  -0.005  0.00  0.00    +0.026 A 
ATOM     11  C   UNL     1       1.170   2.090  -0.012  0.00  0.00    +0.040 A 
ATOM     12  C   UNL     1       2.379   1.414  -0.013  0.00  0.00    +0.124 A 
ATOM     13  C   UNL     1       2.400   0.030  -0.007  0.00  0.00    +0.040 A 
ATOM     14  C   UNL     1       1.215  -0.680   0.000  0.00  0.00    +0.026 A 
ATOM     15  C   UNL     1       0.002  -0.004   0.002  0.00  0.00    +0.036 A 
ATOM     16  F   UNL     1       3.539   2.106  -0.021  0.00  0.00    -0.205 F 
ENDBRANCH   4  15
ENDBRANCH   1   7
BRANCH   3  17
ATOM     17  S   UNL     1      -5.336   0.076   3.360  0.00  0.00    +0.105 S 
ATOM     18  O   UNL     1      -6.391   0.810   2.753  0.00  0.00    -0.146 OA
ATOM     19  O   UNL     1      -5.551  -1.163   4.021  0.00  0.00    -0.146 OA
BRANCH  17  20
ATOM     20  C   UNL     1      -4.588   1.152   4.538  0.00  0.00    +0.150 A 
ATOM     21  C   UNL     1      -5.089   2.426   4.726  0.00  0.00    +0.070 A 
ATOM     22  C   UNL     1      -4.502   3.271   5.653  0.00  0.00    +0.125 A 
ATOM     23  C   UNL     1      -3.413   2.840   6.391  0.00  0.00    +0.041 A 
ATOM     24  C   UNL     1      -2.912   1.566   6.203  0.00  0.00    +0.043 A 
ATOM     25  C   UNL     1      -3.503   0.719   5.280  0.00  0.00    +0.150 A 
ATOM     26  F   UNL     1      -3.016  -0.528   5.100  0.00  0.00    -0.203 F 
ATOM     27  F   UNL     1      -4.992   4.517   5.836  0.00  0.00    -0.205 F 
ENDBRANCH  17  20
ENDBRANCH   3  17
TORSDOF 4
