REMARK  Name = ZINC04819852
REMARK  9 active torsions:
REMARK  status: ('A' for Active; 'I' for Inactive)
REMARK    1  A    between atoms: C_1  and  C_2
REMARK    2  A    between atoms: C_2  and  C_3
REMARK    3  A    between atoms: C_3  and  C_5
REMARK    4  A    between atoms: C_3  and  C_6
REMARK    5  A    between atoms: C_11  and  O_12
REMARK    6  A    between atoms: O_12  and  C_13
REMARK    7  A    between atoms: C_13  and  C_14
REMARK    8  A    between atoms: N_16  and  C_17
REMARK    9  A    between atoms: C_22  and  C_23
REMARK                            x       y       z     vdW  Elec       q    Type
REMARK                         _______ _______ _______ _____ _____    ______ ____
ROOT
ATOM      1  C   UNL     1      -1.183   7.328   0.041  0.00  0.00    +0.255 C 
ATOM      2  O   UNL     1      -0.067   7.803   0.046  0.00  0.00    -0.272 OA
ATOM      3  N   UNL     1      -2.260   8.137   0.057  0.00  0.00    -0.282 N 
ATOM      4  H   UNL     1      -3.151   7.760  -0.013  0.00  0.00    +0.155 HD
ENDROOT
BRANCH   3   5
ATOM      5  C   UNL     1      -2.095   9.515   0.174  0.00  0.00    +0.048 A 
ATOM      6  C   UNL     1      -1.008  10.140  -0.423  0.00  0.00    +0.025 A 
ATOM      7  C   UNL     1      -0.846  11.506  -0.306  0.00  0.00    +0.017 A 
ATOM      8  C   UNL     1      -1.764  12.263   0.405  0.00  0.00    +0.019 A 
ATOM      9  C   UNL     1      -2.848  11.660   1.005  0.00  0.00    +0.032 A 
ATOM     10  C   UNL     1      -3.028  10.279   0.891  0.00  0.00    +0.085 A 
ATOM     11 BR   UNL     1      -1.525  14.133   0.555  0.00  0.00    -0.050 Br
BRANCH  10  12
ATOM     12  C   UNL     1      -4.189   9.627   1.524  0.00  0.00    +0.388 C 
ATOM     13  O   UNL     1      -4.289   8.417   1.509  0.00  0.00    -0.241 OA
ATOM     14  O   UNL     1      -5.139  10.375   2.120  0.00  0.00    -0.241 OA
ENDBRANCH  10  12
ENDBRANCH   3   5
BRANCH   1  15
ATOM     15  C   UNL     1      -1.364   5.832   0.016  0.00  0.00    +0.324 C 
BRANCH  15  16
ATOM     16  O   UNL     1      -0.084   5.197   0.002  0.00  0.00    -0.482 OA
BRANCH  16  22
ATOM     17  C   UNL     1       1.139   3.157  -0.035  0.00  0.00    -0.003 A 
ATOM     18  C   UNL     1       1.151   1.775  -0.057  0.00  0.00    +0.007 A 
ATOM     19  C   UNL     1      -0.039   1.072  -0.066  0.00  0.00    +0.001 A 
ATOM     20  C   UNL     1      -1.245   1.750  -0.057  0.00  0.00    +0.004 A 
ATOM     21  C   UNL     1      -1.262   3.130  -0.029  0.00  0.00    +0.046 A 
ATOM     22  C   UNL     1      -0.069   3.838  -0.020  0.00  0.00    +0.125 A 
BRANCH  17  23
ATOM     23  C   UNL     1       2.437   3.922  -0.026  0.00  0.00    +0.019 C 
ATOM     24  C   UNL     1       3.247   3.540   1.214  0.00  0.00    +0.012 C 
BRANCH  23  26
ATOM     25  C   UNL     1       4.497   4.449  -1.338  0.00  0.00    +0.004 C 
ATOM     26  C   UNL     1       3.239   3.581  -1.284  0.00  0.00    +0.004 C 
ENDBRANCH  23  26
ENDBRANCH  17  23
ENDBRANCH  16  22
ENDBRANCH  15  16
ENDBRANCH   1  15
TORSDOF 7
