REMARK  Name = ZINC59437014
REMARK  12 active torsions:
REMARK  status: ('A' for Active; 'I' for Inactive)
REMARK    1  A    between atoms: C_1  and  C_2
REMARK    2  A    between atoms: C_4  and  C_15
REMARK    3  A    between atoms: C_5  and  C_14
REMARK    4  A    between atoms: N_6  and  C_7
REMARK    5  A    between atoms: N_16  and  N_17
REMARK    6  A    between atoms: C_18  and  C_20
REMARK    7  A    between atoms: C_20  and  N_21
REMARK    8  A    between atoms: N_21  and  C_22
REMARK    9  A    between atoms: N_21  and  S_31
REMARK   10  A    between atoms: C_27  and  O_28
REMARK   11  A    between atoms: O_28  and  C_29
REMARK   12  A    between atoms: S_31  and  C_34
REMARK                            x       y       z     vdW  Elec       q    Type
REMARK                         _______ _______ _______ _____ _____    ______ ____
ROOT
ATOM      1  N   UNL     1       0.071  -5.710  -1.697  0.00  0.00    -0.206 N 
ATOM      2  C   UNL     1       0.090  -6.927  -1.116  0.00  0.00    +0.251 C 
ATOM      3  O   UNL     1       0.096  -7.021   0.093  0.00  0.00    -0.272 OA
ATOM      4  H   UNL     1       0.066  -5.635  -2.664  0.00  0.00    +0.177 HD
ENDROOT
BRANCH   1   6
ATOM      5  C   UNL     1       0.042  -3.385  -1.463  0.00  0.00    +0.140 C 
ATOM      6  N   UNL     1       0.059  -4.556  -0.903  0.00  0.00    -0.188 NA
BRANCH   5  10
ATOM      7  C   UNL     1      -0.018   1.503   0.010  0.00  0.00    +0.064 C 
ATOM      8  C   UNL     1       0.002  -0.004   0.002  0.00  0.00    +0.022 A 
ATOM      9  C   UNL     1       0.008  -0.781  -1.097  0.00  0.00    +0.032 A 
ATOM     10  C   UNL     1       0.029  -2.169  -0.628  0.00  0.00    +0.016 A 
ATOM     11  C   UNL     1       0.034  -2.113   0.737  0.00  0.00    +0.030 A 
ATOM     12  N   UNL     1       0.024  -0.804   1.108  0.00  0.00    -0.315 N 
ATOM     13  C   UNL     1       0.053  -3.296   1.669  0.00  0.00    +0.064 C 
BRANCH  12  14
ATOM     14  C   UNL     1       0.030  -0.344   2.433  0.00  0.00    +0.082 A 
ATOM     15  C   UNL     1      -1.168  -0.139   3.104  0.00  0.00    +0.029 A 
ATOM     16  C   UNL     1      -1.159   0.314   4.409  0.00  0.00    +0.002 A 
ATOM     17  C   UNL     1       0.042   0.562   5.049  0.00  0.00    +0.003 A 
ATOM     18  C   UNL     1       1.238   0.359   4.385  0.00  0.00    +0.040 A 
ATOM     19  C   UNL     1       1.236  -0.099   3.080  0.00  0.00    +0.147 A 
ATOM     20  F   UNL     1       2.404  -0.303   2.433  0.00  0.00    -0.203 F 
ENDBRANCH  12  14
ENDBRANCH   5  10
ENDBRANCH   1   6
BRANCH   2  21
ATOM     21  C   UNL     1       0.103  -8.169  -1.969  0.00  0.00    +0.228 C 
BRANCH  21  22
ATOM     22  N   UNL     1       0.122  -9.353  -1.107  0.00  0.00    -0.195 N 
BRANCH  22  23
ATOM     23  C   UNL     1      -1.077  -9.873  -0.605  0.00  0.00    +0.094 A 
ATOM     24  C   UNL     1      -1.822 -10.762  -1.365  0.00  0.00    +0.048 A 
ATOM     25  C   UNL     1      -3.006 -11.275  -0.867  0.00  0.00    +0.043 A 
ATOM     26  C   UNL     1      -3.449 -10.902   0.390  0.00  0.00    +0.024 A 
ATOM     27  C   UNL     1      -2.711 -10.015   1.152  0.00  0.00    +0.049 A 
ATOM     28  C   UNL     1      -1.522  -9.502   0.662  0.00  0.00    +0.143 A 
ATOM     29 CL   UNL     1      -3.937 -12.388  -1.819  0.00  0.00    -0.083 Cl
BRANCH  28  30
ATOM     30  O   UNL     1      -0.793  -8.634   1.414  0.00  0.00    -0.493 OA
ATOM     31  C   UNL     1      -1.310  -8.299   2.703  0.00  0.00    +0.277 C 
ENDBRANCH  28  30
ENDBRANCH  22  23
BRANCH  22  32
ATOM     32  S   UNL     1       1.562 -10.077  -0.727  0.00  0.00    +0.043 S 
ATOM     33  O   UNL     1       1.241 -11.450  -0.546  0.00  0.00    -0.155 OA
ATOM     34  O   UNL     1       2.454  -9.671  -1.755  0.00  0.00    -0.155 OA
ATOM     35  C   UNL     1       2.053  -9.337   0.855  0.00  0.00    +0.218 C 
ENDBRANCH  22  32
ENDBRANCH  21  22
ENDBRANCH   2  21
TORSDOF 8
