REMARK  Name = ZINC30570464
REMARK  11 active torsions:
REMARK  status: ('A' for Active; 'I' for Inactive)
REMARK    1  A    between atoms: C_1  and  C_2
REMARK    2  A    between atoms: C_2  and  C_3
REMARK    3  A    between atoms: C_2  and  C_4
REMARK    4  A    between atoms: C_6  and  C_29
REMARK    5  A    between atoms: C_7  and  O_28
REMARK    6  A    between atoms: C_8  and  C_10
REMARK    7  A    between atoms: C_10  and  O_12
REMARK    8  A    between atoms: O_12  and  C_13
REMARK    9  A    between atoms: C_13  and  C_14
REMARK   10  A    between atoms: C_29  and  C_30
REMARK   11  A    between atoms: C_29  and  C_31
REMARK                            x       y       z     vdW  Elec       q    Type
REMARK                         _______ _______ _______ _____ _____    ______ ____
ROOT
ATOM      1  O   UNL     1      -5.582   5.165  -3.316  0.00  0.00    -0.452 OA
ENDROOT
BRANCH   1   2
ATOM      2  C   UNL     1      -6.465   4.863  -4.288  0.00  0.00    +0.343 C 
ATOM      3  O   UNL     1      -6.708   3.701  -4.549  0.00  0.00    -0.245 OA
BRANCH   2   8
ATOM      4  C   UNL     1      -7.492   8.283  -5.439  0.00  0.00    -0.044 A 
ATOM      5  C   UNL     1      -8.400   7.973  -6.439  0.00  0.00    +0.011 A 
ATOM      6  C   UNL     1      -8.682   6.656  -6.742  0.00  0.00    -0.002 A 
ATOM      7  C   UNL     1      -8.053   5.632  -6.050  0.00  0.00    +0.134 A 
ATOM      8  C   UNL     1      -7.137   5.942  -5.034  0.00  0.00    +0.101 A 
ATOM      9  C   UNL     1      -6.861   7.279  -4.737  0.00  0.00    +0.022 A 
BRANCH   4  11
ATOM     10  C   UNL     1      -7.556  10.007  -3.658  0.00  0.00    +0.012 C 
ATOM     11  C   UNL     1      -7.194   9.725  -5.118  0.00  0.00    +0.013 C 
ATOM     12  C   UNL     1      -5.704   9.998  -5.336  0.00  0.00    +0.012 C 
ENDBRANCH   4  11
BRANCH   6  13
ATOM     13  C   UNL     1      -9.672   6.330  -7.832  0.00  0.00    +0.016 C 
ATOM     14  C   UNL     1     -11.035   6.929  -7.478  0.00  0.00    +0.012 C 
ATOM     15  C   UNL     1      -9.184   6.919  -9.157  0.00  0.00    +0.012 C 
ENDBRANCH   6  13
BRANCH   7  16
ATOM     16  O   UNL     1      -8.324   4.338  -6.351  0.00  0.00    -0.506 OA
ATOM     17  H   UNL     1      -7.823   3.528  -5.801  0.00  0.00    +0.292 HD
ENDBRANCH   7  16
ENDBRANCH   2   8
ENDBRANCH   1   2
BRANCH   1  18
ATOM     18  C   UNL     1      -4.959   4.051  -2.623  0.00  0.00    +0.328 C 
BRANCH  18  19
ATOM     19  C   UNL     1      -4.009   4.579  -1.578  0.00  0.00    +0.253 C 
ATOM     20  O   UNL     1      -3.871   5.775  -1.433  0.00  0.00    -0.272 OA
ATOM     21  N   UNL     1      -3.313   3.721  -0.806  0.00  0.00    -0.296 N 
ATOM     22  C   UNL     1      -2.381   4.214   0.219  0.00  0.00    +0.127 C 
ATOM     23  C   UNL     1      -1.031   3.514   0.026  0.00  0.00    +0.125 C 
ATOM     24  N   UNL     1      -1.233   2.059   0.019  0.00  0.00    -0.314 N 
ATOM     25  C   UNL     1      -2.073   1.644  -1.112  0.00  0.00    +0.125 C 
ATOM     26  C   UNL     1      -3.466   2.267  -0.966  0.00  0.00    +0.127 C 
ATOM     27  C   UNL     1      -0.017   1.387   0.010  0.00  0.00    +0.099 A 
ATOM     28  C   UNL     1       0.002  -0.004   0.002  0.00  0.00    +0.042 A 
ATOM     29  C   UNL     1       1.220  -0.660  -0.013  0.00  0.00    +0.005 A 
ATOM     30  C   UNL     1       2.382   0.100  -0.020  0.00  0.00    +0.018 A 
ATOM     31  C   UNL     1       2.289   1.477  -0.012  0.00  0.00    +0.084 A 
ATOM     32  N   UNL     1       1.114   2.076   0.003  0.00  0.00    -0.350 N 
ATOM     33  H   UNL     1       1.088   3.176   0.009  0.00  0.00    +0.166 HD
ENDBRANCH  18  19
ENDBRANCH   1  18
TORSDOF 7
