REMARK  Name = ZINC09641526
REMARK  8 active torsions:
REMARK  status: ('A' for Active; 'I' for Inactive)
REMARK    1  A    between atoms: C_1  and  C_2
REMARK    2  A    between atoms: C_3  and  C_30
REMARK    3  A    between atoms: C_11  and  C_13
REMARK    4  A    between atoms: C_13  and  C_15
REMARK    5  A    between atoms: C_13  and  S_16
REMARK    6  A    between atoms: S_16  and  C_17
REMARK    7  A    between atoms: C_20  and  C_23
REMARK    8  A    between atoms: N_21  and  N_22
REMARK                            x       y       z     vdW  Elec       q    Type
REMARK                         _______ _______ _______ _____ _____    ______ ____
ROOT
ATOM      1  S   UNL     1      -1.622   5.030   0.250  0.00  0.00    -0.074 S 
ENDROOT
BRANCH   1   2
ATOM      2  C   UNL     1      -0.659   3.561   0.108  0.00  0.00    +0.209 A 
ATOM      3  N   UNL     1       0.641   3.495  -0.071  0.00  0.00    -0.121 NA
ATOM      4  N   UNL     1       1.016   2.267  -0.131  0.00  0.00    -0.127 NA
ATOM      5  C   UNL     1      -0.021   1.474   0.007  0.00  0.00    +0.183 A 
ATOM      6  N   UNL     1      -1.127   2.278   0.159  0.00  0.00    -0.224 N 
BRANCH   5   7
ATOM      7  C   UNL     1      -0.004  -0.004  -0.006  0.00  0.00    +0.035 A 
ATOM      8  C   UNL     1      -0.929  -0.709  -0.778  0.00  0.00    +0.013 A 
ATOM      9  C   UNL     1      -0.908  -2.088  -0.785  0.00  0.00    +0.001 A 
ATOM     10  C   UNL     1       0.027  -2.774  -0.030  0.00  0.00    +0.001 A 
ATOM     11  C   UNL     1       0.947  -2.082   0.738  0.00  0.00    +0.016 A 
ATOM     12  C   UNL     1       0.940  -0.701   0.750  0.00  0.00    +0.029 A 
ATOM     13 BR   UNL     1       2.204   0.243   1.794  0.00  0.00    -0.050 Br
ENDBRANCH   5   7
BRANCH   6  14
ATOM     14  N   UNL     1      -2.422   1.878   0.327  0.00  0.00    -0.295 N 
ATOM     15  H   UNL     1      -2.666   1.847   1.306  0.00  0.00    +0.163 HD
ATOM     16  H   UNL     1      -3.054   2.474  -0.185  0.00  0.00    +0.163 HD
ENDBRANCH   6  14
ENDBRANCH   1   2
BRANCH   1  17
ATOM     17  C   UNL     1      -0.320   6.276   0.079  0.00  0.00    +0.117 C 
ATOM     18  C   UNL     1       0.640   6.177   1.266  0.00  0.00    +0.027 C 
BRANCH  17  29
ATOM     19  C   UNL     1      -3.807  11.992   0.424  0.00  0.00    +0.045 C 
ATOM     20  C   UNL     1      -2.490  11.535  -0.149  0.00  0.00    -0.026 A 
ATOM     21  C   UNL     1      -1.692  12.402  -0.793  0.00  0.00    -0.008 A 
ATOM     22  S   UNL     1      -0.294  11.402  -1.267  0.00  0.00    -0.073 S 
ATOM     23  C   UNL     1      -0.822   9.851  -0.587  0.00  0.00    +0.116 A 
ATOM     24  C   UNL     1      -2.069  10.153  -0.011  0.00  0.00    +0.075 A 
ATOM     25  C   UNL     1      -2.739   9.058   0.626  0.00  0.00    +0.260 A 
ATOM     26  O   UNL     1      -3.826   9.220   1.154  0.00  0.00    -0.267 OA
ATOM     27  N   UNL     1      -2.153   7.847   0.626  0.00  0.00    -0.309 N 
ATOM     28  H   UNL     1      -2.603   7.101   1.052  0.00  0.00    +0.170 HD
ATOM     29  C   UNL     1      -0.940   7.649   0.047  0.00  0.00    +0.124 A 
ATOM     30  N   UNL     1      -0.304   8.627  -0.540  0.00  0.00    -0.225 NA
ATOM     31  C   UNL     1      -1.923  13.868  -1.053  0.00  0.00    +0.052 C 
ENDBRANCH  17  29
ENDBRANCH   1  17
TORSDOF 5
