REMARK  Name = ZINC09390923
REMARK  9 active torsions:
REMARK  status: ('A' for Active; 'I' for Inactive)
REMARK    1  A    between atoms: C_1  and  C_2
REMARK    2  A    between atoms: C_5  and  N_8
REMARK    3  A    between atoms: C_9  and  C_11
REMARK    4  A    between atoms: C_11  and  S_12
REMARK    5  A    between atoms: S_12  and  C_13
REMARK    6  A    between atoms: C_16  and  C_24
REMARK    7  A    between atoms: N_17  and  C_18
REMARK    8  A    between atoms: C_24  and  N_25
REMARK    9  A    between atoms: C_26  and  C_28
REMARK                            x       y       z     vdW  Elec       q    Type
REMARK                         _______ _______ _______ _____ _____    ______ ____
ROOT
ATOM      1  C   UNL     1       3.864  -6.549  -0.522  0.00  0.00    +0.192 A 
ATOM      2  N   UNL     1       2.702  -7.160  -0.508  0.00  0.00    -0.122 NA
ATOM      3  N   UNL     1       2.875  -8.429  -0.619  0.00  0.00    -0.132 NA
ATOM      4  C   UNL     1       4.146  -8.701  -0.710  0.00  0.00    +0.152 A 
ATOM      5  N   UNL     1       4.821  -7.513  -0.657  0.00  0.00    -0.302 N 
ENDROOT
BRANCH   5   6
ATOM      6  C   UNL     1       6.271  -7.316  -0.727  0.00  0.00    +0.091 C 
ATOM      7  C   UNL     1       6.756  -6.636   0.555  0.00  0.00    +0.025 C 
ATOM      8  C   UNL     1       8.271  -6.430   0.481  0.00  0.00    +0.002 C 
ATOM      9  C   UNL     1       8.607  -5.548  -0.723  0.00  0.00    +0.000 C 
ATOM     10  C   UNL     1       8.122  -6.227  -2.005  0.00  0.00    +0.002 C 
ATOM     11  C   UNL     1       6.608  -6.433  -1.931  0.00  0.00    +0.025 C 
ENDBRANCH   5   6
BRANCH   1  12
ATOM     12  S   UNL     1       4.135  -4.812  -0.398  0.00  0.00    -0.077 S 
BRANCH  12  13
ATOM     13  C   UNL     1       2.425  -4.236  -0.258  0.00  0.00    +0.173 C 
BRANCH  13  15
ATOM     14  N   UNL     1       1.237  -2.079  -0.020  0.00  0.00    -0.285 N 
ATOM     15  C   UNL     1       2.410  -2.734  -0.137  0.00  0.00    +0.227 C 
ATOM     16  O   UNL     1       3.452  -2.114  -0.144  0.00  0.00    -0.275 OA
ATOM     17  H   UNL     1       0.298  -2.645   0.073  0.00  0.00    +0.155 HD
BRANCH  14  22
ATOM     18  C   UNL     1       1.143   3.593  -0.015  0.00  0.00    +0.044 C 
ATOM     19  C   UNL     1       1.168   2.086  -0.017  0.00  0.00    -0.050 A 
ATOM     20  C   UNL     1       2.111   1.412  -0.771  0.00  0.00    +0.005 A 
ATOM     21  C   UNL     1       2.137   0.031  -0.774  0.00  0.00    +0.023 A 
ATOM     22  C   UNL     1       1.214  -0.680  -0.019  0.00  0.00    +0.033 A 
ATOM     23  C   UNL     1       0.268  -0.001   0.737  0.00  0.00    +0.023 A 
ATOM     24  C   UNL     1       0.248   1.380   0.736  0.00  0.00    +0.005 A 
ENDBRANCH  14  22
ENDBRANCH  13  15
ENDBRANCH  12  13
ENDBRANCH   1  12
BRANCH   4  25
ATOM     25  C   UNL     1       4.758 -10.071  -0.852  0.00  0.00    +0.180 C 
BRANCH  25  26
ATOM     26  N   UNL     1       4.882 -10.405  -2.273  0.00  0.00    -0.308 N 
ATOM     27  C   UNL     1       5.407 -11.589  -2.644  0.00  0.00    +0.220 C 
ATOM     28  O   UNL     1       5.777 -12.379  -1.801  0.00  0.00    -0.275 OA
ATOM     29  H   UNL     1       4.546  -9.688  -3.038  0.00  0.00    +0.149 HD
BRANCH  27  30
ATOM     30  C   UNL     1       5.534 -11.933  -4.106  0.00  0.00    +0.048 C 
ATOM     31  C   UNL     1       4.148 -11.924  -4.754  0.00  0.00    +0.019 C 
ATOM     32  C   UNL     1       4.277 -12.272  -6.239  0.00  0.00    -0.009 C 
ATOM     33  C   UNL     1       4.899 -13.663  -6.383  0.00  0.00    +0.007 C 
ATOM     34  C   UNL     1       6.285 -13.672  -5.735  0.00  0.00    -0.009 C 
ATOM     35  C   UNL     1       6.156 -13.323  -4.251  0.00  0.00    +0.019 C 
ATOM     36  C   UNL     1       7.178 -12.639  -6.426  0.00  0.00    +0.007 C 
ATOM     37  C   UNL     1       6.556 -11.249  -6.281  0.00  0.00    -0.009 C 
ATOM     38  C   UNL     1       5.170 -11.240  -6.929  0.00  0.00    +0.007 C 
ATOM     39  C   UNL     1       6.427 -10.900  -4.797  0.00  0.00    +0.019 C 
ENDBRANCH  27  30
ENDBRANCH  25  26
ENDBRANCH   4  25
TORSDOF 8
