REMARK  Name = ZINC38610822
REMARK  5 active torsions:
REMARK  status: ('A' for Active; 'I' for Inactive)
REMARK    1  A    between atoms: C_1  and  C_2
REMARK    2  A    between atoms: C_4  and  C_8
REMARK    3  A    between atoms: N_10  and  N_11
REMARK    4  A    between atoms: C_12  and  C_13
REMARK    5  A    between atoms: C_16  and  C_18
REMARK                            x       y       z     vdW  Elec       q    Type
REMARK                         _______ _______ _______ _____ _____    ______ ____
ROOT
ATOM      1  C   UNL     1      -4.194  -5.420   3.717  0.00  0.00    +0.148 A 
ATOM      2  C   UNL     1      -5.417  -6.020   3.917  0.00  0.00    +0.051 A 
ATOM      3  C   UNL     1      -5.381  -6.597   5.194  0.00  0.00    +0.050 A 
ATOM      4  C   UNL     1      -4.151  -6.330   5.719  0.00  0.00    +0.137 A 
ATOM      5  O   UNL     1      -3.442  -5.625   4.818  0.00  0.00    -0.454 OA
ENDROOT
BRANCH   4   6
ATOM      6  C   UNL     1      -3.675  -6.750   7.051  0.00  0.00    +0.037 A 
ATOM      7  C   UNL     1      -4.459  -6.514   8.183  0.00  0.00    +0.034 A 
ATOM      8  C   UNL     1      -4.008  -6.910   9.426  0.00  0.00    +0.060 A 
ATOM      9  C   UNL     1      -2.780  -7.539   9.553  0.00  0.00    +0.061 A 
ATOM     10  C   UNL     1      -1.997  -7.775   8.435  0.00  0.00    +0.042 A 
ATOM     11  C   UNL     1      -2.440  -7.390   7.186  0.00  0.00    +0.053 A 
ATOM     12 CL   UNL     1      -1.461  -7.694   5.785  0.00  0.00    -0.083 Cl
ATOM     13 CL   UNL     1      -2.219  -8.033  11.120  0.00  0.00    -0.082 Cl
ATOM     14 CL   UNL     1      -4.981  -6.618  10.833  0.00  0.00    -0.082 Cl
ENDBRANCH   4   6
BRANCH   1  16
ATOM     15  N   UNL     1      -2.588  -4.173   2.448  0.00  0.00    -0.185 NA
ATOM     16  C   UNL     1      -3.780  -4.692   2.516  0.00  0.00    +0.176 C 
BRANCH  15  19
ATOM     17  C   UNL     1      -0.958  -2.939   1.229  0.00  0.00    +0.263 C 
ATOM     18  O   UNL     1      -0.190  -3.058   2.161  0.00  0.00    -0.271 OA
ATOM     19  N   UNL     1      -2.191  -3.477   1.299  0.00  0.00    -0.205 N 
ATOM     20  H   UNL     1      -2.805  -3.381   0.554  0.00  0.00    +0.177 HD
BRANCH  17  24
ATOM     21  C   UNL     1      -0.018   1.503   0.010  0.00  0.00    +0.067 C 
ATOM     22  C   UNL     1       0.002  -0.004   0.002  0.00  0.00    +0.059 C 
ATOM     23  C   UNL     1      -1.086  -0.777   0.003  0.00  0.00    +0.035 C 
ATOM     24  C   UNL     1      -0.531  -2.190  -0.007  0.00  0.00    +0.240 C 
ATOM     25  N   UNL     1       0.926  -1.973  -0.013  0.00  0.00    -0.170 NA
ATOM     26  N   UNL     1       1.125  -0.756  -0.013  0.00  0.00    -0.159 NA
ENDBRANCH  17  24
ENDBRANCH  15  19
ENDBRANCH   1  16
TORSDOF 4
