REMARK  Name = ZINC13639007
REMARK  4 active torsions:
REMARK  status: ('A' for Active; 'I' for Inactive)
REMARK    1  A    between atoms: C_8  and  N_13
REMARK    2  A    between atoms: C_9  and  O_12
REMARK    3  A    between atoms: N_16  and  C_17
REMARK    4  A    between atoms: C_17  and  C_18
REMARK                            x       y       z     vdW  Elec       q    Type
REMARK                         _______ _______ _______ _____ _____    ______ ____
ROOT
ATOM      1  C   UNL     1      -0.017   1.382   0.010  0.00  0.00    +0.017 A 
ATOM      2  C   UNL     1       1.161   2.101   0.002  0.00  0.00    +0.027 A 
ATOM      3  C   UNL     1       2.381   1.435  -0.013  0.00  0.00    +0.051 A 
ATOM      4  C   UNL     1       2.398   0.032  -0.021  0.00  0.00    +0.032 A 
ATOM      5  C   UNL     1       1.204  -0.682  -0.013  0.00  0.00    +0.027 A 
ATOM      6  C   UNL     1       0.002  -0.004   0.002  0.00  0.00    +0.019 A 
ATOM      7 BR   UNL     1      -1.624  -0.969   0.013  0.00  0.00    -0.050 Br
ATOM      8  C   UNL     1       3.822  -0.360  -0.036  0.00  0.00    +0.152 A 
ATOM      9  C   UNL     1       4.552   0.830  -0.037  0.00  0.00    +0.219 A 
ATOM     10  N   UNL     1       3.693   1.879  -0.023  0.00  0.00    -0.324 N 
ATOM     11  H   UNL     1       3.961   2.812  -0.021  0.00  0.00    +0.169 HD
ENDROOT
BRANCH   8  12
ATOM     12  N   UNL     1       4.313  -1.605  -0.047  0.00  0.00    -0.166 NA
ATOM     13  N   UNL     1       5.589  -1.795  -0.060  0.00  0.00    -0.256 N 
ATOM     14  C   UNL     1       6.084  -3.049  -0.071  0.00  0.00    +0.168 C 
ATOM     15  N   UNL     1       5.230  -4.124  -0.068  0.00  0.00    -0.362 N 
ATOM     16  S   UNL     1       7.726  -3.293  -0.088  0.00  0.00    -0.012 SA
ATOM     17  H   UNL     1       6.192  -1.036  -0.063  0.00  0.00    +0.191 HD
ATOM     18  H   UNL     1       4.270  -3.981  -0.058  0.00  0.00    +0.162 HD
BRANCH  15  19
ATOM     19  C   UNL     1       5.767  -5.486  -0.080  0.00  0.00    +0.146 C 
BRANCH  19  20
ATOM     20  C   UNL     1       5.400  -6.191   1.228  0.00  0.00    +0.137 C 
ATOM     21  C   UNL     1       6.064  -7.584   1.276  0.00  0.00    +0.035 C 
ATOM     22  C   UNL     1       4.952  -8.456   1.921  0.00  0.00    +0.031 C 
ATOM     23  C   UNL     1       3.681  -7.788   1.341  0.00  0.00    +0.160 C 
ATOM     24  O   UNL     1       3.982  -6.382   1.295  0.00  0.00    -0.375 OA
ENDBRANCH  19  20
ENDBRANCH  15  19
ENDBRANCH   8  12
BRANCH   9  25
ATOM     25  O   UNL     1       5.899   0.922  -0.049  0.00  0.00    -0.492 OA
ATOM     26  H   UNL     1       6.283   0.953  -0.936  0.00  0.00    +0.294 HD
ENDBRANCH   9  25
TORSDOF 4
