REMARK  Name = ZINC59888592
REMARK  10 active torsions:
REMARK  status: ('A' for Active; 'I' for Inactive)
REMARK    1  A    between atoms: C_1  and  N_2
REMARK    2  A    between atoms: N_2  and  C_3
REMARK    3  A    between atoms: N_2  and  C_27
REMARK    4  A    between atoms: C_3  and  C_4
REMARK    5  A    between atoms: C_9  and  C_10
REMARK    6  A    between atoms: C_10  and  N_11
REMARK    7  A    between atoms: C_12  and  C_14
REMARK    8  A    between atoms: C_14  and  N_15
REMARK    9  A    between atoms: C_16  and  C_18
REMARK   10  A    between atoms: C_22  and  N_24
REMARK                            x       y       z     vdW  Elec       q    Type
REMARK                         _______ _______ _______ _____ _____    ______ ____
ROOT
ATOM      1  N   UNL     1      -1.613  -3.187  -1.858  0.00  0.00    -0.310 N 
ATOM      2  C   UNL     1      -0.972  -4.367  -1.746  0.00  0.00    +0.230 C 
ATOM      3  O   UNL     1       0.184  -4.465  -2.100  0.00  0.00    -0.274 OA
ATOM      4  H   UNL     1      -2.537  -3.108  -1.574  0.00  0.00    +0.149 HD
ENDROOT
BRANCH   1   5
ATOM      5  C   UNL     1      -0.914  -2.022  -2.407  0.00  0.00    +0.139 C 
BRANCH   5  11
ATOM      6  C   UNL     1      -2.067  -0.116  -1.267  0.00  0.00    -0.059 A 
ATOM      7  C   UNL     1      -2.918   0.973  -1.284  0.00  0.00    +0.002 A 
ATOM      8  C   UNL     1      -3.553   1.337  -2.457  0.00  0.00    +0.000 A 
ATOM      9  C   UNL     1      -3.335   0.611  -3.613  0.00  0.00    +0.000 A 
ATOM     10  C   UNL     1      -2.484  -0.477  -3.597  0.00  0.00    +0.005 A 
ATOM     11  C   UNL     1      -1.846  -0.838  -2.424  0.00  0.00    -0.029 A 
BRANCH   6  12
ATOM     12  C   UNL     1      -1.376  -0.512   0.012  0.00  0.00    -0.043 C 
BRANCH  12  14
ATOM     13  C   UNL     1      -0.018   1.465   0.010  0.00  0.00    -0.095 C 
ATOM     14  N   UNL     1       0.002  -0.004   0.002  0.00  0.00    +0.382 N 
ATOM     15  H   UNL     1       0.474  -0.330  -0.828  0.00  0.00    -0.081 HD
BRANCH  14  16
ATOM     16  C   UNL     1       0.713  -0.491   1.192  0.00  0.00    -0.069 C 
ATOM     17  C   UNL     1       2.148   0.039   1.181  0.00  0.00    -0.015 C 
ATOM     18  C   UNL     1       2.888  -0.468   2.421  0.00  0.00    -0.002 C 
ATOM     19  C   UNL     1       2.909  -1.998   2.412  0.00  0.00    -0.000 C 
ATOM     20  C   UNL     1       1.473  -2.527   2.423  0.00  0.00    -0.002 C 
ATOM     21  C   UNL     1       0.733  -2.021   1.184  0.00  0.00    -0.015 C 
ENDBRANCH  14  16
ENDBRANCH  12  14
ENDBRANCH   6  12
ENDBRANCH   5  11
ENDBRANCH   1   5
BRANCH   2  22
ATOM     22  C   UNL     1      -1.690  -5.564  -1.181  0.00  0.00    +0.200 C 
BRANCH  22  23
ATOM     23  N   UNL     1      -0.784  -6.715  -1.164  0.00  0.00    -0.303 N 
ATOM     24  C   UNL     1      -1.213  -7.904  -0.697  0.00  0.00    +0.245 C 
ATOM     25  O   UNL     1      -2.352  -8.022  -0.289  0.00  0.00    -0.270 OA
ATOM     26  H   UNL     1       0.125  -6.621  -1.490  0.00  0.00    +0.150 HD
BRANCH  24  27
ATOM     27  C   UNL     1      -0.298  -9.066  -0.680  0.00  0.00    +0.039 A 
ATOM     28  C   UNL     1       1.012  -8.932  -1.143  0.00  0.00    +0.013 A 
ATOM     29  C   UNL     1       1.861 -10.020  -1.124  0.00  0.00    +0.003 A 
ATOM     30  C   UNL     1       1.415 -11.241  -0.649  0.00  0.00    +0.033 A 
ATOM     31  C   UNL     1       0.118 -11.380  -0.190  0.00  0.00    +0.127 A 
ATOM     32  C   UNL     1      -0.739 -10.298  -0.197  0.00  0.00    +0.045 A 
BRANCH  31  33
ATOM     33  N   UNL     1      -0.350 -12.690   0.316  0.00  0.00    +0.056 N 
ATOM     34  O   UNL     1       0.401 -13.636   0.328  0.00  0.00    -0.126 OA
ATOM     35  O   UNL     1      -1.484 -12.812   0.718  0.00  0.00    -0.126 OA
ENDBRANCH  31  33
ENDBRANCH  24  27
ENDBRANCH  22  23
ENDBRANCH   2  22
TORSDOF 9
