REMARK  Name = ZINC15426014
REMARK  9 active torsions:
REMARK  status: ('A' for Active; 'I' for Inactive)
REMARK    1  A    between atoms: C_1  and  C_2
REMARK    2  A    between atoms: C_10  and  C_11
REMARK    3  A    between atoms: N_13  and  C_14
REMARK    4  A    between atoms: C_14  and  C_15
REMARK    5  A    between atoms: C_15  and  C_16
REMARK    6  A    between atoms: C_19  and  O_24
REMARK    7  A    between atoms: C_20  and  O_22
REMARK    8  A    between atoms: O_22  and  C_23
REMARK    9  A    between atoms: O_24  and  C_25
REMARK                            x       y       z     vdW  Elec       q    Type
REMARK                         _______ _______ _______ _____ _____    ______ ____
ROOT
ATOM      1  C   UNL     1      -3.049   1.679   0.323  0.00  0.00    +0.280 C 
ATOM      2  O   UNL     1      -2.714   1.294  -0.781  0.00  0.00    -0.267 OA
ATOM      3  N   UNL     1      -4.342   1.966   0.573  0.00  0.00    -0.309 N 
ATOM      4  H   UNL     1      -4.609   2.274   1.453  0.00  0.00    +0.149 HD
ENDROOT
BRANCH   1  14
ATOM      5  C   UNL     1      -0.013   1.086   0.008  0.00  0.00    +0.048 C 
ATOM      6  C   UNL     1      -0.718   1.572   1.248  0.00  0.00    +0.008 A 
ATOM      7  C   UNL     1      -0.112   1.866   2.546  0.00  0.00    +0.025 A 
ATOM      8  C   UNL     1       1.190   1.809   3.048  0.00  0.00    +0.027 A 
ATOM      9  C   UNL     1       1.432   2.162   4.346  0.00  0.00    +0.019 A 
ATOM     10  C   UNL     1       0.392   2.576   5.168  0.00  0.00    +0.019 A 
ATOM     11  C   UNL     1      -0.900   2.639   4.691  0.00  0.00    +0.048 A 
ATOM     12  C   UNL     1      -1.170   2.285   3.374  0.00  0.00    +0.136 A 
ATOM     13  O   UNL     1      -2.300   2.246   2.643  0.00  0.00    -0.450 OA
ATOM     14  C   UNL     1      -2.044   1.831   1.384  0.00  0.00    +0.193 A 
ATOM     15 BR   UNL     1       3.194   2.085   5.028  0.00  0.00    -0.050 Br
ENDBRANCH   1  14
BRANCH   3  16
ATOM     16  C   UNL     1      -5.344   1.815  -0.486  0.00  0.00    +0.109 C 
BRANCH  16  17
ATOM     17  C   UNL     1      -6.721   2.204   0.056  0.00  0.00    +0.054 C 
BRANCH  17  18
ATOM     18  C   UNL     1      -7.751   2.048  -1.032  0.00  0.00    -0.042 A 
ATOM     19  C   UNL     1      -8.040   3.112  -1.866  0.00  0.00    +0.007 A 
ATOM     20  C   UNL     1      -8.981   2.973  -2.869  0.00  0.00    +0.049 A 
ATOM     21  C   UNL     1      -9.644   1.768  -3.034  0.00  0.00    +0.161 A 
ATOM     22  C   UNL     1      -9.357   0.698  -2.192  0.00  0.00    +0.162 A 
ATOM     23  C   UNL     1      -8.410   0.843  -1.191  0.00  0.00    +0.053 A 
BRANCH  22  24
ATOM     24  O   UNL     1     -10.006  -0.487  -2.350  0.00  0.00    -0.491 OA
ATOM     25  C   UNL     1      -9.660  -1.541  -1.449  0.00  0.00    +0.277 C 
ENDBRANCH  22  24
BRANCH  21  26
ATOM     26  O   UNL     1     -10.573   1.630  -4.018  0.00  0.00    -0.491 OA
ATOM     27  C   UNL     1     -10.816   2.770  -4.845  0.00  0.00    +0.277 C 
ENDBRANCH  21  26
ENDBRANCH  17  18
ENDBRANCH  16  17
ENDBRANCH   3  16
TORSDOF 6
