REMARK  Name = ZINC09375038
REMARK  5 active torsions:
REMARK  status: ('A' for Active; 'I' for Inactive)
REMARK    1  A    between atoms: C_1  and  O_2
REMARK    2  A    between atoms: O_2  and  C_3
REMARK    3  A    between atoms: C_6  and  C_9
REMARK    4  A    between atoms: C_14  and  C_20
REMARK    5  A    between atoms: N_22  and  C_23
REMARK                            x       y       z     vdW  Elec       q    Type
REMARK                         _______ _______ _______ _____ _____    ______ ____
ROOT
ATOM      1  C   UNL     1       2.496  -2.504  -4.386  0.00  0.00    +0.032 C 
ATOM      2  C   UNL     1       3.655  -3.370  -3.887  0.00  0.00    +0.062 C 
ATOM      3  C   UNL     1       4.273  -4.104  -5.053  0.00  0.00    +0.042 C 
ATOM      4  C   UNL     1       3.507  -4.412  -6.182  0.00  0.00    +0.026 C 
ATOM      5  C   UNL     1       4.147  -5.088  -7.372  0.00  0.00    +0.119 C 
ATOM      6  C   UNL     1       5.310  -5.962  -6.906  0.00  0.00    +0.115 C 
ATOM      7  C   UNL     1       6.134  -5.199  -5.902  0.00  0.00    +0.237 C 
ATOM      8  N   UNL     1       5.548  -4.437  -4.988  0.00  0.00    -0.185 NA
ATOM      9  O   UNL     1       7.346  -5.283  -5.929  0.00  0.00    -0.274 OA
ATOM     10  C   UNL     1       2.189  -4.107  -6.244  0.00  0.00    +0.162 C 
ATOM     11  O   UNL     1       1.488  -4.439  -7.344  0.00  0.00    -0.292 OA
ATOM     12  C   UNL     1       1.490  -3.402  -5.114  0.00  0.00    +0.088 C 
ENDROOT
BRANCH   1  16
ATOM     13  C   UNL     1       0.587  -0.609  -1.065  0.00  0.00    +0.120 A 
ATOM     14  C   UNL     1       1.148   0.159  -2.075  0.00  0.00    +0.046 A 
ATOM     15  C   UNL     1       1.765  -0.456  -3.147  0.00  0.00    +0.007 A 
ATOM     16  C   UNL     1       1.823  -1.836  -3.215  0.00  0.00    -0.043 A 
ATOM     17  C   UNL     1       1.264  -2.604  -2.210  0.00  0.00    +0.007 A 
ATOM     18  C   UNL     1       0.651  -1.993  -1.132  0.00  0.00    +0.046 A 
BRANCH  13  20
ATOM     19  C   UNL     1      -0.049   1.422  -0.006  0.00  0.00    +0.277 C 
ATOM     20  O   UNL     1      -0.020  -0.007  -0.009  0.00  0.00    -0.495 OA
ENDBRANCH  13  20
ENDBRANCH   1  16
BRANCH   5  21
ATOM     21  C   UNL     1       4.660  -4.041  -8.327  0.00  0.00    +0.225 C 
ATOM     22  O   UNL     1       4.521  -2.864  -8.069  0.00  0.00    -0.275 OA
ATOM     23  N   UNL     1       5.273  -4.413  -9.468  0.00  0.00    -0.285 N 
ATOM     24  H   UNL     1       5.444  -5.351  -9.644  0.00  0.00    +0.155 HD
BRANCH  23  25
ATOM     25  C   UNL     1       5.663  -3.445 -10.400  0.00  0.00    +0.033 A 
ATOM     26  C   UNL     1       5.596  -3.721 -11.760  0.00  0.00    +0.023 A 
ATOM     27  C   UNL     1       5.982  -2.763 -12.677  0.00  0.00    +0.002 A 
ATOM     28  C   UNL     1       6.434  -1.531 -12.243  0.00  0.00    +0.000 A 
ATOM     29  C   UNL     1       6.502  -1.253 -10.890  0.00  0.00    +0.002 A 
ATOM     30  C   UNL     1       6.112  -2.204  -9.968  0.00  0.00    +0.023 A 
ENDBRANCH  23  25
ENDBRANCH   5  21
TORSDOF 4
