REMARK  Name = ZINC37264005
REMARK  9 active torsions:
REMARK  status: ('A' for Active; 'I' for Inactive)
REMARK    1  A    between atoms: C_1  and  C_2
REMARK    2  A    between atoms: C_2  and  C_3
REMARK    3  A    between atoms: C_2  and  C_4
REMARK    4  A    between atoms: C_2  and  C_5
REMARK    5  A    between atoms: N_8  and  C_10
REMARK    6  A    between atoms: N_17  and  C_31
REMARK    7  A    between atoms: C_22  and  C_24
REMARK    8  A    between atoms: C_31  and  C_32
REMARK    9  A    between atoms: N_34  and  C_35
REMARK                            x       y       z     vdW  Elec       q    Type
REMARK                         _______ _______ _______ _____ _____    ______ ____
ROOT
ATOM      1  C   UNL     1      -1.321   0.206  -2.177  0.00  0.00    +0.075 A 
ATOM      2  C   UNL     1      -1.523  -1.131  -2.523  0.00  0.00    +0.034 A 
ATOM      3  C   UNL     1      -1.441  -1.228  -3.871  0.00  0.00    +0.136 A 
ATOM      4  N   UNL     1      -1.198   0.007  -4.368  0.00  0.00    -0.216 N 
ATOM      5  N   UNL     1      -1.132   0.891  -3.280  0.00  0.00    -0.169 NA
ATOM      6  N   UNL     1      -1.584  -2.432  -4.577  0.00  0.00    -0.246 N 
ATOM      7  C   UNL     1      -0.895  -3.500  -4.164  0.00  0.00    +0.231 C 
ATOM      8  O   UNL     1      -1.213  -4.608  -4.542  0.00  0.00    -0.274 OA
ATOM      9  C   UNL     1       0.270  -3.334  -3.235  0.00  0.00    +0.166 C 
ATOM     10  S   UNL     1      -0.285  -3.320  -1.498  0.00  0.00    -0.138 S 
ATOM     11  C   UNL     1      -1.790  -2.285  -1.592  0.00  0.00    +0.115 C 
ENDROOT
BRANCH   4  12
ATOM     12  C   UNL     1      -1.048   0.343  -5.721  0.00  0.00    +0.086 A 
ATOM     13  C   UNL     1      -0.337  -0.494  -6.570  0.00  0.00    +0.029 A 
ATOM     14  C   UNL     1      -0.190  -0.161  -7.902  0.00  0.00    +0.002 A 
ATOM     15  C   UNL     1      -0.749   1.006  -8.391  0.00  0.00    +0.002 A 
ATOM     16  C   UNL     1      -1.458   1.842  -7.549  0.00  0.00    +0.022 A 
ATOM     17  C   UNL     1      -1.614   1.511  -6.216  0.00  0.00    +0.066 A 
ATOM     18 CL   UNL     1      -2.511   2.557  -5.160  0.00  0.00    -0.081 Cl
ENDBRANCH   4  12
BRANCH  11  19
ATOM     19  C   UNL     1      -2.130  -1.760  -0.221  0.00  0.00    +0.005 A 
ATOM     20  C   UNL     1      -3.425  -1.375   0.071  0.00  0.00    +0.008 A 
ATOM     21  C   UNL     1      -3.737  -0.894   1.329  0.00  0.00    +0.000 A 
ATOM     22  C   UNL     1      -2.754  -0.797   2.296  0.00  0.00    +0.003 A 
ATOM     23  C   UNL     1      -1.458  -1.181   2.007  0.00  0.00    +0.038 A 
ATOM     24  C   UNL     1      -1.146  -1.669   0.749  0.00  0.00    +0.128 A 
ATOM     25  F   UNL     1       0.119  -2.050   0.467  0.00  0.00    -0.205 F 
ENDBRANCH  11  19
BRANCH   1  27
ATOM     26  C   UNL     1      -1.135   2.284  -0.837  0.00  0.00    +0.017 C 
ATOM     27  C   UNL     1      -1.327   0.767  -0.779  0.00  0.00    +0.007 C 
ATOM     28  C   UNL     1      -0.188   0.139   0.027  0.00  0.00    +0.017 C 
ATOM     29  C   UNL     1      -2.664   0.447  -0.106  0.00  0.00    +0.017 C 
ENDBRANCH   1  27
BRANCH   6  30
ATOM     30  C   UNL     1      -2.471  -2.517  -5.740  0.00  0.00    +0.210 C 
BRANCH  30  31
ATOM     31  C   UNL     1      -3.858  -2.893  -5.288  0.00  0.00    +0.231 C 
ATOM     32  O   UNL     1      -4.109  -2.978  -4.105  0.00  0.00    -0.274 OA
ATOM     33  N   UNL     1      -4.821  -3.135  -6.200  0.00  0.00    -0.311 N 
ATOM     34  H   UNL     1      -4.602  -3.152  -7.145  0.00  0.00    +0.149 HD
BRANCH  33  35
ATOM     35  C   UNL     1      -6.199  -3.374  -5.764  0.00  0.00    +0.073 C 
ATOM     36  C   UNL     1      -6.970  -4.507  -6.445  0.00  0.00    +0.024 C 
ATOM     37  C   UNL     1      -7.320  -3.050  -6.754  0.00  0.00    +0.024 C 
ENDBRANCH  33  35
ENDBRANCH  30  31
ENDBRANCH   6  30
TORSDOF 6
