REMARK  Name = ZINC44449903
REMARK  5 active torsions:
REMARK  status: ('A' for Active; 'I' for Inactive)
REMARK    1  A    between atoms: C_1  and  O_2
REMARK    2  A    between atoms: O_2  and  C_3
REMARK    3  A    between atoms: C_3  and  C_5
REMARK    4  A    between atoms: C_14  and  N_17
REMARK    5  A    between atoms: N_20  and  C_21
REMARK                            x       y       z     vdW  Elec       q    Type
REMARK                         _______ _______ _______ _____ _____    ______ ____
ROOT
ATOM      1  C   UNL     1       0.689  -2.115   1.083  0.00  0.00    +0.070 C 
ATOM      2  C   UNL     1      -0.735  -2.673   1.124  0.00  0.00    +0.021 C 
ATOM      3  C   UNL     1      -0.682  -4.201   1.190  0.00  0.00    -0.008 C 
ATOM      4  C   UNL     1       0.041  -4.739  -0.046  0.00  0.00    +0.007 C 
ATOM      5  C   UNL     1       1.465  -4.181  -0.088  0.00  0.00    -0.008 C 
ATOM      6  C   UNL     1       1.412  -2.654  -0.153  0.00  0.00    +0.021 C 
ATOM      7  C   UNL     1       2.218  -4.612   1.173  0.00  0.00    +0.029 C 
ATOM      8  C   UNL     1       1.495  -4.073   2.408  0.00  0.00    +0.038 C 
ATOM      9  C   UNL     1       0.071  -4.631   2.450  0.00  0.00    +0.029 C 
ATOM     10  C   UNL     1       1.442  -2.546   2.343  0.00  0.00    +0.044 C 
ENDROOT
BRANCH   8  11
ATOM     11  N   UNL     1       2.216  -4.486   3.615  0.00  0.00    -0.294 N 
ATOM     12  C   UNL     1       2.388  -5.795   3.883  0.00  0.00    +0.304 C 
ATOM     13  O   UNL     1       1.943  -6.635   3.124  0.00  0.00    -0.252 OA
ATOM     14  N   UNL     1       3.051  -6.175   4.993  0.00  0.00    -0.269 N 
ATOM     15  H   UNL     1       2.571  -3.816   4.221  0.00  0.00    +0.151 HD
ATOM     16  H   UNL     1       3.463  -5.507   5.564  0.00  0.00    +0.156 HD
BRANCH  14  17
ATOM     17  C   UNL     1       3.146  -7.532   5.322  0.00  0.00    +0.036 A 
ATOM     18  C   UNL     1       3.123  -7.928   6.654  0.00  0.00    +0.023 A 
ATOM     19  C   UNL     1       3.216  -9.267   6.976  0.00  0.00    +0.003 A 
ATOM     20  C   UNL     1       3.332 -10.215   5.975  0.00  0.00    +0.020 A 
ATOM     21  C   UNL     1       3.355  -9.824   4.648  0.00  0.00    +0.043 A 
ATOM     22  C   UNL     1       3.256  -8.485   4.319  0.00  0.00    +0.043 A 
ATOM     23 CL   UNL     1       3.501 -11.016   3.395  0.00  0.00    -0.083 Cl
ENDBRANCH  14  17
ENDBRANCH   8  11
BRANCH   1  24
ATOM     24  C   UNL     1       0.637  -0.610   1.018  0.00  0.00    +0.313 C 
ATOM     25  O   UNL     1       1.150   0.050   1.891  0.00  0.00    -0.250 OA
BRANCH  24  27
ATOM     26  C   UNL     1       0.010   1.426  -0.005  0.00  0.00    +0.280 C 
ATOM     27  O   UNL     1       0.021  -0.003  -0.008  0.00  0.00    -0.468 OA
ENDBRANCH  24  27
ENDBRANCH   1  24
TORSDOF 4
