REMARK  Name = ZINC00636541
REMARK  11 active torsions:
REMARK  status: ('A' for Active; 'I' for Inactive)
REMARK    1  A    between atoms: C_1  and  C_2
REMARK    2  A    between atoms: C_4  and  O_19
REMARK    3  A    between atoms: C_10  and  C_13
REMARK    4  A    between atoms: C_15  and  C_18
REMARK    5  A    between atoms: O_19  and  C_20
REMARK    6  A    between atoms: C_20  and  C_22
REMARK    7  A    between atoms: C_22  and  C_24
REMARK    8  A    between atoms: C_22  and  N_25
REMARK    9  A    between atoms: C_26  and  O_28
REMARK   10  A    between atoms: O_28  and  C_29
REMARK   11  A    between atoms: C_29  and  C_30
REMARK                            x       y       z     vdW  Elec       q    Type
REMARK                         _______ _______ _______ _____ _____    ______ ____
ROOT
ATOM      1  C   UNL     1      -1.019   3.133  -2.549  0.00  0.00    +0.045 C 
ATOM      2  C   UNL     1      -1.311   3.783  -1.222  0.00  0.00    -0.033 A 
ATOM      3  C   UNL     1      -2.371   4.637  -1.095  0.00  0.00    +0.050 A 
ATOM      4  C   UNL     1      -2.644   5.241   0.131  0.00  0.00    +0.135 A 
ATOM      5  C   UNL     1      -1.849   4.986   1.235  0.00  0.00    +0.093 A 
ATOM      6  C   UNL     1      -0.768   4.120   1.123  0.00  0.00    +0.142 A 
ATOM      7  C   UNL     1      -0.501   3.517  -0.118  0.00  0.00    +0.068 A 
ATOM      8  C   UNL     1       0.650   2.601  -0.218  0.00  0.00    +0.202 A 
ATOM      9  O   UNL     1       0.936   2.045  -1.264  0.00  0.00    -0.286 OA
ATOM     10  C   UNL     1       1.439   2.390   1.010  0.00  0.00    +0.089 A 
ATOM     11  C   UNL     1       1.066   3.041   2.145  0.00  0.00    +0.210 A 
ATOM     12  O   UNL     1       0.012   3.858   2.191  0.00  0.00    -0.462 OA
ENDROOT
BRANCH  10  13
ATOM     13  C   UNL     1       2.611   1.490   1.007  0.00  0.00    +0.115 A 
ATOM     14  N   UNL     1       3.437   1.182   1.997  0.00  0.00    -0.244 NA
ATOM     15  C   UNL     1       4.438   0.350   1.815  0.00  0.00    +0.046 A 
ATOM     16  C   UNL     1       4.645  -0.202   0.591  0.00  0.00    +0.070 A 
ATOM     17  S   UNL     1       3.301   0.530  -0.334  0.00  0.00    -0.075 S 
ATOM     18  C   UNL     1       5.357   0.013   2.960  0.00  0.00    +0.066 C 
ENDBRANCH  10  13
BRANCH   4  19
ATOM     19  O   UNL     1      -3.700   6.087   0.243  0.00  0.00    -0.424 OA
BRANCH  19  20
ATOM     20  C   UNL     1      -4.926   5.547   0.156  0.00  0.00    +0.333 C 
ATOM     21  O   UNL     1      -5.054   4.348   0.081  0.00  0.00    -0.248 OA
BRANCH  20  22
ATOM     22  C   UNL     1      -6.143   6.436   0.152  0.00  0.00    +0.182 C 
ATOM     23  C   UNL     1      -6.187   7.246   1.449  0.00  0.00    +0.040 C 
BRANCH  22  24
ATOM     24  N   UNL     1      -7.350   5.612   0.049  0.00  0.00    -0.268 N 
ATOM     25  C   UNL     1      -8.480   6.134  -0.467  0.00  0.00    +0.401 C 
ATOM     26  O   UNL     1      -8.498   7.288  -0.847  0.00  0.00    -0.226 OA
ATOM     27  H   UNL     1      -7.335   4.691   0.353  0.00  0.00    +0.153 HD
BRANCH  25  28
ATOM     28  O   UNL     1      -9.589   5.376  -0.561  0.00  0.00    -0.446 OA
BRANCH  28  29
ATOM     29  C   UNL     1     -10.770   6.004  -1.127  0.00  0.00    +0.269 C 
BRANCH  29  30
ATOM     30  C   UNL     1     -11.904   5.011  -1.151  0.00  0.00    -0.010 A 
ATOM     31  C   UNL     1     -12.092   4.205  -2.258  0.00  0.00    +0.007 A 
ATOM     32  C   UNL     1     -13.129   3.291  -2.279  0.00  0.00    +0.000 A 
ATOM     33  C   UNL     1     -13.983   3.190  -1.198  0.00  0.00    +0.000 A 
ATOM     34  C   UNL     1     -13.798   4.000  -0.093  0.00  0.00    +0.000 A 
ATOM     35  C   UNL     1     -12.758   4.911  -0.070  0.00  0.00    +0.007 A 
ENDBRANCH  29  30
ENDBRANCH  28  29
ENDBRANCH  25  28
ENDBRANCH  22  24
ENDBRANCH  20  22
ENDBRANCH  19  20
ENDBRANCH   4  19
TORSDOF 8
