REMARK  Name = ZINC08767207
REMARK  11 active torsions:
REMARK  status: ('A' for Active; 'I' for Inactive)
REMARK    1  A    between atoms: C_1  and  C_2
REMARK    2  A    between atoms: C_3  and  C_34
REMARK    3  A    between atoms: C_4  and  C_25
REMARK    4  A    between atoms: C_10  and  C_11
REMARK    5  A    between atoms: C_14  and  N_16
REMARK    6  A    between atoms: C_21  and  N_69
REMARK    7  A    between atoms: C_28  and  C_31
REMARK    8  A    between atoms: C_31  and  C_32
REMARK    9  A    between atoms: C_31  and  C_33
REMARK   10  A    between atoms: C_34  and  O_36
REMARK   11  A    between atoms: O_36  and  C_37
REMARK                            x       y       z     vdW  Elec       q    Type
REMARK                         _______ _______ _______ _____ _____    ______ ____
ROOT
ATOM      1  C   UNL     1       3.707   3.326   0.213  0.00  0.00    +0.066 C 
ATOM      2  C   UNL     1       2.428   4.115   0.109  0.00  0.00    +0.053 C 
ATOM      3  C   UNL     1       1.261   3.474  -0.208  0.00  0.00    +0.085 C 
ATOM      4  C   UNL     1      -0.002   4.301  -0.297  0.00  0.00    +0.162 C 
ATOM      5  N   UNL     1       0.124   5.762  -0.036  0.00  0.00    -0.275 N 
ATOM      6  C   UNL     1      -0.868   6.661  -0.064  0.00  0.00    +0.268 A 
ATOM      7  O   UNL     1      -2.011   6.325  -0.322  0.00  0.00    -0.266 OA
ATOM      8  C   UNL     1      -0.551   8.013   0.212  0.00  0.00    +0.084 A 
ATOM      9  C   UNL     1      -1.379   9.116   0.245  0.00  0.00    +0.067 C 
ATOM     10  S   UNL     1       1.206   7.907   0.506  0.00  0.00    -0.046 S 
ATOM     11  C   UNL     1       1.391   6.203   0.261  0.00  0.00    +0.178 A 
ATOM     12  N   UNL     1       2.443   5.424   0.320  0.00  0.00    -0.228 NA
ENDROOT
BRANCH   4  13
ATOM     13  C   UNL     1      -0.995   3.738   0.687  0.00  0.00    -0.020 A 
ATOM     14  C   UNL     1      -0.893   4.054   2.029  0.00  0.00    +0.006 A 
ATOM     15  C   UNL     1      -1.807   3.542   2.931  0.00  0.00    +0.004 A 
ATOM     16  C   UNL     1      -2.816   2.705   2.492  0.00  0.00    -0.045 A 
ATOM     17  C   UNL     1      -2.914   2.384   1.151  0.00  0.00    +0.004 A 
ATOM     18  C   UNL     1      -2.003   2.901   0.248  0.00  0.00    +0.006 A 
BRANCH  16  19
ATOM     19  C   UNL     1      -3.809   2.142   3.476  0.00  0.00    +0.013 C 
ATOM     20  C   UNL     1      -3.070   1.311   4.527  0.00  0.00    +0.012 C 
ATOM     21  C   UNL     1      -4.553   3.289   4.163  0.00  0.00    +0.012 C 
ENDBRANCH  16  19
ENDBRANCH   4  13
BRANCH   9  22
ATOM     22  C   UNL     1      -0.849  10.383   0.546  0.00  0.00    +0.131 A 
ATOM     23  C   UNL     1      -1.561  11.571   0.607  0.00  0.00    +0.051 A 
ATOM     24  C   UNL     1      -0.644  12.571   0.938  0.00  0.00    +0.066 A 
ATOM     25  C   UNL     1       0.579  11.975   1.058  0.00  0.00    +0.189 A 
ATOM     26  O   UNL     1       0.446  10.660   0.820  0.00  0.00    -0.442 OA
BRANCH  25  27
ATOM     27  N   UNL     1       1.758  12.618   1.372  0.00  0.00    -0.305 N 
ATOM     28  C   UNL     1       2.032  13.709   0.426  0.00  0.00    +0.089 C 
ATOM     29  C   UNL     1       3.303  14.446   0.854  0.00  0.00    -0.060 C 
ATOM     30  C   UNL     1       4.151  12.407   1.845  0.00  0.00    -0.060 C 
ATOM     31  C   UNL     1       2.880  11.670   1.416  0.00  0.00    +0.089 C 
ATOM     32  C   UNL     1       5.680  14.183   1.233  0.00  0.00    -0.096 C 
ATOM     33  N   UNL     1       4.427  13.486   0.873  0.00  0.00    +0.380 N 
ATOM     34  H   UNL     1       4.530  13.075  -0.062  0.00  0.00    -0.082 HD
ENDBRANCH  25  27
ENDBRANCH   9  22
BRANCH   3  35
ATOM     35  C   UNL     1       1.236   2.090  -0.439  0.00  0.00    +0.339 C 
ATOM     36  O   UNL     1       2.254   1.433  -0.313  0.00  0.00    -0.245 OA
BRANCH  35  37
ATOM     37  O   UNL     1       0.083   1.486  -0.800  0.00  0.00    -0.465 OA
ATOM     38  C   UNL     1       0.131   0.075  -1.019  0.00  0.00    +0.280 C 
ENDBRANCH  35  37
ENDBRANCH   3  35
TORSDOF 6
