REMARK  Name = ZINC32116865
REMARK  7 active torsions:
REMARK  status: ('A' for Active; 'I' for Inactive)
REMARK    1  A    between atoms: C_6  and  N_7
REMARK    2  A    between atoms: C_8  and  C_10
REMARK    3  A    between atoms: C_10  and  C_29
REMARK    4  A    between atoms: C_11  and  C_12
REMARK    5  A    between atoms: C_15  and  S_21
REMARK    6  A    between atoms: C_16  and  N_18
REMARK    7  A    between atoms: S_21  and  C_22
REMARK                            x       y       z     vdW  Elec       q    Type
REMARK                         _______ _______ _______ _____ _____    ______ ____
ROOT
ATOM      1  C   UNL     1      -1.476   2.744  -0.320  0.00  0.00    -0.021 A 
ATOM      2  C   UNL     1      -1.800   1.390  -0.498  0.00  0.00    +0.009 A 
ATOM      3  C   UNL     1      -0.813   0.479  -0.736  0.00  0.00    +0.018 A 
ATOM      4  C   UNL     1       0.517   0.893  -0.813  0.00  0.00    +0.043 A 
ATOM      5  C   UNL     1       0.844   2.238  -0.641  0.00  0.00    +0.140 A 
ATOM      6  C   UNL     1      -0.136   3.155  -0.397  0.00  0.00    +0.041 A 
ENDROOT
BRANCH   5   7
ATOM      7  N   UNL     1       2.257   2.671  -0.723  0.00  0.00    +0.058 N 
ATOM      8  O   UNL     1       2.545   3.845  -0.573  0.00  0.00    -0.126 OA
ATOM      9  O   UNL     1       3.133   1.853  -0.940  0.00  0.00    -0.126 OA
ENDBRANCH   5   7
BRANCH   1  11
ATOM     10  C   UNL     1      -3.527   3.437   0.851  0.00  0.00    +0.114 C 
ATOM     11  C   UNL     1      -2.530   3.723  -0.059  0.00  0.00    +0.032 C 
BRANCH  10  13
ATOM     12  N   UNL     1      -4.427   1.913   2.532  0.00  0.00    -0.281 N 
ATOM     13  C   UNL     1      -3.393   2.282   1.750  0.00  0.00    +0.259 C 
ATOM     14  O   UNL     1      -2.348   1.659   1.789  0.00  0.00    -0.269 OA
ATOM     15  H   UNL     1      -5.403   2.408   2.424  0.00  0.00    +0.155 HD
BRANCH  12  21
ATOM     16  C   UNL     1      -5.312   0.048   3.785  0.00  0.00    +0.025 A 
ATOM     17  C   UNL     1      -5.142  -0.955   4.719  0.00  0.00    +0.022 A 
ATOM     18  C   UNL     1      -3.925  -1.104   5.362  0.00  0.00    +0.041 A 
ATOM     19  C   UNL     1      -2.875  -0.253   5.066  0.00  0.00    +0.022 A 
ATOM     20  C   UNL     1      -3.038   0.748   4.128  0.00  0.00    +0.025 A 
ATOM     21  C   UNL     1      -4.258   0.900   3.482  0.00  0.00    +0.034 A 
ATOM     22 CL   UNL     1      -3.716  -2.361   6.540  0.00  0.00    -0.084 Cl
ENDBRANCH  12  21
ENDBRANCH  10  13
BRANCH  10  23
ATOM     23  C   UNL     1      -4.693   4.266   0.919  0.00  0.00    +0.104 C 
ATOM     24  N   UNL     1      -5.618   4.923   0.973  0.00  0.00    -0.191 NA
ENDBRANCH  10  23
ENDBRANCH   1  11
BRANCH   4  25
ATOM     25  S   UNL     1       1.787  -0.286  -1.127  0.00  0.00    -0.087 S 
BRANCH  25  26
ATOM     26  C   UNL     1       2.202  -0.026  -2.820  0.00  0.00    +0.013 A 
ATOM     27  C   UNL     1       1.607   1.009  -3.531  0.00  0.00    +0.016 A 
ATOM     28  C   UNL     1       1.938   1.214  -4.856  0.00  0.00    +0.021 A 
ATOM     29  C   UNL     1       2.853   0.383  -5.478  0.00  0.00    +0.041 A 
ATOM     30  C   UNL     1       3.443  -0.652  -4.774  0.00  0.00    +0.021 A 
ATOM     31  C   UNL     1       3.120  -0.858  -3.447  0.00  0.00    +0.016 A 
ATOM     32 CL   UNL     1       3.262   0.641  -7.146  0.00  0.00    -0.084 Cl
ENDBRANCH  25  26
ENDBRANCH   4  25
TORSDOF 7
