REMARK  Name = ZINC39696294
REMARK  7 active torsions:
REMARK  status: ('A' for Active; 'I' for Inactive)
REMARK    1  A    between atoms: C_1  and  C_2
REMARK    2  A    between atoms: C_2  and  C_3
REMARK    3  A    between atoms: C_6  and  C_9
REMARK    4  A    between atoms: C_9  and  C_11
REMARK    5  A    between atoms: C_9  and  N_12
REMARK    6  A    between atoms: C_13  and  C_15
REMARK    7  A    between atoms: C_26  and  C_28
REMARK                            x       y       z     vdW  Elec       q    Type
REMARK                         _______ _______ _______ _____ _____    ______ ____
ROOT
ATOM      1  C   UNL     1       1.746  -4.919   6.819  0.00  0.00    +0.100 C 
ATOM      2  C   UNL     1       0.864  -4.273   7.911  0.00  0.00    +0.121 C 
ATOM      3  N   UNL     1       0.855  -5.259   9.017  0.00  0.00    -0.295 N 
ATOM      4  C   UNL     1       2.242  -5.781   9.056  0.00  0.00    +0.115 C 
ATOM      5  C   UNL     1       2.650  -5.908   7.575  0.00  0.00    -0.004 C 
ATOM      6  C   UNL     1       4.116  -5.526   7.397  0.00  0.00    -0.010 C 
ATOM      7  C   UNL     1       4.997  -6.556   8.108  0.00  0.00    -0.082 C 
ATOM      8  N   UNL     1       4.746  -7.888   7.546  0.00  0.00    +0.379 N 
ATOM      9  C   UNL     1       3.357  -8.287   7.804  0.00  0.00    -0.082 C 
ATOM     10  C   UNL     1       2.406  -7.330   7.080  0.00  0.00    -0.010 C 
ATOM     11  C   UNL     1      -0.180  -5.604   9.809  0.00  0.00    +0.265 C 
ATOM     12  O   UNL     1      -0.007  -6.373  10.733  0.00  0.00    -0.268 OA
ATOM     13  H   UNL     1       4.910  -7.869   6.551  0.00  0.00    -0.086 HD
ATOM     14  H   UNL     1       5.371  -8.556   7.973  0.00  0.00    -0.086 HD
ENDROOT
BRANCH  11  15
ATOM     15  C   UNL     1      -1.528  -5.044   9.552  0.00  0.00    +0.126 A 
ATOM     16  C   UNL     1      -2.569  -5.322  10.450  0.00  0.00    +0.033 A 
ATOM     17  C   UNL     1      -3.815  -4.812  10.225  0.00  0.00    +0.012 A 
ATOM     18  C   UNL     1      -4.011  -4.014   9.082  0.00  0.00    +0.000 A 
ATOM     19  C   UNL     1      -5.267  -3.457   8.789  0.00  0.00    +0.010 A 
ATOM     20  C   UNL     1      -5.420  -2.690   7.675  0.00  0.00    +0.001 A 
ATOM     21  C   UNL     1      -4.346  -2.449   6.819  0.00  0.00    +0.002 A 
ATOM     22  C   UNL     1      -3.116  -2.972   7.070  0.00  0.00    +0.028 A 
ATOM     23  C   UNL     1      -2.917  -3.771   8.213  0.00  0.00    +0.072 A 
ATOM     24  N   UNL     1      -1.721  -4.291   8.486  0.00  0.00    -0.242 NA
ENDBRANCH  11  15
BRANCH   1  26
ATOM     25  N   UNL     1       3.088  -4.112   4.904  0.00  0.00    -0.308 N 
ATOM     26  C   UNL     1       2.578  -3.870   6.128  0.00  0.00    +0.219 C 
ATOM     27  O   UNL     1       2.789  -2.807   6.673  0.00  0.00    -0.275 OA
ATOM     28  H   UNL     1       2.919  -4.962   4.468  0.00  0.00    +0.149 HD
BRANCH  25  29
ATOM     29  C   UNL     1       3.897  -3.093   4.233  0.00  0.00    +0.100 C 
ATOM     30  C   UNL     1       2.978  -2.116   3.495  0.00  0.00    +0.033 C 
BRANCH  29  34
ATOM     31  C   UNL     1       6.519  -4.973   1.433  0.00  0.00    -0.048 A 
ATOM     32  C   UNL     1       6.970  -3.914   2.199  0.00  0.00    +0.004 A 
ATOM     33  C   UNL     1       6.122  -3.306   3.105  0.00  0.00    +0.006 A 
ATOM     34  C   UNL     1       4.822  -3.756   3.245  0.00  0.00    -0.027 A 
ATOM     35  C   UNL     1       4.371  -4.814   2.478  0.00  0.00    +0.006 A 
ATOM     36  C   UNL     1       5.218  -5.420   1.569  0.00  0.00    +0.004 A 
BRANCH  31  38
ATOM     37  C   UNL     1       7.333  -4.935  -0.909  0.00  0.00    +0.009 C 
ATOM     38  C   UNL     1       7.444  -5.637   0.446  0.00  0.00    +0.032 C 
ENDBRANCH  31  38
ENDBRANCH  29  34
ENDBRANCH  25  29
ENDBRANCH   1  26
TORSDOF 5
