REMARK  Name = ZINC00717250
REMARK  3 active torsions:
REMARK  status: ('A' for Active; 'I' for Inactive)
REMARK    1  A    between atoms: C_5  and  C_7
REMARK    2  A    between atoms: C_12  and  C_22
REMARK    3  A    between atoms: C_25  and  O_28
REMARK                            x       y       z     vdW  Elec       q    Type
REMARK                         _______ _______ _______ _____ _____    ______ ____
ROOT
ATOM      1  C   UNL     1      -5.372  -0.133  -1.562  0.00  0.00    +0.033 C 
ATOM      2  C   UNL     1      -3.904  -0.249  -1.153  0.00  0.00    +0.059 C 
ATOM      3  C   UNL     1      -3.349   1.126  -0.823  0.00  0.00    +0.017 C 
ATOM      4  C   UNL     1      -3.791   2.213  -1.478  0.00  0.00    +0.036 C 
ATOM      5  C   UNL     1      -3.309   3.629  -1.272  0.00  0.00    +0.136 C 
ATOM      6  N   UNL     1      -2.483   3.818  -0.088  0.00  0.00    -0.331 N 
ATOM      7  C   UNL     1      -1.236   3.204   0.017  0.00  0.00    +0.049 A 
ATOM      8  C   UNL     1      -0.063   3.941   0.025  0.00  0.00    +0.025 A 
ATOM      9  C   UNL     1       1.154   3.282   0.044  0.00  0.00    +0.002 A 
ATOM     10  C   UNL     1       1.200   1.900   0.056  0.00  0.00    +0.002 A 
ATOM     11  C   UNL     1       0.029   1.161   0.065  0.00  0.00    +0.025 A 
ATOM     12  C   UNL     1      -1.189   1.819   0.057  0.00  0.00    +0.052 A 
ATOM     13  N   UNL     1      -2.398   1.141   0.145  0.00  0.00    -0.316 N 
ATOM     14  C   UNL     1      -4.803   2.090  -2.459  0.00  0.00    +0.163 C 
ATOM     15  O   UNL     1      -5.170   3.087  -3.050  0.00  0.00    -0.292 OA
ATOM     16  C   UNL     1      -5.441   0.776  -2.796  0.00  0.00    +0.088 C 
ATOM     17  H   UNL     1      -2.800   4.382   0.636  0.00  0.00    +0.147 HD
ATOM     18  H   UNL     1      -2.575   0.640   0.957  0.00  0.00    +0.152 HD
ENDROOT
BRANCH   1  23
ATOM     19  C   UNL     1      -5.850  -3.486  -3.229  0.00  0.00    +0.000 A 
ATOM     20  C   UNL     1      -6.919  -3.998  -2.518  0.00  0.00    +0.001 A 
ATOM     21  C   UNL     1      -7.489  -3.260  -1.498  0.00  0.00    +0.020 A 
ATOM     22  C   UNL     1      -6.985  -2.010  -1.185  0.00  0.00    +0.044 A 
ATOM     23  C   UNL     1      -5.918  -1.496  -1.900  0.00  0.00    -0.025 A 
ATOM     24  C   UNL     1      -5.349  -2.236  -2.920  0.00  0.00    +0.005 A 
ATOM     25 CL   UNL     1      -7.694  -1.085   0.102  0.00  0.00    -0.083 Cl
ENDBRANCH   1  23
BRANCH   5  26
ATOM     26  C   UNL     1      -2.518   4.046  -2.485  0.00  0.00    -0.023 A 
ATOM     27  C   UNL     1      -2.970   5.083  -3.281  0.00  0.00    +0.009 A 
ATOM     28  C   UNL     1      -2.244   5.470  -4.390  0.00  0.00    +0.046 A 
ATOM     29  C   UNL     1      -1.067   4.810  -4.712  0.00  0.00    +0.117 A 
ATOM     30  C   UNL     1      -0.619   3.766  -3.916  0.00  0.00    +0.046 A 
ATOM     31  C   UNL     1      -1.346   3.386  -2.804  0.00  0.00    +0.009 A 
BRANCH  29  32
ATOM     32  O   UNL     1      -0.353   5.186  -5.806  0.00  0.00    -0.507 OA
ATOM     33  H   UNL     1      -0.602   4.722  -6.617  0.00  0.00    +0.292 HD
ENDBRANCH  29  32
ENDBRANCH   5  26
TORSDOF 3
