REMARK  Name = ZINC40391990
REMARK  11 active torsions:
REMARK  status: ('A' for Active; 'I' for Inactive)
REMARK    1  A    between atoms: C_1  and  C_2
REMARK    2  A    between atoms: C_2  and  N_3
REMARK    3  A    between atoms: C_4  and  C_23
REMARK    4  A    between atoms: C_5  and  C_18
REMARK    5  A    between atoms: C_6  and  C_11
REMARK    6  A    between atoms: C_14  and  C_17
REMARK    7  A    between atoms: C_18  and  O_20
REMARK    8  A    between atoms: O_20  and  C_21
REMARK    9  A    between atoms: C_21  and  C_22
REMARK   10  A    between atoms: C_23  and  N_24
REMARK   11  A    between atoms: C_30  and  C_32
REMARK                            x       y       z     vdW  Elec       q    Type
REMARK                         _______ _______ _______ _____ _____    ______ ____
ROOT
ATOM      1  N   UNL     1       0.661  -0.428   1.254  0.00  0.00    -0.258 N 
ATOM      2  C   UNL     1       2.016  -0.537   1.119  0.00  0.00    +0.041 C 
ATOM      3  C   UNL     1       2.777  -1.045   2.112  0.00  0.00    +0.080 C 
ATOM      4  C   UNL     1       2.076  -1.489   3.381  0.00  0.00    +0.144 C 
ATOM      5  N   UNL     1       0.613  -1.328   3.426  0.00  0.00    -0.288 N 
ATOM      6  C   UNL     1      -0.008  -0.799   2.353  0.00  0.00    +0.307 C 
ATOM      7  O   UNL     1      -1.215  -0.658   2.381  0.00  0.00    -0.252 OA
ATOM      8  H   UNL     1       0.108  -1.593   4.210  0.00  0.00    +0.151 HD
ENDROOT
BRANCH   4   9
ATOM      9  C   UNL     1       2.664  -0.713   4.531  0.00  0.00    -0.022 A 
ATOM     10  C   UNL     1       2.245   0.581   4.777  0.00  0.00    +0.006 A 
ATOM     11  C   UNL     1       2.784   1.293   5.833  0.00  0.00    +0.004 A 
ATOM     12  C   UNL     1       3.741   0.710   6.643  0.00  0.00    -0.050 A 
ATOM     13  C   UNL     1       4.159  -0.585   6.397  0.00  0.00    +0.004 A 
ATOM     14  C   UNL     1       3.617  -1.298   5.344  0.00  0.00    +0.006 A 
ATOM     15  C   UNL     1       4.330   1.486   7.793  0.00  0.00    +0.044 C 
ENDBRANCH   4   9
BRANCH   1  17
ATOM     16  C   UNL     1      -0.200   1.651   0.296  0.00  0.00    +0.025 C 
ATOM     17  C   UNL     1      -0.102   0.133   0.136  0.00  0.00    +0.111 C 
ENDBRANCH   1  17
BRANCH   3  18
ATOM     18  C   UNL     1       4.180  -1.160   1.973  0.00  0.00    +0.339 C 
ATOM     19  O   UNL     1       4.679  -2.238   1.709  0.00  0.00    -0.245 OA
BRANCH  18  20
ATOM     20  O   UNL     1       4.965  -0.074   2.134  0.00  0.00    -0.462 OA
BRANCH  20  21
ATOM     21  C   UNL     1       6.373  -0.263   1.979  0.00  0.00    +0.229 C 
ATOM     22  C   UNL     1       7.093   1.069   2.196  0.00  0.00    +0.048 C 
ENDBRANCH  20  21
ENDBRANCH  18  20
ENDBRANCH   3  18
BRANCH   2  23
ATOM     23  C   UNL     1       2.672  -0.084  -0.160  0.00  0.00    +0.136 C 
BRANCH  23  24
ATOM     24  N   UNL     1       2.257  -0.963  -1.262  0.00  0.00    -0.294 NA
ATOM     25  C   UNL     1       2.762  -2.328  -1.066  0.00  0.00    +0.104 C 
ATOM     26  C   UNL     1       2.161  -3.250  -2.132  0.00  0.00    +0.123 C 
ATOM     27  N   UNL     1       2.432  -2.671  -3.457  0.00  0.00    -0.299 N 
ATOM     28  C   UNL     1       2.078  -1.262  -3.686  0.00  0.00    +0.123 C 
ATOM     29  C   UNL     1       2.682  -0.418  -2.558  0.00  0.00    +0.104 C 
ATOM     30  C   UNL     1       2.989  -3.411  -4.435  0.00  0.00    +0.219 C 
ATOM     31  O   UNL     1       3.275  -4.572  -4.228  0.00  0.00    -0.275 OA
BRANCH  30  32
ATOM     32  C   UNL     1       3.258  -2.798  -5.785  0.00  0.00    +0.075 C 
ATOM     33  C   UNL     1       2.420  -3.292  -6.965  0.00  0.00    +0.013 C 
ATOM     34  C   UNL     1       3.893  -3.691  -6.853  0.00  0.00    +0.013 C 
ENDBRANCH  30  32
ENDBRANCH  23  24
ENDBRANCH   2  23
TORSDOF 8
