REMARK  Name = ZINC22364051
REMARK  14 active torsions:
REMARK  status: ('A' for Active; 'I' for Inactive)
REMARK    1  A    between atoms: C_1  and  C_2
REMARK    2  A    between atoms: C_5  and  C_9
REMARK    3  A    between atoms: C_7  and  C_8
REMARK    4  A    between atoms: C_9  and  C_11
REMARK    5  A    between atoms: C_9  and  N_12
REMARK    6  A    between atoms: C_13  and  C_15
REMARK    7  A    between atoms: C_15  and  N_16
REMARK    8  A    between atoms: N_16  and  C_17
REMARK    9  A    between atoms: N_16  and  S_24
REMARK   10  A    between atoms: S_24  and  C_27
REMARK   11  A    between atoms: C_30  and  O_35
REMARK   12  A    between atoms: C_31  and  O_33
REMARK   13  A    between atoms: O_33  and  C_34
REMARK   14  A    between atoms: O_35  and  C_36
REMARK                            x       y       z     vdW  Elec       q    Type
REMARK                         _______ _______ _______ _____ _____    ______ ____
ROOT
ATOM      1  N   UNL     1       2.122  -2.630   1.396  0.00  0.00    -0.194 N 
ENDROOT
BRANCH   1   2
ATOM      2  C   UNL     1       1.765  -2.854   2.729  0.00  0.00    +0.052 A 
ATOM      3  C   UNL     1       2.746  -3.096   3.681  0.00  0.00    +0.027 A 
ATOM      4  C   UNL     1       2.391  -3.312   4.999  0.00  0.00    +0.040 A 
ATOM      5  C   UNL     1       1.057  -3.297   5.368  0.00  0.00    +0.124 A 
ATOM      6  C   UNL     1       0.076  -3.060   4.420  0.00  0.00    +0.040 A 
ATOM      7  C   UNL     1       0.427  -2.839   3.102  0.00  0.00    +0.027 A 
ATOM      8  F   UNL     1       0.711  -3.513   6.656  0.00  0.00    -0.205 F 
ENDBRANCH   1   2
BRANCH   1   9
ATOM      9  S   UNL     1       2.808  -3.848   0.508  0.00  0.00    +0.075 S 
ATOM     10  O   UNL     1       2.522  -5.061   1.192  0.00  0.00    -0.150 OA
ATOM     11  O   UNL     1       2.427  -3.628  -0.844  0.00  0.00    -0.150 OA
BRANCH   9  12
ATOM     12  C   UNL     1       4.554  -3.628   0.582  0.00  0.00    +0.112 A 
ATOM     13  C   UNL     1       5.177  -2.755  -0.291  0.00  0.00    +0.032 A 
ATOM     14  C   UNL     1       6.546  -2.575  -0.234  0.00  0.00    +0.051 A 
ATOM     15  C   UNL     1       7.299  -3.278   0.693  0.00  0.00    +0.162 A 
ATOM     16  C   UNL     1       6.673  -4.161   1.568  0.00  0.00    +0.163 A 
ATOM     17  C   UNL     1       5.300  -4.333   1.508  0.00  0.00    +0.078 A 
BRANCH  16  18
ATOM     18  O   UNL     1       7.408  -4.853   2.479  0.00  0.00    -0.491 OA
ATOM     19  C   UNL     1       6.698  -5.741   3.345  0.00  0.00    +0.277 C 
ENDBRANCH  16  18
BRANCH  15  20
ATOM     20  O   UNL     1       8.647  -3.106   0.747  0.00  0.00    -0.491 OA
ATOM     21  C   UNL     1       9.221  -2.183  -0.181  0.00  0.00    +0.277 C 
ENDBRANCH  15  20
ENDBRANCH   9  12
ENDBRANCH   1   9
BRANCH   1  22
ATOM     22  C   UNL     1       1.891  -1.319   0.786  0.00  0.00    +0.227 C 
BRANCH  22  24
ATOM     23  N   UNL     1       3.055   0.858   0.636  0.00  0.00    -0.307 N 
ATOM     24  C   UNL     1       3.050  -0.408   1.098  0.00  0.00    +0.233 C 
ATOM     25  O   UNL     1       3.978  -0.814   1.765  0.00  0.00    -0.274 OA
ATOM     26  H   UNL     1       2.213   1.226   0.031  0.00  0.00    +0.149 HD
BRANCH  23  27
ATOM     27  C   UNL     1       4.182   1.744   0.940  0.00  0.00    +0.100 C 
ATOM     28  C   UNL     1       3.962   2.399   2.305  0.00  0.00    +0.033 C 
BRANCH  27  33
ATOM     29  C   UNL     1       4.562   5.840  -3.119  0.00  0.00    +0.044 C 
ATOM     30  C   UNL     1       4.463   4.771  -2.061  0.00  0.00    -0.048 A 
ATOM     31  C   UNL     1       3.224   4.375  -1.593  0.00  0.00    +0.004 A 
ATOM     32  C   UNL     1       3.133   3.396  -0.622  0.00  0.00    +0.006 A 
ATOM     33  C   UNL     1       4.281   2.812  -0.119  0.00  0.00    -0.027 A 
ATOM     34  C   UNL     1       5.520   3.212  -0.583  0.00  0.00    +0.009 A 
ATOM     35  C   UNL     1       5.611   4.188  -1.558  0.00  0.00    -0.047 A 
ATOM     36  C   UNL     1       6.961   4.620  -2.069  0.00  0.00    +0.044 C 
ENDBRANCH  27  33
ENDBRANCH  23  27
ENDBRANCH  22  24
ENDBRANCH   1  22
TORSDOF 9
