REMARK  Name = ZINC63546948
REMARK  10 active torsions:
REMARK  status: ('A' for Active; 'I' for Inactive)
REMARK    1  A    between atoms: C_1  and  O_2
REMARK    2  A    between atoms: O_2  and  C_3
REMARK    3  A    between atoms: C_6  and  C_9
REMARK    4  A    between atoms: C_13  and  C_23
REMARK    5  A    between atoms: C_17  and  C_19
REMARK    6  A    between atoms: N_25  and  C_26
REMARK    7  A    between atoms: C_26  and  C_27
REMARK    8  A    between atoms: C_27  and  C_28
REMARK    9  A    between atoms: C_31  and  O_37
REMARK   10  A    between atoms: O_37  and  C_38
REMARK                            x       y       z     vdW  Elec       q    Type
REMARK                         _______ _______ _______ _____ _____    ______ ____
ROOT
ATOM      1  C   UNL     1       2.493  -2.493  -4.363  0.00  0.00    +0.050 C 
ATOM      2  N   UNL     1       2.534  -3.807  -4.434  0.00  0.00    -0.342 N 
ATOM      3  C   UNL     1       3.131  -4.431  -5.480  0.00  0.00    +0.116 C 
ATOM      4  C   UNL     1       3.268  -5.752  -5.718  0.00  0.00    +0.045 C 
ATOM      5  C   UNL     1       4.014  -5.883  -7.026  0.00  0.00    +0.185 C 
ATOM      6  N   UNL     1       4.256  -4.494  -7.453  0.00  0.00    -0.218 NA
ATOM      7  N   UNL     1       3.709  -3.683  -6.495  0.00  0.00    -0.215 N 
ATOM      8  C   UNL     1       3.673  -2.310  -6.433  0.00  0.00    +0.133 C 
ATOM      9  C   UNL     1       3.071  -1.705  -5.390  0.00  0.00    +0.055 C 
ATOM     10  H   UNL     1       5.244  -4.315  -7.558  0.00  0.00    +0.146 HD
ATOM     11  H   UNL     1       2.132  -4.336  -3.727  0.00  0.00    +0.167 HD
ENDROOT
BRANCH   1  15
ATOM     12  C   UNL     1       0.605  -0.607  -1.055  0.00  0.00    +0.120 A 
ATOM     13  C   UNL     1       1.172   0.165  -2.061  0.00  0.00    +0.046 A 
ATOM     14  C   UNL     1       1.785  -0.443  -3.135  0.00  0.00    +0.013 A 
ATOM     15  C   UNL     1       1.836  -1.836  -3.211  0.00  0.00    -0.001 A 
ATOM     16  C   UNL     1       1.265  -2.608  -2.198  0.00  0.00    +0.013 A 
ATOM     17  C   UNL     1       0.659  -1.993  -1.124  0.00  0.00    +0.046 A 
BRANCH  12  19
ATOM     18  C   UNL     1      -0.017   1.425   0.010  0.00  0.00    +0.277 C 
ATOM     19  O   UNL     1       0.002  -0.004   0.002  0.00  0.00    -0.495 OA
ENDBRANCH  12  19
ENDBRANCH   1  15
BRANCH   8  20
ATOM     20  C   UNL     1       4.298  -1.485  -7.529  0.00  0.00    +0.432 C 
ATOM     21  F   UNL     1       4.133  -0.126  -7.241  0.00  0.00    -0.165 F 
ATOM     22  F   UNL     1       5.662  -1.782  -7.615  0.00  0.00    -0.165 F 
ATOM     23  F   UNL     1       3.678  -1.782  -8.747  0.00  0.00    -0.165 F 
ENDBRANCH   8  20
BRANCH   5  24
ATOM     24  C   UNL     1       3.171  -6.610  -8.042  0.00  0.00    +0.236 C 
ATOM     25  O   UNL     1       2.848  -6.054  -9.070  0.00  0.00    -0.274 OA
ATOM     26  N   UNL     1       2.775  -7.877  -7.807  0.00  0.00    -0.313 N 
ATOM     27  H   UNL     1       3.034  -8.321  -6.985  0.00  0.00    +0.149 HD
BRANCH  26  28
ATOM     28  C   UNL     1       1.955  -8.583  -8.795  0.00  0.00    +0.108 C 
BRANCH  28  29
ATOM     29  C   UNL     1       1.648  -9.993  -8.288  0.00  0.00    +0.052 C 
BRANCH  29  30
ATOM     30  C   UNL     1       0.804 -10.719  -9.304  0.00  0.00    -0.040 C 
ATOM     31  C   UNL     1       1.239 -11.558 -10.271  0.00  0.00    +0.002 A 
ATOM     32  C   UNL     1       2.575 -12.027 -10.655  0.00  0.00    +0.055 A 
ATOM     33  C   UNL     1       2.707 -12.887 -11.694  0.00  0.00    +0.121 A 
ATOM     34  C   UNL     1       1.602 -13.353 -12.428  0.00  0.00    +0.047 A 
ATOM     35  C   UNL     1       0.335 -12.977 -12.151  0.00  0.00    +0.029 A 
ATOM     36  C   UNL     1       0.076 -12.049 -11.046  0.00  0.00    +0.043 A 
ATOM     37  N   UNL     1      -1.033 -11.535 -10.575  0.00  0.00    -0.380 N 
ATOM     38  C   UNL     1      -0.701 -10.662  -9.444  0.00  0.00    +0.144 C 
ATOM     39  H   UNL     1      -1.925 -11.706 -10.916  0.00  0.00    +0.160 HD
BRANCH  33  40
ATOM     40  O   UNL     1       3.951 -13.314 -12.038  0.00  0.00    -0.495 OA
ATOM     41  C   UNL     1       4.044 -14.220 -13.139  0.00  0.00    +0.277 C 
ENDBRANCH  33  40
ENDBRANCH  29  30
ENDBRANCH  28  29
ENDBRANCH  26  28
ENDBRANCH   5  24
TORSDOF 8
