REMARK  Name = ZINC08845728
REMARK  14 active torsions:
REMARK  status: ('A' for Active; 'I' for Inactive)
REMARK    1  A    between atoms: C_1  and  C_2
REMARK    2  A    between atoms: C_5  and  O_40
REMARK    3  A    between atoms: C_6  and  C_8
REMARK    4  A    between atoms: N_16  and  C_28
REMARK    5  A    between atoms: C_17  and  C_19
REMARK    6  A    between atoms: C_22  and  O_27
REMARK    7  A    between atoms: C_23  and  O_25
REMARK    8  A    between atoms: O_25  and  C_26
REMARK    9  A    between atoms: C_28  and  C_29
REMARK   10  A    between atoms: C_29  and  C_30
REMARK   11  A    between atoms: C_33  and  O_38
REMARK   12  A    between atoms: C_34  and  O_36
REMARK   13  A    between atoms: O_36  and  C_37
REMARK   14  A    between atoms: O_38  and  C_39
REMARK                            x       y       z     vdW  Elec       q    Type
REMARK                         _______ _______ _______ _____ _____    ______ ____
ROOT
ATOM      1  C   UNL     1       0.278  -2.918   2.866  0.00  0.00    +0.102 A 
ATOM      2  C   UNL     1       0.262  -4.317   2.819  0.00  0.00    +0.035 A 
ATOM      3  C   UNL     1       0.190  -4.737   4.134  0.00  0.00    +0.126 A 
ATOM      4  N   UNL     1       0.166  -3.602   4.894  0.00  0.00    -0.272 N 
ATOM      5  H   UNL     1       0.117  -3.581   5.862  0.00  0.00    +0.189 HD
ATOM      6  N   UNL     1       0.223  -2.566   4.135  0.00  0.00    -0.173 NA
ATOM      7  C   UNL     1       0.170  -6.204   4.154  0.00  0.00    +0.265 C 
ATOM      8  O   UNL     1       0.110  -6.883   5.161  0.00  0.00    -0.268 OA
ATOM      9  N   UNL     1       0.227  -6.691   2.902  0.00  0.00    -0.285 N 
ATOM     10  C   UNL     1       0.289  -5.557   1.969  0.00  0.00    +0.141 C 
ENDROOT
BRANCH   1  16
ATOM     11  C   UNL     1      -1.310  -1.564  -1.669  0.00  0.00    +0.044 C 
ATOM     12  C   UNL     1      -0.411  -1.346  -0.479  0.00  0.00    -0.050 A 
ATOM     13  C   UNL     1       0.483  -0.289  -0.474  0.00  0.00    +0.007 A 
ATOM     14  C   UNL     1       1.311  -0.082   0.612  0.00  0.00    +0.046 A 
ATOM     15  C   UNL     1       1.251  -0.933   1.704  0.00  0.00    +0.126 A 
ATOM     16  C   UNL     1       0.349  -2.001   1.702  0.00  0.00    +0.044 A 
ATOM     17  C   UNL     1      -0.485  -2.198   0.604  0.00  0.00    +0.017 A 
BRANCH  15  18
ATOM     18  O   UNL     1       2.065  -0.731   2.772  0.00  0.00    -0.506 OA
ATOM     19  H   UNL     1       1.716  -0.102   3.419  0.00  0.00    +0.292 HD
ENDBRANCH  15  18
ENDBRANCH   1  16
BRANCH  10  20
ATOM     20  C   UNL     1       1.567  -5.611   1.171  0.00  0.00    -0.019 A 
ATOM     21  C   UNL     1       2.758  -5.927   1.797  0.00  0.00    +0.009 A 
ATOM     22  C   UNL     1       3.932  -5.978   1.069  0.00  0.00    +0.049 A 
ATOM     23  C   UNL     1       3.917  -5.712  -0.291  0.00  0.00    +0.158 A 
ATOM     24  C   UNL     1       2.717  -5.394  -0.920  0.00  0.00    +0.162 A 
ATOM     25  C   UNL     1       1.543  -5.350  -0.186  0.00  0.00    +0.055 A 
BRANCH  24  26
ATOM     26  O   UNL     1       2.697  -5.132  -2.255  0.00  0.00    -0.491 OA
ATOM     27  C   UNL     1       1.430  -4.813  -2.834  0.00  0.00    +0.277 C 
ENDBRANCH  24  26
BRANCH  23  28
ATOM     28  O   UNL     1       5.071  -5.761  -1.008  0.00  0.00    -0.503 OA
ATOM     29  H   UNL     1       5.265  -6.631  -1.381  0.00  0.00    +0.292 HD
ENDBRANCH  23  28
ENDBRANCH  10  20
BRANCH   9  30
ATOM     30  C   UNL     1       0.227  -8.108   2.531  0.00  0.00    +0.114 C 
BRANCH  30  31
ATOM     31  C   UNL     1      -1.213  -8.582   2.328  0.00  0.00    +0.054 C 
BRANCH  31  32
ATOM     32  C   UNL     1      -1.213 -10.040   1.947  0.00  0.00    -0.042 A 
ATOM     33  C   UNL     1      -1.144 -10.405   0.615  0.00  0.00    +0.007 A 
ATOM     34  C   UNL     1      -1.143 -11.741   0.260  0.00  0.00    +0.049 A 
ATOM     35  C   UNL     1      -1.212 -12.718   1.240  0.00  0.00    +0.161 A 
ATOM     36  C   UNL     1      -1.281 -12.351   2.581  0.00  0.00    +0.162 A 
ATOM     37  C   UNL     1      -1.276 -11.010   2.930  0.00  0.00    +0.053 A 
BRANCH  36  38
ATOM     38  O   UNL     1      -1.348 -13.306   3.546  0.00  0.00    -0.491 OA
ATOM     39  C   UNL     1      -1.417 -12.856   4.901  0.00  0.00    +0.277 C 
ENDBRANCH  36  38
BRANCH  35  40
ATOM     40  O   UNL     1      -1.212 -14.033   0.893  0.00  0.00    -0.491 OA
ATOM     41  C   UNL     1      -1.139 -14.335  -0.502  0.00  0.00    +0.277 C 
ENDBRANCH  35  40
ENDBRANCH  31  32
ENDBRANCH  30  31
ENDBRANCH   9  30
TORSDOF 10
