REMARK  Name = ZINC19760447
REMARK  8 active torsions:
REMARK  status: ('A' for Active; 'I' for Inactive)
REMARK    1  A    between atoms: C_1  and  C_2
REMARK    2  A    between atoms: C_3  and  C_30
REMARK    3  A    between atoms: C_4  and  C_21
REMARK    4  A    between atoms: C_10  and  C_15
REMARK    5  A    between atoms: C_25  and  N_27
REMARK    6  A    between atoms: C_30  and  O_32
REMARK    7  A    between atoms: O_32  and  C_33
REMARK    8  A    between atoms: C_33  and  C_34
REMARK                            x       y       z     vdW  Elec       q    Type
REMARK                         _______ _______ _______ _____ _____    ______ ____
ROOT
ATOM      1  C   UNL     1      -0.013   1.086   0.008  0.00  0.00    +0.061 C 
ATOM      2  C   UNL     1      -0.718   1.572   1.248  0.00  0.00    +0.016 C 
ATOM      3  C   UNL     1      -0.850   2.892   1.467  0.00  0.00    +0.065 C 
ATOM      4  C   UNL     1      -1.543   3.412   2.692  0.00  0.00    +0.092 C 
ATOM      5  C   UNL     1      -2.380   2.338   3.339  0.00  0.00    +0.024 C 
ATOM      6  C   UNL     1      -2.180   1.036   3.043  0.00  0.00    +0.016 C 
ATOM      7  N   UNL     1      -1.215   0.668   2.145  0.00  0.00    -0.321 N 
ATOM      8  C   UNL     1      -3.014  -0.044   3.688  0.00  0.00    +0.059 C 
ATOM      9  C   UNL     1      -3.439   0.401   5.088  0.00  0.00    +0.032 C 
ATOM     10  C   UNL     1      -4.224   1.712   4.964  0.00  0.00    +0.088 C 
ATOM     11  C   UNL     1      -3.368   2.729   4.260  0.00  0.00    +0.162 C 
ATOM     12  O   UNL     1      -3.533   3.911   4.491  0.00  0.00    -0.292 OA
ATOM     13  H   UNL     1      -0.840  -0.366   2.149  0.00  0.00    +0.152 HD
ENDROOT
BRANCH   9  14
ATOM     14  C   UNL     1      -4.314  -0.655   5.712  0.00  0.00    -0.044 A 
ATOM     15  C   UNL     1      -5.505  -1.013   5.107  0.00  0.00    +0.004 A 
ATOM     16  C   UNL     1      -6.305  -1.985   5.677  0.00  0.00    +0.000 A 
ATOM     17  C   UNL     1      -5.919  -2.593   6.857  0.00  0.00    +0.000 A 
ATOM     18  C   UNL     1      -4.731  -2.233   7.464  0.00  0.00    +0.000 A 
ATOM     19  C   UNL     1      -3.929  -1.263   6.892  0.00  0.00    +0.004 A 
ENDBRANCH   9  14
BRANCH   4  20
ATOM     20  C   UNL     1      -0.505   3.890   3.674  0.00  0.00    -0.033 A 
ATOM     21  C   UNL     1       0.418   3.001   4.192  0.00  0.00    +0.005 A 
ATOM     22  C   UNL     1       1.372   3.441   5.090  0.00  0.00    +0.003 A 
ATOM     23  C   UNL     1       1.398   4.768   5.478  0.00  0.00    +0.033 A 
ATOM     24  C   UNL     1       0.472   5.655   4.964  0.00  0.00    +0.126 A 
ATOM     25  C   UNL     1      -0.480   5.217   4.062  0.00  0.00    +0.037 A 
BRANCH  24  26
ATOM     26  N   UNL     1       0.499   7.076   5.378  0.00  0.00    +0.056 N 
ATOM     27  O   UNL     1      -0.318   7.858   4.926  0.00  0.00    -0.126 OA
ATOM     28  O   UNL     1       1.337   7.463   6.173  0.00  0.00    -0.126 OA
ENDBRANCH  24  26
ENDBRANCH   4  20
BRANCH   3  29
ATOM     29  C   UNL     1      -0.328   3.807   0.524  0.00  0.00    +0.338 C 
ATOM     30  O   UNL     1       0.233   3.398  -0.476  0.00  0.00    -0.245 OA
BRANCH  29  31
ATOM     31  O   UNL     1      -0.453   5.135   0.731  0.00  0.00    -0.457 OA
BRANCH  31  32
ATOM     32  C   UNL     1       0.097   6.001  -0.263  0.00  0.00    +0.268 C 
BRANCH  32  33
ATOM     33  C   UNL     1      -0.136   7.436   0.137  0.00  0.00    -0.010 A 
ATOM     34  C   UNL     1      -1.285   8.088  -0.269  0.00  0.00    +0.007 A 
ATOM     35  C   UNL     1      -1.501   9.402   0.102  0.00  0.00    +0.000 A 
ATOM     36  C   UNL     1      -0.563  10.067   0.869  0.00  0.00    +0.000 A 
ATOM     37  C   UNL     1       0.589   9.416   1.270  0.00  0.00    +0.000 A 
ATOM     38  C   UNL     1       0.802   8.100   0.904  0.00  0.00    +0.007 A 
ENDBRANCH  32  33
ENDBRANCH  31  32
ENDBRANCH  29  31
ENDBRANCH   3  29
TORSDOF 7
