REMARK  Name = ZINC35783701
REMARK  5 active torsions:
REMARK  status: ('A' for Active; 'I' for Inactive)
REMARK    1  A    between atoms: C_1  and  C_2
REMARK    2  A    between atoms: N_5  and  C_11
REMARK    3  A    between atoms: C_6  and  C_10
REMARK    4  A    between atoms: C_14  and  C_18
REMARK    5  A    between atoms: C_16  and  N_17
REMARK                            x       y       z     vdW  Elec       q    Type
REMARK                         _______ _______ _______ _____ _____    ______ ____
ROOT
ATOM      1  C   UNL     1      -2.092  -2.846  -0.654  0.00  0.00    +0.051 A 
ATOM      2  C   UNL     1      -1.485  -3.334  -1.805  0.00  0.00    +0.026 A 
ATOM      3  C   UNL     1      -2.176  -4.176  -2.649  0.00  0.00    +0.015 A 
ATOM      4  C   UNL     1      -3.491  -4.540  -2.350  0.00  0.00    +0.038 A 
ATOM      5  C   UNL     1      -4.105  -4.051  -1.193  0.00  0.00    +0.037 A 
ATOM      6  C   UNL     1      -3.405  -3.212  -0.346  0.00  0.00    +0.047 A 
ENDROOT
BRANCH   1  10
ATOM      7  C   UNL     1      -0.019   1.526   0.010  0.00  0.00    +0.039 C 
ATOM      8  C   UNL     1       0.002  -0.004   0.002  0.00  0.00    +0.132 C 
ATOM      9  C   UNL     1      -1.436  -0.536   0.015  0.00  0.00    +0.136 C 
ATOM     10  N   UNL     1      -1.389  -1.995   0.196  0.00  0.00    -0.321 N 
ATOM     11  C   UNL     1      -0.578  -2.530   1.302  0.00  0.00    +0.096 C 
ATOM     12  C   UNL     1       0.818  -1.901   1.226  0.00  0.00    +0.182 C 
ATOM     13  O   UNL     1       0.691  -0.479   1.161  0.00  0.00    -0.373 OA
ATOM     14  C   UNL     1      -1.232  -2.175   2.639  0.00  0.00    +0.030 C 
ENDBRANCH   1  10
BRANCH   4  15
ATOM     15  C   UNL     1      -4.232  -5.441  -3.254  0.00  0.00    +0.242 C 
ATOM     16  O   UNL     1      -5.377  -5.758  -2.993  0.00  0.00    -0.270 OA
ATOM     17  N   UNL     1      -3.640  -5.912  -4.370  0.00  0.00    -0.325 N 
ATOM     18  H   UNL     1      -2.727  -5.659  -4.578  0.00  0.00    +0.145 HD
ATOM     19  H   UNL     1      -4.127  -6.504  -4.964  0.00  0.00    +0.145 HD
ENDBRANCH   4  15
BRANCH   6  20
ATOM     20  N   UNL     1      -4.014  -2.724   0.817  0.00  0.00    -0.357 N 
ATOM     21  H   UNL     1      -3.524  -2.132   1.409  0.00  0.00    +0.142 HD
ATOM     22  H   UNL     1      -4.925  -2.978   1.031  0.00  0.00    +0.142 HD
ENDBRANCH   6  20
TORSDOF 3
