REMARK  Name = ZINC46569733
REMARK  8 active torsions:
REMARK  status: ('A' for Active; 'I' for Inactive)
REMARK    1  A    between atoms: C_3  and  C_28
REMARK    2  A    between atoms: C_6  and  C_7
REMARK    3  A    between atoms: C_7  and  N_8
REMARK    4  A    between atoms: N_8  and  C_9
REMARK    5  A    between atoms: N_8  and  C_25
REMARK    6  A    between atoms: C_9  and  C_10
REMARK    7  A    between atoms: N_15  and  C_16
REMARK    8  A    between atoms: C_19  and  N_22
REMARK                            x       y       z     vdW  Elec       q    Type
REMARK                         _______ _______ _______ _____ _____    ______ ____
ROOT
ATOM      1  C   UNL     1      -3.025  -1.665  -1.387  0.00  0.00    +0.020 C 
ENDROOT
BRANCH   1   2
ATOM      2  C   UNL     1      -4.042  -0.790  -0.701  0.00  0.00    +0.204 C 
ATOM      3  O   UNL     1      -3.732   0.319  -0.324  0.00  0.00    -0.277 OA
ATOM      4  N   UNL     1      -5.297  -1.242  -0.506  0.00  0.00    -0.241 N 
ATOM      5  C   UNL     1      -6.207  -0.460   0.108  0.00  0.00    +0.310 C 
ATOM      6  O   UNL     1      -5.896   0.653   0.486  0.00  0.00    -0.252 OA
ATOM      7  N   UNL     1      -7.462  -0.911   0.303  0.00  0.00    -0.269 N 
ATOM      8  H   UNL     1      -5.545  -2.130  -0.807  0.00  0.00    +0.159 HD
ATOM      9  H   UNL     1      -7.730  -1.771  -0.059  0.00  0.00    +0.156 HD
BRANCH   7  10
ATOM     10  C   UNL     1      -8.378  -0.141   1.027  0.00  0.00    +0.035 A 
ATOM     11  C   UNL     1      -9.312  -0.759   1.848  0.00  0.00    +0.025 A 
ATOM     12  C   UNL     1     -10.216   0.005   2.561  0.00  0.00    +0.034 A 
ATOM     13  C   UNL     1     -10.191   1.384   2.457  0.00  0.00    +0.126 A 
ATOM     14  C   UNL     1      -9.262   2.002   1.641  0.00  0.00    +0.034 A 
ATOM     15  C   UNL     1      -8.352   1.245   0.930  0.00  0.00    +0.025 A 
BRANCH  13  16
ATOM     16  N   UNL     1     -11.161   2.199   3.223  0.00  0.00    +0.056 N 
ATOM     17  O   UNL     1     -11.973   1.660   3.937  0.00  0.00    -0.126 OA
ATOM     18  O   UNL     1     -11.140   3.405   3.133  0.00  0.00    -0.126 OA
ENDBRANCH  13  16
ENDBRANCH   7  10
ENDBRANCH   1   2
BRANCH   1  19
ATOM     19  N   UNL     1      -1.710  -1.012  -1.345  0.00  0.00    +0.390 N 
ATOM     20  H   UNL     1      -1.786  -0.077  -1.718  0.00  0.00    -0.080 HD
BRANCH  19  21
ATOM     21  C   UNL     1      -0.754  -1.783  -2.151  0.00  0.00    -0.068 C 
ATOM     22  C   UNL     1       0.142  -1.008  -3.118  0.00  0.00    -0.017 C 
ATOM     23  C   UNL     1      -1.004  -1.866  -3.658  0.00  0.00    -0.017 C 
ENDBRANCH  19  21
BRANCH  19  24
ATOM     24  C   UNL     1      -1.239  -0.947   0.045  0.00  0.00    -0.042 C 
BRANCH  24  30
ATOM     25  C   UNL     1       0.020   1.201   0.292  0.00  0.00    +0.002 A 
ATOM     26  C   UNL     1       1.197   1.919   0.346  0.00  0.00    +0.013 A 
ATOM     27  C   UNL     1       2.420   1.260   0.209  0.00  0.00    +0.037 A 
ATOM     28  C   UNL     1       2.443  -0.122   0.019  0.00  0.00    +0.013 A 
ATOM     29  C   UNL     1       1.259  -0.828  -0.033  0.00  0.00    +0.002 A 
ATOM     30  C   UNL     1       0.050  -0.169   0.103  0.00  0.00    -0.064 A 
BRANCH  27  31
ATOM     31  C   UNL     1       3.685   2.023   0.266  0.00  0.00    +0.242 C 
ATOM     32  O   UNL     1       3.661   3.227   0.431  0.00  0.00    -0.270 OA
ATOM     33  N   UNL     1       4.864   1.384   0.134  0.00  0.00    -0.325 N 
ATOM     34  H   UNL     1       4.883   0.423   0.002  0.00  0.00    +0.145 HD
ATOM     35  H   UNL     1       5.694   1.885   0.171  0.00  0.00    +0.145 HD
ENDBRANCH  27  31
ENDBRANCH  24  30
ENDBRANCH  19  24
ENDBRANCH   1  19
TORSDOF 8
