REMARK  Name = ZINC65097603
REMARK  10 active torsions:
REMARK  status: ('A' for Active; 'I' for Inactive)
REMARK    1  A    between atoms: C_1  and  C_2
REMARK    2  A    between atoms: C_3  and  S_19
REMARK    3  A    between atoms: C_5  and  C_7
REMARK    4  A    between atoms: C_9  and  C_12
REMARK    5  A    between atoms: S_19  and  N_22
REMARK    6  A    between atoms: N_22  and  C_23
REMARK    7  A    between atoms: C_25  and  O_31
REMARK    8  A    between atoms: C_27  and  O_29
REMARK    9  A    between atoms: O_29  and  C_30
REMARK   10  A    between atoms: O_31  and  C_32
REMARK                            x       y       z     vdW  Elec       q    Type
REMARK                         _______ _______ _______ _____ _____    ______ ____
ROOT
ATOM      1  C   UNL     1      -0.018   1.503   0.010  0.00  0.00    +0.053 C 
ATOM      2  C   UNL     1       0.002  -0.004   0.002  0.00  0.00    +0.014 A 
ATOM      3  C   UNL     1      -1.043  -0.873   0.002  0.00  0.00    +0.121 A 
ATOM      4  C   UNL     1      -0.790  -2.226  -0.007  0.00  0.00    +0.048 A 
ATOM      5  C   UNL     1       0.511  -2.653  -0.016  0.00  0.00    +0.062 A 
ATOM      6  S   UNL     1       1.405  -1.107  -0.018  0.00  0.00    -0.088 S 
ENDROOT
BRANCH   5   7
ATOM      7  C   UNL     1       1.038  -4.034  -0.027  0.00  0.00    +0.209 A 
ATOM      8  N   UNL     1       2.337  -4.375  -0.029  0.00  0.00    -0.183 NA
ATOM      9  C   UNL     1       2.457  -5.678  -0.039  0.00  0.00    +0.314 A 
ATOM     10  O   UNL     1       1.225  -6.217  -0.043  0.00  0.00    -0.328 OA
ATOM     11  N   UNL     1       0.313  -5.130  -0.029  0.00  0.00    -0.055 NA
BRANCH   9  12
ATOM     12  C   UNL     1       3.734  -6.432  -0.045  0.00  0.00    +0.304 C 
ATOM     13  O   UNL     1       4.792  -5.835  -0.042  0.00  0.00    -0.265 OA
ATOM     14  N   UNL     1       3.720  -7.780  -0.055  0.00  0.00    -0.294 N 
ATOM     15  C   UNL     1       2.518  -8.625  -0.067  0.00  0.00    +0.108 C 
ATOM     16  C   UNL     1       2.990 -10.094  -0.049  0.00  0.00    +0.020 C 
ATOM     17  C   UNL     1       4.420  -9.992   0.543  0.00  0.00    +0.020 C 
ATOM     18  C   UNL     1       4.910  -8.651  -0.062  0.00  0.00    +0.108 C 
ENDBRANCH   9  12
ENDBRANCH   5   7
BRANCH   3  19
ATOM     19  S   UNL     1      -2.700  -0.275   0.014  0.00  0.00    +0.092 S 
ATOM     20  O   UNL     1      -2.783   0.712  -1.005  0.00  0.00    -0.148 OA
ATOM     21  O   UNL     1      -3.544  -1.417   0.038  0.00  0.00    -0.148 OA
BRANCH  19  22
ATOM     22  N   UNL     1      -2.927   0.512   1.453  0.00  0.00    -0.098 NA
BRANCH  22  23
ATOM     23  C   UNL     1      -4.162   1.095   1.744  0.00  0.00    +0.081 A 
ATOM     24  C   UNL     1      -5.202   1.012   0.828  0.00  0.00    +0.072 A 
ATOM     25  C   UNL     1      -6.428   1.591   1.116  0.00  0.00    +0.125 A 
ATOM     26  C   UNL     1      -6.615   2.255   2.320  0.00  0.00    +0.091 A 
ATOM     27  C   UNL     1      -5.577   2.339   3.235  0.00  0.00    +0.125 A 
ATOM     28  C   UNL     1      -4.352   1.754   2.951  0.00  0.00    +0.072 A 
BRANCH  27  29
ATOM     29  O   UNL     1      -5.761   2.990   4.414  0.00  0.00    -0.495 OA
ATOM     30  C   UNL     1      -7.050   3.563   4.643  0.00  0.00    +0.277 C 
ENDBRANCH  27  29
BRANCH  25  31
ATOM     31  O   UNL     1      -7.446   1.510   0.220  0.00  0.00    -0.495 OA
ATOM     32  C   UNL     1      -8.681   2.129   0.583  0.00  0.00    +0.277 C 
ENDBRANCH  25  31
ENDBRANCH  22  23
ENDBRANCH  19  22
ENDBRANCH   3  19
TORSDOF 7
