REMARK  Name = ZINC31362439
REMARK  14 active torsions:
REMARK  status: ('A' for Active; 'I' for Inactive)
REMARK    1  A    between atoms: C_1  and  C_2
REMARK    2  A    between atoms: C_2  and  N_3
REMARK    3  A    between atoms: C_4  and  C_39
REMARK    4  A    between atoms: C_5  and  C_12
REMARK    5  A    between atoms: C_12  and  C_25
REMARK    6  A    between atoms: C_16  and  C_22
REMARK    7  A    between atoms: C_28  and  N_34
REMARK    8  A    between atoms: C_30  and  O_31
REMARK    9  A    between atoms: O_31  and  C_32
REMARK   10  A    between atoms: C_32  and  C_33
REMARK   11  A    between atoms: N_34  and  C_35
REMARK   12  A    between atoms: N_34  and  C_37
REMARK   13  A    between atoms: C_35  and  C_36
REMARK   14  A    between atoms: C_37  and  C_38
REMARK                            x       y       z     vdW  Elec       q    Type
REMARK                         _______ _______ _______ _____ _____    ______ ____
ROOT
ATOM      1  C   UNL     1       1.150   3.600  -0.041  0.00  0.00    +0.195 C 
ATOM      2  C   UNL     1       1.863   3.910   1.252  0.00  0.00    +0.019 A 
ATOM      3  C   UNL     1       3.090   3.547   1.762  0.00  0.00    +0.010 A 
ATOM      4  C   UNL     1       3.483   3.995   3.008  0.00  0.00    +0.015 A 
ATOM      5  C   UNL     1       2.637   4.819   3.756  0.00  0.00    +0.064 A 
ATOM      6  C   UNL     1       1.395   5.189   3.244  0.00  0.00    +0.030 A 
ATOM      7  C   UNL     1       1.003   4.734   1.987  0.00  0.00    +0.067 A 
ATOM      8  C   UNL     1      -0.220   4.944   1.190  0.00  0.00    +0.341 C 
ATOM      9  O   UNL     1      -1.171   5.613   1.540  0.00  0.00    -0.245 OA
ATOM     10  O   UNL     1      -0.130   4.288   0.021  0.00  0.00    -0.440 OA
ENDROOT
BRANCH   1  13
ATOM     11  N   UNL     1       3.449   4.237  -2.846  0.00  0.00    -0.344 N 
ATOM     12  C   UNL     1       2.959   3.466  -1.827  0.00  0.00    +0.024 A 
ATOM     13  C   UNL     1       1.954   4.108  -1.210  0.00  0.00    +0.033 A 
ATOM     14  C   UNL     1       1.782   5.392  -1.893  0.00  0.00    +0.008 A 
ATOM     15  C   UNL     1       2.753   5.423  -2.911  0.00  0.00    +0.050 A 
ATOM     16  C   UNL     1       2.838   6.538  -3.739  0.00  0.00    +0.026 A 
ATOM     17  C   UNL     1       1.968   7.591  -3.558  0.00  0.00    +0.002 A 
ATOM     18  C   UNL     1       1.014   7.557  -2.551  0.00  0.00    +0.001 A 
ATOM     19  C   UNL     1       0.916   6.474  -1.724  0.00  0.00    +0.010 A 
ATOM     20  C   UNL     1       3.471   2.099  -1.452  0.00  0.00    +0.064 C 
BRANCH  11  22
ATOM     21  C   UNL     1       3.988   3.120  -4.954  0.00  0.00    +0.027 C 
ATOM     22  C   UNL     1       4.549   3.855  -3.735  0.00  0.00    +0.119 C 
ENDBRANCH  11  22
ENDBRANCH   1  13
BRANCH   1  23
ATOM     23  C   UNL     1       0.933   2.115  -0.169  0.00  0.00    +0.047 A 
ATOM     24  C   UNL     1       1.328   1.269   0.851  0.00  0.00    +0.013 A 
ATOM     25  C   UNL     1       1.131  -0.093   0.737  0.00  0.00    +0.024 A 
ATOM     26  C   UNL     1       0.534  -0.617  -0.403  0.00  0.00    +0.033 A 
ATOM     27  C   UNL     1       0.136   0.231  -1.427  0.00  0.00    +0.069 A 
ATOM     28  C   UNL     1       0.336   1.597  -1.310  0.00  0.00    +0.130 A 
BRANCH  28  29
ATOM     29  O   UNL     1      -0.053   2.430  -2.311  0.00  0.00    -0.492 OA
BRANCH  29  30
ATOM     30  C   UNL     1      -0.546   1.822  -3.506  0.00  0.00    +0.225 C 
ATOM     31  C   UNL     1      -0.819   2.903  -4.553  0.00  0.00    +0.048 C 
ENDBRANCH  29  30
ENDBRANCH  28  29
BRANCH  26  32
ATOM     32  N   UNL     1       0.334  -1.994  -0.518  0.00  0.00    -0.330 N 
BRANCH  32  33
ATOM     33  C   UNL     1       0.755  -2.888   0.564  0.00  0.00    +0.102 C 
ATOM     34  C   UNL     1      -0.396  -3.063   1.557  0.00  0.00    +0.024 C 
ENDBRANCH  32  33
BRANCH  32  35
ATOM     35  C   UNL     1      -0.295  -2.546  -1.720  0.00  0.00    +0.102 C 
ATOM     36  C   UNL     1       0.782  -2.874  -2.756  0.00  0.00    +0.024 C 
ENDBRANCH  32  35
ENDBRANCH  26  32
ENDBRANCH   1  23
BRANCH   5  37
ATOM     37  C   UNL     1       3.060   5.297   5.088  0.00  0.00    +0.387 C 
ATOM     38  O   UNL     1       2.324   6.013   5.738  0.00  0.00    -0.241 OA
ATOM     39  O   UNL     1       4.261   4.939   5.583  0.00  0.00    -0.241 OA
ENDBRANCH   5  37
TORSDOF 9
