REMARK  Name = ZINC08680675
REMARK  12 active torsions:
REMARK  status: ('A' for Active; 'I' for Inactive)
REMARK    1  A    between atoms: C_1  and  C_2
REMARK    2  A    between atoms: C_2  and  C_3
REMARK    3  A    between atoms: C_2  and  C_4
REMARK    4  A    between atoms: C_2  and  N_5
REMARK    5  A    between atoms: C_6  and  C_10
REMARK    6  A    between atoms: C_10  and  C_12
REMARK    7  A    between atoms: C_10  and  N_60
REMARK    8  A    between atoms: C_15  and  C_18
REMARK    9  A    between atoms: C_22  and  C_23
REMARK   10  A    between atoms: C_22  and  N_60
REMARK   11  A    between atoms: C_30  and  C_31
REMARK   12  A    between atoms: C_30  and  N_60
REMARK                            x       y       z     vdW  Elec       q    Type
REMARK                         _______ _______ _______ _____ _____    ______ ____
ROOT
ATOM      1  C   UNL     1      -2.957   3.577   1.893  0.00  0.00    +0.034 C 
ENDROOT
BRANCH   1   2
ATOM      2  C   UNL     1      -3.088   4.199   3.259  0.00  0.00    -0.054 A 
ATOM      3  C   UNL     1      -3.946   3.646   4.191  0.00  0.00    +0.003 A 
ATOM      4  C   UNL     1      -4.063   4.214   5.446  0.00  0.00    +0.012 A 
ATOM      5  C   UNL     1      -3.329   5.341   5.766  0.00  0.00    +0.055 A 
ATOM      6  C   UNL     1      -2.475   5.897   4.832  0.00  0.00    +0.012 A 
ATOM      7  C   UNL     1      -2.354   5.326   3.579  0.00  0.00    +0.003 A 
BRANCH   5   8
ATOM      8  C   UNL     1      -3.461   5.964   7.131  0.00  0.00    +0.417 C 
ATOM      9  F   UNL     1      -4.482   6.920   7.112  0.00  0.00    -0.166 F 
ATOM     10  F   UNL     1      -3.769   4.972   8.069  0.00  0.00    -0.166 F 
ATOM     11  F   UNL     1      -2.254   6.578   7.482  0.00  0.00    -0.166 F 
ENDBRANCH   5   8
ENDBRANCH   1   2
BRANCH   1  13
ATOM     12  N   UNL     1      -4.196   4.790   0.022  0.00  0.00    -0.225 N 
ATOM     13  C   UNL     1      -3.136   4.638   0.838  0.00  0.00    +0.143 A 
ATOM     14  N   UNL     1      -2.288   5.590   0.534  0.00  0.00    -0.115 NA
ATOM     15  N   UNL     1      -2.802   6.292  -0.416  0.00  0.00    -0.023 NA
ATOM     16  N   UNL     1      -3.957   5.814  -0.725  0.00  0.00    -0.043 NA
BRANCH  12  18
ATOM     17  C   UNL     1      -6.018   3.898   1.389  0.00  0.00    +0.036 C 
ATOM     18  C   UNL     1      -5.397   3.952  -0.008  0.00  0.00    +0.059 C 
ATOM     19  C   UNL     1      -6.407   4.544  -0.993  0.00  0.00    +0.036 C 
ATOM     20  C   UNL     1      -5.021   2.537  -0.454  0.00  0.00    +0.036 C 
ENDBRANCH  12  18
ENDBRANCH   1  13
BRANCH   1  21
ATOM     21  N   UNL     1      -1.622   2.964   1.729  0.00  0.00    +0.396 N 
ATOM     22  H   UNL     1      -1.489   2.714   0.742  0.00  0.00    -0.079 HD
BRANCH  21  23
ATOM     23  C   UNL     1      -0.572   3.926   2.126  0.00  0.00    -0.041 C 
BRANCH  23  24
ATOM     24  C   UNL     1       0.772   3.363   1.744  0.00  0.00    -0.064 A 
ATOM     25  C   UNL     1       1.481   2.594   2.648  0.00  0.00    +0.004 A 
ATOM     26  C   UNL     1       2.717   2.082   2.302  0.00  0.00    +0.038 A 
ATOM     27  C   UNL     1       3.245   2.339   1.048  0.00  0.00    +0.123 A 
ATOM     28  C   UNL     1       2.535   3.110   0.143  0.00  0.00    +0.038 A 
ATOM     29  C   UNL     1       1.299   3.621   0.493  0.00  0.00    +0.004 A 
ATOM     30  F   UNL     1       4.453   1.839   0.708  0.00  0.00    -0.205 F 
ENDBRANCH  23  24
ENDBRANCH  21  23
BRANCH  21  31
ATOM     31  C   UNL     1      -1.524   1.740   2.552  0.00  0.00    -0.001 C 
BRANCH  31  32
ATOM     32  C   UNL     1      -2.373   0.665   1.925  0.00  0.00    +0.089 A 
ATOM     33  C   UNL     1      -1.973  -0.202   0.978  0.00  0.00    +0.042 A 
ATOM     34  C   UNL     1      -3.082  -1.027   0.682  0.00  0.00    +0.041 A 
ATOM     35  C   UNL     1      -4.094  -0.616   1.468  0.00  0.00    +0.195 A 
ATOM     36  O   UNL     1      -3.657   0.406   2.222  0.00  0.00    -0.470 OA
ENDBRANCH  31  32
ENDBRANCH  21  31
ENDBRANCH   1  21
TORSDOF 9
