REMARK  Name = ZINC19819606
REMARK  4 active torsions:
REMARK  status: ('A' for Active; 'I' for Inactive)
REMARK    1  A    between atoms: C_1  and  C_2
REMARK    2  A    between atoms: C_2  and  C_3
REMARK    3  A    between atoms: C_3  and  C_4
REMARK    4  A    between atoms: C_15  and  C_18
REMARK                            x       y       z     vdW  Elec       q    Type
REMARK                         _______ _______ _______ _____ _____    ______ ____
ROOT
ATOM      1  C   UNL     1       0.739  -2.004  -1.265  0.00  0.00    +0.050 A 
ATOM      2  C   UNL     1      -0.224  -2.695  -1.942  0.00  0.00    +0.093 A 
ATOM      3  C   UNL     1      -0.184  -4.101  -1.935  0.00  0.00    +0.253 A 
ATOM      4  O   UNL     1      -1.028  -4.750  -2.531  0.00  0.00    -0.268 OA
ATOM      5  N   UNL     1       0.808  -4.718  -1.258  0.00  0.00    -0.295 N 
ATOM      6  H   UNL     1       0.855  -5.687  -1.240  0.00  0.00    +0.172 HD
ATOM      7  C   UNL     1       1.740  -3.977  -0.600  0.00  0.00    +0.202 A 
ATOM      8  N   UNL     1       1.699  -2.659  -0.616  0.00  0.00    -0.221 NA
ATOM      9  N   UNL     1       2.744  -4.611   0.086  0.00  0.00    -0.264 N 
ATOM     10  C   UNL     1       3.702  -3.866   0.761  0.00  0.00    +0.165 A 
ATOM     11  N   UNL     1       4.737  -4.280   1.467  0.00  0.00    -0.225 NA
ATOM     12  C   UNL     1       5.560  -3.421   2.050  0.00  0.00    +0.080 A 
ATOM     13  C   UNL     1       5.332  -2.080   1.919  0.00  0.00    +0.076 A 
ATOM     14  S   UNL     1       3.864  -2.091   0.899  0.00  0.00    -0.060 S 
ATOM     15  H   UNL     1       2.784  -5.580   0.101  0.00  0.00    +0.157 HD
ENDROOT
BRANCH  12  16
ATOM     16  C   UNL     1       6.717  -3.910   2.839  0.00  0.00    +0.001 A 
ATOM     17  C   UNL     1       7.577  -3.003   3.456  0.00  0.00    +0.010 A 
ATOM     18  C   UNL     1       8.652  -3.464   4.188  0.00  0.00    +0.001 A 
ATOM     19  C   UNL     1       8.877  -4.823   4.310  0.00  0.00    +0.000 A 
ATOM     20  C   UNL     1       8.028  -5.728   3.700  0.00  0.00    +0.001 A 
ATOM     21  C   UNL     1       6.946  -5.279   2.970  0.00  0.00    +0.010 A 
ENDBRANCH  12  16
BRANCH   1  22
ATOM     22  C   UNL     1       0.718  -0.497  -1.257  0.00  0.00    +0.055 C 
BRANCH  22  24
ATOM     23  C   UNL     1      -0.019   1.526   0.010  0.00  0.00    +0.004 C 
ATOM     24  C   UNL     1       0.002  -0.004   0.002  0.00  0.00    +0.003 C 
ENDBRANCH  22  24
ENDBRANCH   1  22
TORSDOF 3
