REMARK  Name = ZINC36333884
REMARK  5 active torsions:
REMARK  status: ('A' for Active; 'I' for Inactive)
REMARK    1  A    between atoms: C_3  and  S_10
REMARK    2  A    between atoms: C_5  and  C_6
REMARK    3  A    between atoms: C_6  and  C_7
REMARK    4  A    between atoms: S_10  and  N_13
REMARK    5  A    between atoms: N_13  and  C_14
REMARK                            x       y       z     vdW  Elec       q    Type
REMARK                         _______ _______ _______ _____ _____    ______ ____
ROOT
ATOM      1  S   UNL     1       4.001   1.932  -0.026  0.00  0.00    +0.099 S 
ATOM      2  O   UNL     1       4.799   0.900  -0.590  0.00  0.00    -0.148 OA
ATOM      3  O   UNL     1       3.957   3.244  -0.570  0.00  0.00    -0.148 OA
ENDROOT
BRANCH   1   6
ATOM      4  C   UNL     1      -0.016   1.351   0.009  0.00  0.00    +0.014 A 
ATOM      5  C   UNL     1       1.183   2.038   0.002  0.00  0.00    +0.037 A 
ATOM      6  C   UNL     1       2.343   1.336  -0.013  0.00  0.00    +0.148 A 
ATOM      7  S   UNL     1       1.754  -0.349  -0.017  0.00  0.00    -0.073 S 
ATOM      8  C   UNL     1       0.002  -0.004   0.002  0.00  0.00    +0.002 A 
BRANCH   8   9
ATOM      9  C   UNL     1      -1.155  -0.969   0.008  0.00  0.00    +0.167 C 
BRANCH   9  10
ATOM     10  C   UNL     1      -1.556  -1.283  -1.410  0.00  0.00    +0.361 C 
ATOM     11  O   UNL     1      -0.956  -0.771  -2.340  0.00  0.00    -0.246 OA
ATOM     12  O   UNL     1      -2.478  -2.049  -1.628  0.00  0.00    -0.246 OA
ENDBRANCH   9  10
ENDBRANCH   8   9
ENDBRANCH   1   6
BRANCH   1  13
ATOM     13  N   UNL     1       4.477   2.089   1.552  0.00  0.00    -0.076 NA
BRANCH  13  14
ATOM     14  C   UNL     1       5.755   2.546   1.850  0.00  0.00    +0.181 A 
ATOM     15  C   UNL     1       6.160   2.674   3.177  0.00  0.00    +0.157 A 
ATOM     16  N   UNL     1       7.374   3.108   3.455  0.00  0.00    -0.258 NA
ATOM     17  C   UNL     1       8.207   3.421   2.476  0.00  0.00    +0.130 A 
ATOM     18  C   UNL     1       7.809   3.296   1.159  0.00  0.00    +0.132 A 
ATOM     19  N   UNL     1       6.596   2.856   0.871  0.00  0.00    -0.234 NA
ENDBRANCH  13  14
ENDBRANCH   1  13
TORSDOF 5
