REMARK  Name = ZINC04337208
REMARK  6 active torsions:
REMARK  status: ('A' for Active; 'I' for Inactive)
REMARK    1  A    between atoms: C_1  and  C_2
REMARK    2  A    between atoms: C_2  and  C_3
REMARK    3  A    between atoms: C_3  and  C_4
REMARK    4  A    between atoms: C_3  and  C_11
REMARK    5  A    between atoms: C_5  and  C_10
REMARK    6  A    between atoms: C_12  and  C_17
REMARK                            x       y       z     vdW  Elec       q    Type
REMARK                         _______ _______ _______ _____ _____    ______ ____
ROOT
ATOM      1  C   UNL     1       0.606  -0.499  -1.314  0.00  0.00    +0.067 C 
ENDROOT
BRANCH   1   2
ATOM      2  C   UNL     1       2.058  -0.104  -1.225  0.00  0.00    +0.071 A 
ATOM      3  C   UNL     1       2.998  -0.182  -2.263  0.00  0.00    +0.088 A 
ATOM      4  N   UNL     1       4.143   0.247  -1.809  0.00  0.00    -0.079 NA
ATOM      5  O   UNL     1       3.967   0.616  -0.453  0.00  0.00    -0.312 OA
ATOM      6  C   UNL     1       2.682   0.395  -0.129  0.00  0.00    +0.365 A 
ATOM      7  O   UNL     1       2.112   0.626   1.077  0.00  0.00    -0.243 OA
ATOM      8  C   UNL     1       2.731  -0.677  -3.661  0.00  0.00    +0.069 C 
ENDBRANCH   1   2
BRANCH   1   9
ATOM      9  C   UNL     1       0.454  -1.946  -0.921  0.00  0.00    +0.071 A 
ATOM     10  C   UNL     1      -0.230  -2.930  -1.649  0.00  0.00    +0.088 A 
ATOM     11  N   UNL     1      -0.144  -4.055  -0.995  0.00  0.00    -0.079 NA
ATOM     12  O   UNL     1       0.606  -3.821   0.184  0.00  0.00    -0.312 OA
ATOM     13  C   UNL     1       0.960  -2.525   0.196  0.00  0.00    +0.365 A 
ATOM     14  O   UNL     1       1.690  -1.907   1.154  0.00  0.00    -0.243 OA
ATOM     15  C   UNL     1      -0.942  -2.723  -2.961  0.00  0.00    +0.069 C 
ENDBRANCH   1   9
BRANCH   1  17
ATOM     16  C   UNL     1      -0.079   1.843  -0.778  0.00  0.00    +0.005 C 
ATOM     17  C   UNL     1      -0.219   0.376  -0.368  0.00  0.00    +0.010 C 
ENDBRANCH   1  17
TORSDOF 3
