REMARK  Name = ZINC38546584
REMARK  7 active torsions:
REMARK  status: ('A' for Active; 'I' for Inactive)
REMARK    1  A    between atoms: C_1  and  C_2
REMARK    2  A    between atoms: C_2  and  N_3
REMARK    3  A    between atoms: N_6  and  C_9
REMARK    4  A    between atoms: C_9  and  C_11
REMARK    5  A    between atoms: C_9  and  C_18
REMARK    6  A    between atoms: C_22  and  N_23
REMARK    7  A    between atoms: C_24  and  C_26
REMARK                            x       y       z     vdW  Elec       q    Type
REMARK                         _______ _______ _______ _____ _____    ______ ____
ROOT
ATOM      1  C   UNL     1      -4.635  -4.153  -0.945  0.00  0.00    +0.006 A 
ATOM      2  C   UNL     1      -5.404  -5.021  -1.720  0.00  0.00    -0.030 A 
ATOM      3  C   UNL     1      -5.169  -6.351  -1.561  0.00  0.00    -0.005 A 
ATOM      4  S   UNL     1      -3.884  -6.414  -0.341  0.00  0.00    -0.078 S 
ATOM      5  C   UNL     1      -3.704  -4.654  -0.090  0.00  0.00    +0.078 A 
ATOM      6  C   UNL     1      -5.846  -7.486  -2.259  0.00  0.00    +0.043 C 
ATOM      7  C   UNL     1      -7.119  -6.949  -2.932  0.00  0.00    +0.005 C 
ATOM      8  C   UNL     1      -6.768  -5.668  -3.694  0.00  0.00    +0.005 C 
ATOM      9  C   UNL     1      -6.463  -4.540  -2.708  0.00  0.00    +0.036 C 
ENDROOT
BRANCH   5  10
ATOM     10  N   UNL     1      -2.835  -3.972   0.764  0.00  0.00    -0.273 N 
ATOM     11  C   UNL     1      -2.056  -4.659   1.623  0.00  0.00    +0.284 C 
ATOM     12  O   UNL     1      -2.110  -5.875   1.654  0.00  0.00    -0.266 OA
ATOM     13  H   UNL     1      -2.792  -3.003   0.739  0.00  0.00    +0.156 HD
BRANCH  11  14
ATOM     14  C   UNL     1      -1.143  -3.942   2.519  0.00  0.00    +0.189 A 
ATOM     15  C   UNL     1      -0.299  -4.513   3.428  0.00  0.00    +0.054 A 
ATOM     16  C   UNL     1       0.382  -3.461   4.062  0.00  0.00    +0.042 A 
ATOM     17  C   UNL     1      -0.071  -2.310   3.518  0.00  0.00    +0.196 A 
ATOM     18  O   UNL     1      -0.986  -2.604   2.585  0.00  0.00    -0.458 OA
ENDBRANCH  11  14
ENDBRANCH   5  10
BRANCH   1  19
ATOM     19  C   UNL     1      -4.831  -2.663  -1.059  0.00  0.00    +0.122 C 
BRANCH  19  23
ATOM     20  N   UNL     1      -1.515  -0.501  -2.541  0.00  0.00    +0.381 N 
ATOM     21  C   UNL     1      -1.347  -1.940  -2.295  0.00  0.00    -0.063 C 
ATOM     22  C   UNL     1      -2.721  -2.613  -2.246  0.00  0.00    +0.067 C 
ATOM     23  N   UNL     1      -3.523  -2.005  -1.175  0.00  0.00    -0.295 NA
ATOM     24  C   UNL     1      -3.679  -0.560  -1.395  0.00  0.00    +0.067 C 
ATOM     25  C   UNL     1      -2.297   0.096  -1.451  0.00  0.00    -0.063 C 
ATOM     26  H   UNL     1      -1.999  -0.365  -3.416  0.00  0.00    -0.082 HD
BRANCH  20  28
ATOM     27  C   UNL     1       0.572  -0.392  -3.817  0.00  0.00    -0.017 C 
ATOM     28  C   UNL     1      -0.196   0.141  -2.606  0.00  0.00    -0.082 C 
ENDBRANCH  20  28
ENDBRANCH  19  23
BRANCH  19  29
ATOM     29  C   UNL     1      -5.542  -2.155   0.169  0.00  0.00    +0.009 A 
ATOM     30  C   UNL     1      -4.814  -1.652   1.231  0.00  0.00    +0.008 A 
ATOM     31  C   UNL     1      -5.466  -1.185   2.357  0.00  0.00    +0.000 A 
ATOM     32  C   UNL     1      -6.847  -1.222   2.422  0.00  0.00    +0.003 A 
ATOM     33  C   UNL     1      -7.577  -1.724   1.362  0.00  0.00    +0.039 A 
ATOM     34  C   UNL     1      -6.925  -2.187   0.231  0.00  0.00    +0.128 A 
ATOM     35  F   UNL     1      -7.637  -2.674  -0.808  0.00  0.00    -0.205 F 
ENDBRANCH  19  29
ENDBRANCH   1  19
TORSDOF 6
