REMARK  Name = ZINC37055668
REMARK  6 active torsions:
REMARK  status: ('A' for Active; 'I' for Inactive)
REMARK    1  A    between atoms: C_1  and  C_2
REMARK    2  A    between atoms: C_5  and  N_9
REMARK    3  A    between atoms: C_6  and  C_8
REMARK    4  A    between atoms: N_9  and  S_10
REMARK    5  A    between atoms: S_10  and  C_13
REMARK    6  A    between atoms: C_16  and  N_20
REMARK                            x       y       z     vdW  Elec       q    Type
REMARK                         _______ _______ _______ _____ _____    ______ ____
ROOT
ATOM      1  S   UNL     1       0.780  -4.979  -1.271  0.00  0.00    +0.074 S 
ATOM      2  O   UNL     1       0.594  -6.373  -1.477  0.00  0.00    -0.150 OA
ATOM      3  O   UNL     1       0.297  -4.003  -2.184  0.00  0.00    -0.150 OA
ENDROOT
BRANCH   1   4
ATOM      4  C   UNL     1       2.517  -4.719  -1.127  0.00  0.00    +0.136 A 
ATOM      5  C   UNL     1       3.091  -3.581  -1.665  0.00  0.00    +0.047 A 
ATOM      6  C   UNL     1       4.453  -3.374  -1.555  0.00  0.00    +0.040 A 
ATOM      7  C   UNL     1       5.245  -4.310  -0.902  0.00  0.00    +0.027 A 
ATOM      8  C   UNL     1       4.666  -5.451  -0.362  0.00  0.00    +0.040 A 
ATOM      9  C   UNL     1       3.302  -5.650  -0.472  0.00  0.00    +0.047 A 
ATOM     10 BR   UNL     1       2.511  -7.200   0.269  0.00  0.00    -0.048 Br
ATOM     11 BR   UNL     1       2.012  -2.308  -2.554  0.00  0.00    -0.048 Br
BRANCH   7  12
ATOM     12  N   UNL     1       6.622  -4.104  -0.789  0.00  0.00    -0.358 N 
ATOM     13  H   UNL     1       7.026  -3.307  -1.167  0.00  0.00    +0.142 HD
ATOM     14  H   UNL     1       7.175  -4.758  -0.333  0.00  0.00    +0.142 HD
ENDBRANCH   7  12
ENDBRANCH   1   4
BRANCH   1  15
ATOM     15  N   UNL     1       0.108  -4.624   0.201  0.00  0.00    -0.216 N 
ATOM     16  H   UNL     1      -0.353  -5.314   0.703  0.00  0.00    +0.174 HD
BRANCH  15  21
ATOM     17  C   UNL     1       0.501   0.627   2.305  0.00  0.00    +0.044 C 
ATOM     18  C   UNL     1       0.397  -0.769   1.746  0.00  0.00    -0.050 A 
ATOM     19  C   UNL     1       0.237  -0.956   0.385  0.00  0.00    +0.005 A 
ATOM     20  C   UNL     1       0.141  -2.233  -0.131  0.00  0.00    +0.025 A 
ATOM     21  C   UNL     1       0.205  -3.331   0.719  0.00  0.00    +0.051 A 
ATOM     22  C   UNL     1       0.366  -3.139   2.085  0.00  0.00    -0.028 A 
ATOM     23  C   UNL     1       0.467  -1.859   2.594  0.00  0.00    +0.008 A 
ATOM     24  C   UNL     1       0.436  -4.326   3.011  0.00  0.00    +0.046 C 
ENDBRANCH  15  21
ENDBRANCH   1  15
TORSDOF 4
