REMARK  Name = ZINC10152988
REMARK  7 active torsions:
REMARK  status: ('A' for Active; 'I' for Inactive)
REMARK    1  A    between atoms: C_1  and  C_2
REMARK    2  A    between atoms: C_5  and  O_25
REMARK    3  A    between atoms: C_6  and  N_8
REMARK    4  A    between atoms: C_9  and  C_11
REMARK    5  A    between atoms: C_20  and  C_21
REMARK    6  A    between atoms: C_20  and  C_22
REMARK    7  A    between atoms: O_25  and  C_26
REMARK                            x       y       z     vdW  Elec       q    Type
REMARK                         _______ _______ _______ _____ _____    ______ ____
ROOT
ATOM      1  C   UNL     1      -2.478  -2.830  -0.206  0.00  0.00    +0.191 C 
ATOM      2  C   UNL     1      -3.259  -2.375  -1.452  0.00  0.00    +0.130 C 
ATOM      3  C   UNL     1      -2.509  -2.798  -2.692  0.00  0.00    +0.222 C 
ATOM      4  O   UNL     1      -2.412  -2.034  -3.628  0.00  0.00    -0.275 OA
ATOM      5  N   UNL     1      -1.945  -4.029  -2.766  0.00  0.00    -0.257 N 
ATOM      6  C   UNL     1      -1.956  -4.811  -1.625  0.00  0.00    +0.208 C 
ATOM      7  N   UNL     1      -1.758  -6.089  -1.496  0.00  0.00    -0.201 NA
ATOM      8  C   UNL     1      -1.857  -6.448  -0.182  0.00  0.00    +0.137 C 
ATOM      9  C   UNL     1      -1.711  -7.683   0.314  0.00  0.00    -0.035 C 
ATOM     10  C   UNL     1      -1.407  -8.835  -0.609  0.00  0.00    +0.042 C 
ATOM     11  C   UNL     1      -1.851  -7.922   1.795  0.00  0.00    +0.042 C 
ATOM     12  N   UNL     1      -2.140  -5.288   0.552  0.00  0.00    -0.245 N 
ATOM     13  N   UNL     1      -2.204  -4.261  -0.382  0.00  0.00    -0.210 N 
ATOM     14  H   UNL     1      -1.546  -4.349  -3.590  0.00  0.00    +0.157 HD
ATOM     15  H   UNL     1      -2.264  -5.218   1.512  0.00  0.00    +0.172 HD
ENDROOT
BRANCH   1  17
ATOM     16  N   UNL     1      -1.201  -0.723   0.009  0.00  0.00    -0.281 N 
ATOM     17  C   UNL     1      -1.183  -2.066  -0.100  0.00  0.00    +0.240 C 
ATOM     18  O   UNL     1      -0.126  -2.660  -0.113  0.00  0.00    -0.273 OA
ATOM     19  H   UNL     1      -2.045  -0.255   0.101  0.00  0.00    +0.155 HD
BRANCH  16  25
ATOM     20  C   UNL     1       3.522  -0.405  -1.321  0.00  0.00    +0.044 C 
ATOM     21  C   UNL     1       2.306   0.176  -0.647  0.00  0.00    -0.048 A 
ATOM     22  C   UNL     1       2.378   1.419  -0.047  0.00  0.00    +0.007 A 
ATOM     23  C   UNL     1       1.266   1.957   0.573  0.00  0.00    +0.048 A 
ATOM     24  C   UNL     1       0.074   1.250   0.595  0.00  0.00    +0.141 A 
ATOM     25  C   UNL     1       0.001  -0.003  -0.009  0.00  0.00    +0.076 A 
ATOM     26  C   UNL     1       1.122  -0.536  -0.629  0.00  0.00    +0.030 A 
BRANCH  24  27
ATOM     27  O   UNL     1      -1.022   1.780   1.199  0.00  0.00    -0.493 OA
ATOM     28  C   UNL     1      -0.874   3.069   1.798  0.00  0.00    +0.277 C 
ENDBRANCH  24  27
ENDBRANCH  16  25
ENDBRANCH   1  17
TORSDOF 3
