REMARK  Name = ZINC09632811
REMARK  9 active torsions:
REMARK  status: ('A' for Active; 'I' for Inactive)
REMARK    1  A    between atoms: C_1  and  C_2
REMARK    2  A    between atoms: C_2  and  C_3
REMARK    3  A    between atoms: C_3  and  C_5
REMARK    4  A    between atoms: C_3  and  C_6
REMARK    5  A    between atoms: C_9  and  N_12
REMARK    6  A    between atoms: C_22  and  S_23
REMARK    7  A    between atoms: S_23  and  C_24
REMARK    8  A    between atoms: C_24  and  C_25
REMARK    9  A    between atoms: N_27  and  C_28
REMARK                            x       y       z     vdW  Elec       q    Type
REMARK                         _______ _______ _______ _____ _____    ______ ____
ROOT
ATOM      1  N   UNL     1      -0.574  -2.709   0.202  0.00  0.00    -0.255 N 
ATOM      2  C   UNL     1       0.661  -2.157   0.222  0.00  0.00    +0.267 A 
ATOM      3  O   UNL     1       1.661  -2.850   0.266  0.00  0.00    -0.267 OA
ATOM      4  C   UNL     1       0.751  -0.692   0.188  0.00  0.00    +0.065 A 
ATOM      5  C   UNL     1       1.977  -0.028   0.205  0.00  0.00    +0.015 A 
ATOM      6  C   UNL     1       2.004   1.339   0.173  0.00  0.00    +0.001 A 
ATOM      7  C   UNL     1       0.825   2.071   0.120  0.00  0.00    +0.002 A 
ATOM      8  C   UNL     1      -0.390   1.447   0.103  0.00  0.00    +0.028 A 
ATOM      9  C   UNL     1      -0.451   0.051   0.136  0.00  0.00    +0.079 A 
ATOM     10  N   UNL     1      -1.633  -0.609   0.120  0.00  0.00    -0.223 NA
ATOM     11  C   UNL     1      -1.688  -1.917   0.151  0.00  0.00    +0.177 A 
ENDROOT
BRANCH   1  15
ATOM     12  C   UNL     1      -0.988  -6.855   0.292  0.00  0.00    -0.044 A 
ATOM     13  C   UNL     1      -1.432  -6.094   1.358  0.00  0.00    +0.006 A 
ATOM     14  C   UNL     1      -1.296  -4.720   1.331  0.00  0.00    +0.026 A 
ATOM     15  C   UNL     1      -0.713  -4.103   0.232  0.00  0.00    +0.052 A 
ATOM     16  C   UNL     1      -0.273  -4.870  -0.839  0.00  0.00    +0.026 A 
ATOM     17  C   UNL     1      -0.406  -6.244  -0.803  0.00  0.00    +0.006 A 
BRANCH  12  18
ATOM     18  C   UNL     1      -1.138  -8.355   0.325  0.00  0.00    +0.016 C 
ATOM     19  C   UNL     1       0.242  -9.008   0.225  0.00  0.00    +0.012 C 
BRANCH  18  21
ATOM     20  C   UNL     1      -2.258 -10.311  -0.752  0.00  0.00    +0.004 C 
ATOM     21  C   UNL     1      -2.002  -8.806  -0.854  0.00  0.00    +0.004 C 
ENDBRANCH  18  21
ENDBRANCH  12  18
ENDBRANCH   1  15
BRANCH  11  22
ATOM     22  S   UNL     1      -3.270  -2.693   0.128  0.00  0.00    -0.078 S 
BRANCH  22  23
ATOM     23  C   UNL     1      -4.336  -1.231   0.062  0.00  0.00    +0.173 C 
BRANCH  23  24
ATOM     24  C   UNL     1      -5.779  -1.663   0.034  0.00  0.00    +0.228 C 
ATOM     25  O   UNL     1      -6.060  -2.842   0.056  0.00  0.00    -0.275 OA
ATOM     26  N   UNL     1      -6.758  -0.738  -0.015  0.00  0.00    -0.282 N 
ATOM     27  H   UNL     1      -6.535   0.200  -0.119  0.00  0.00    +0.155 HD
BRANCH  26  28
ATOM     28  C   UNL     1      -8.098  -1.131   0.083  0.00  0.00    +0.071 A 
ATOM     29  C   UNL     1      -8.459  -2.220   0.871  0.00  0.00    +0.028 A 
ATOM     30  C   UNL     1      -9.799  -2.568   0.941  0.00  0.00    +0.022 A 
ATOM     31  C   UNL     1     -10.725  -1.835   0.224  0.00  0.00    +0.112 A 
ATOM     32  N   UNL     1     -10.351  -0.810  -0.518  0.00  0.00    -0.242 NA
ATOM     33  C   UNL     1      -9.088  -0.443  -0.609  0.00  0.00    +0.150 A 
ATOM     34 CL   UNL     1      -8.657   0.914  -1.603  0.00  0.00    -0.060 Cl
ENDBRANCH  26  28
ENDBRANCH  23  24
ENDBRANCH  22  23
ENDBRANCH  11  22
TORSDOF 7
