REMARK  Name = ZINC51676212
REMARK  8 active torsions:
REMARK  status: ('A' for Active; 'I' for Inactive)
REMARK    1  A    between atoms: C_1  and  C_2
REMARK    2  A    between atoms: C_5  and  C_7
REMARK    3  A    between atoms: N_9  and  C_10
REMARK    4  A    between atoms: N_18  and  C_19
REMARK    5  A    between atoms: C_19  and  C_20
REMARK    6  A    between atoms: C_20  and  N_25
REMARK    7  A    between atoms: N_25  and  C_26
REMARK    8  A    between atoms: N_25  and  C_27
REMARK                            x       y       z     vdW  Elec       q    Type
REMARK                         _______ _______ _______ _____ _____    ______ ____
ROOT
ATOM      1  C   UNL     1       2.985  -5.440   0.038  0.00  0.00    +0.076 C 
ATOM      2  C   UNL     1       3.085  -5.976   1.468  0.00  0.00    +0.041 C 
ATOM      3  C   UNL     1       3.650  -7.399   1.437  0.00  0.00    +0.111 C 
ATOM      4  N   UNL     1       4.925  -7.386   0.707  0.00  0.00    -0.286 N 
ATOM      5  C   UNL     1       4.960  -6.809  -0.644  0.00  0.00    +0.111 C 
ATOM      6  C   UNL     1       4.380  -5.392  -0.590  0.00  0.00    +0.041 C 
ATOM      7  C   UNL     1       6.042  -7.894   1.265  0.00  0.00    +0.302 C 
ATOM      8  O   UNL     1       6.024  -8.277   2.419  0.00  0.00    -0.253 OA
ATOM      9  N   UNL     1       7.178  -7.977   0.545  0.00  0.00    -0.301 N 
ATOM     10  H   UNL     1       7.212  -7.606  -0.351  0.00  0.00    +0.150 HD
ENDROOT
BRANCH   1  13
ATOM     11  C   UNL     1       1.077  -3.925   0.081  0.00  0.00    +0.251 C 
ATOM     12  O   UNL     1       0.343  -4.896   0.079  0.00  0.00    -0.270 OA
ATOM     13  N   UNL     1       2.414  -4.091   0.062  0.00  0.00    -0.308 N 
ATOM     14  H   UNL     1       2.998  -3.317   0.063  0.00  0.00    +0.149 HD
BRANCH  11  19
ATOM     15  C   UNL     1      -0.019   1.519   0.160  0.00  0.00    +0.051 C 
ATOM     16  C   UNL     1       0.002   0.012   0.142  0.00  0.00    -0.013 A 
ATOM     17  C   UNL     1      -1.056  -0.836   0.146  0.00  0.00    +0.011 A 
ATOM     18  C   UNL     1      -0.827  -2.191   0.127  0.00  0.00    +0.021 A 
ATOM     19  C   UNL     1       0.505  -2.576   0.105  0.00  0.00    +0.074 A 
ATOM     20  S   UNL     1       1.341  -1.001   0.106  0.00  0.00    -0.089 S 
ENDBRANCH  11  19
ENDBRANCH   1  13
BRANCH   9  21
ATOM     21  C   UNL     1       8.361  -8.627   1.115  0.00  0.00    +0.094 C 
BRANCH  21  22
ATOM     22  C   UNL     1       9.540  -8.475   0.151  0.00  0.00    -0.050 C 
ATOM     23  C   UNL     1       9.283  -9.293  -1.131  0.00  0.00    -0.010 C 
ATOM     24  C   UNL     1      10.676  -9.855  -1.508  0.00  0.00    -0.001 C 
ATOM     25  C   UNL     1      11.294 -10.192  -0.128  0.00  0.00    -0.001 C 
ATOM     26  C   UNL     1      10.818  -9.046   0.789  0.00  0.00    -0.010 C 
BRANCH  22  27
ATOM     27  N   UNL     1       9.735  -7.059  -0.185  0.00  0.00    +0.381 N 
ATOM     28  C   UNL     1      10.112  -6.315   1.024  0.00  0.00    -0.096 C 
ATOM     29  C   UNL     1      10.802  -6.936  -1.188  0.00  0.00    -0.096 C 
ATOM     30  H   UNL     1       8.877  -6.680  -0.559  0.00  0.00    -0.082 HD
ENDBRANCH  22  27
ENDBRANCH  21  22
ENDBRANCH   9  21
TORSDOF 5
