REMARK  Name = ZINC58218777
REMARK  12 active torsions:
REMARK  status: ('A' for Active; 'I' for Inactive)
REMARK    1  A    between atoms: C_1  and  C_2
REMARK    2  A    between atoms: C_2  and  O_3
REMARK    3  A    between atoms: O_3  and  C_4
REMARK    4  A    between atoms: N_6  and  C_7
REMARK    5  A    between atoms: C_11  and  N_14
REMARK    6  A    between atoms: C_12  and  C_13
REMARK    7  A    between atoms: N_14  and  C_15
REMARK    8  A    between atoms: C_15  and  C_17
REMARK    9  A    between atoms: C_15  and  C_18
REMARK   10  A    between atoms: N_20  and  C_21
REMARK   11  A    between atoms: C_24  and  C_28
REMARK   12  A    between atoms: C_26  and  C_27
REMARK                            x       y       z     vdW  Elec       q    Type
REMARK                         _______ _______ _______ _____ _____    ______ ____
ROOT
ATOM      1  N   UNL     1       3.150  -6.185  -4.675  0.00  0.00    -0.333 N 
ATOM      2  H   UNL     1       3.541  -5.615  -5.355  0.00  0.00    +0.147 HD
ENDROOT
BRANCH   1   7
ATOM      3  C   UNL     1       1.535  -3.690  -2.508  0.00  0.00    +0.041 A 
ATOM      4  C   UNL     1       0.976  -4.512  -1.537  0.00  0.00    +0.024 A 
ATOM      5  C   UNL     1       1.140  -5.881  -1.611  0.00  0.00    +0.004 A 
ATOM      6  C   UNL     1       1.860  -6.438  -2.651  0.00  0.00    +0.023 A 
ATOM      7  C   UNL     1       2.422  -5.622  -3.625  0.00  0.00    +0.032 A 
ATOM      8  C   UNL     1       2.254  -4.246  -3.556  0.00  0.00    -0.008 A 
ATOM      9  C   UNL     1       2.856  -3.357  -4.614  0.00  0.00    +0.047 C 
BRANCH   3  12
ATOM     10  C   UNL     1       0.313  -1.786  -1.771  0.00  0.00    +0.405 C 
ATOM     11  O   UNL     1      -0.548  -2.522  -1.332  0.00  0.00    -0.226 OA
ATOM     12  N   UNL     1       1.368  -2.302  -2.431  0.00  0.00    -0.251 N 
ATOM     13  H   UNL     1       2.013  -1.712  -2.853  0.00  0.00    +0.158 HD
BRANCH  10  14
ATOM     14  O   UNL     1       0.212  -0.454  -1.599  0.00  0.00    -0.450 OA
BRANCH  14  16
ATOM     15  C   UNL     1      -0.873   1.550  -0.795  0.00  0.00    +0.048 C 
ATOM     16  C   UNL     1      -0.933   0.024  -0.891  0.00  0.00    +0.230 C 
ENDBRANCH  14  16
ENDBRANCH  10  14
ENDBRANCH   3  12
ENDBRANCH   1   7
BRANCH   1  17
ATOM     17  C   UNL     1       3.322  -7.638  -4.750  0.00  0.00    +0.154 C 
ATOM     18  C   UNL     1       4.518  -8.055  -3.892  0.00  0.00    +0.038 C 
BRANCH  17  19
ATOM     19  C   UNL     1       3.566  -8.042  -6.182  0.00  0.00    +0.237 C 
ATOM     20  O   UNL     1       3.593  -7.199  -7.053  0.00  0.00    -0.273 OA
ATOM     21  N   UNL     1       3.753  -9.340  -6.493  0.00  0.00    -0.284 N 
ATOM     22  H   UNL     1       3.663 -10.021  -5.809  0.00  0.00    +0.155 HD
BRANCH  21  23
ATOM     23  C   UNL     1       4.078  -9.704  -7.805  0.00  0.00    +0.036 A 
ATOM     24  C   UNL     1       3.545  -8.998  -8.875  0.00  0.00    +0.024 A 
ATOM     25  C   UNL     1       3.867  -9.361 -10.168  0.00  0.00    +0.005 A 
ATOM     26  C   UNL     1       4.719 -10.426 -10.398  0.00  0.00    -0.050 A 
ATOM     27  C   UNL     1       5.251 -11.131  -9.334  0.00  0.00    +0.008 A 
ATOM     28  C   UNL     1       4.938 -10.769  -8.038  0.00  0.00    -0.029 A 
ATOM     29  C   UNL     1       5.523 -11.534  -6.879  0.00  0.00    +0.045 C 
ATOM     30  C   UNL     1       5.068 -10.819 -11.810  0.00  0.00    +0.044 C 
ENDBRANCH  21  23
ENDBRANCH  17  19
ENDBRANCH   1  17
TORSDOF 7
