REMARK  Name = ZINC35991894
REMARK  11 active torsions:
REMARK  status: ('A' for Active; 'I' for Inactive)
REMARK    1  A    between atoms: C_1  and  C_2
REMARK    2  A    between atoms: C_2  and  O_3
REMARK    3  A    between atoms: O_3  and  C_4
REMARK    4  A    between atoms: C_4  and  C_6
REMARK    5  A    between atoms: C_7  and  C_23
REMARK    6  A    between atoms: N_8  and  C_22
REMARK    7  A    between atoms: C_12  and  C_14
REMARK    8  A    between atoms: C_19  and  O_20
REMARK    9  A    between atoms: O_20  and  C_21
REMARK   10  A    between atoms: C_23  and  N_24
REMARK   11  A    between atoms: C_30  and  C_32
REMARK                            x       y       z     vdW  Elec       q    Type
REMARK                         _______ _______ _______ _____ _____    ______ ____
ROOT
ATOM      1  C   UNL     1       1.629  -2.328  -2.683  0.00  0.00    +0.080 C 
ATOM      2  C   UNL     1       1.949  -3.578  -3.081  0.00  0.00    +0.041 C 
ATOM      3  N   UNL     1       2.561  -3.800  -4.281  0.00  0.00    -0.260 N 
ATOM      4  C   UNL     1       2.888  -2.826  -5.140  0.00  0.00    +0.307 C 
ATOM      5  O   UNL     1       3.432  -3.122  -6.186  0.00  0.00    -0.252 OA
ATOM      6  N   UNL     1       2.633  -1.528  -4.882  0.00  0.00    -0.288 N 
ATOM      7  C   UNL     1       1.967  -1.182  -3.615  0.00  0.00    +0.147 C 
ATOM      8  C   UNL     1       2.880  -5.182  -4.649  0.00  0.00    +0.139 C 
ATOM      9  H   UNL     1       2.878  -0.838  -5.519  0.00  0.00    +0.151 HD
ENDROOT
BRANCH   7  10
ATOM     10  C   UNL     1       2.864  -0.227  -2.870  0.00  0.00    +0.019 A 
ATOM     11  C   UNL     1       4.237  -0.355  -2.961  0.00  0.00    +0.009 A 
ATOM     12  C   UNL     1       5.060   0.521  -2.278  0.00  0.00    +0.001 A 
ATOM     13  C   UNL     1       4.512   1.526  -1.502  0.00  0.00    +0.004 A 
ATOM     14  C   UNL     1       3.141   1.658  -1.409  0.00  0.00    +0.046 A 
ATOM     15  C   UNL     1       2.312   0.784  -2.098  0.00  0.00    +0.125 A 
BRANCH  15  16
ATOM     16  O   UNL     1       0.962   0.915  -2.012  0.00  0.00    -0.495 OA
ATOM     17  C   UNL     1       0.465   2.041  -1.286  0.00  0.00    +0.277 C 
ENDBRANCH  15  16
ENDBRANCH   7  10
BRANCH   1  18
ATOM     18  C   UNL     1       0.993  -2.096  -1.440  0.00  0.00    +0.339 C 
ATOM     19  O   UNL     1      -0.198  -1.849  -1.402  0.00  0.00    -0.245 OA
BRANCH  18  20
ATOM     20  O   UNL     1       1.708  -2.149  -0.297  0.00  0.00    -0.462 OA
BRANCH  20  22
ATOM     21  C   UNL     1       1.966  -1.977   2.100  0.00  0.00    +0.048 C 
ATOM     22  C   UNL     1       0.984  -2.016   0.928  0.00  0.00    +0.229 C 
ENDBRANCH  20  22
ENDBRANCH  18  20
ENDBRANCH   1  18
BRANCH   2  23
ATOM     23  C   UNL     1       1.625  -4.747  -2.187  0.00  0.00    +0.136 C 
BRANCH  23  24
ATOM     24  N   UNL     1       2.872  -5.361  -1.712  0.00  0.00    -0.294 NA
ATOM     25  C   UNL     1       3.549  -4.494  -0.739  0.00  0.00    +0.104 C 
ATOM     26  C   UNL     1       4.925  -5.081  -0.408  0.00  0.00    +0.123 C 
ATOM     27  N   UNL     1       4.747  -6.476   0.021  0.00  0.00    -0.299 N 
ATOM     28  C   UNL     1       3.960  -7.373  -0.839  0.00  0.00    +0.123 C 
ATOM     29  C   UNL     1       2.622  -6.696  -1.153  0.00  0.00    +0.104 C 
ATOM     30  C   UNL     1       5.291  -6.921   1.171  0.00  0.00    +0.219 C 
ATOM     31  O   UNL     1       5.937  -6.168   1.868  0.00  0.00    -0.275 OA
BRANCH  30  32
ATOM     32  C   UNL     1       5.096  -8.355   1.591  0.00  0.00    +0.075 C 
ATOM     33  C   UNL     1       5.792  -9.313   0.593  0.00  0.00    +0.013 C 
ATOM     34  C   UNL     1       6.024 -10.585   1.444  0.00  0.00    +0.001 C 
ATOM     35  C   UNL     1       6.397 -10.044   2.840  0.00  0.00    +0.001 C 
ATOM     36  C   UNL     1       5.807  -8.626   2.933  0.00  0.00    +0.013 C 
ENDBRANCH  30  32
ENDBRANCH  23  24
ENDBRANCH   2  23
TORSDOF 8
