REMARK  Name = ZINC02402300
REMARK  5 active torsions:
REMARK  status: ('A' for Active; 'I' for Inactive)
REMARK    1  A    between atoms: C_1  and  C_2
REMARK    2  A    between atoms: C_13  and  S_14
REMARK    3  A    between atoms: S_14  and  C_15
REMARK    4  A    between atoms: C_18  and  C_27
REMARK    5  A    between atoms: N_19  and  C_20
REMARK                            x       y       z     vdW  Elec       q    Type
REMARK                         _______ _______ _______ _____ _____    ______ ____
ROOT
ATOM      1  S   UNL     1       3.545   8.008   0.421  0.00  0.00    -0.044 S 
ENDROOT
BRANCH   1  14
ATOM      2  C   UNL     1       4.209   9.544  -2.101  0.00  0.00    +0.046 C 
ATOM      3  C   UNL     1       3.158  10.149  -1.206  0.00  0.00    -0.022 A 
ATOM      4  C   UNL     1       2.508  11.409  -1.564  0.00  0.00    +0.006 A 
ATOM      5  C   UNL     1       2.851  12.075  -2.749  0.00  0.00    +0.059 A 
ATOM      6  C   UNL     1       2.235  13.265  -3.068  0.00  0.00    +0.167 A 
ATOM      7  C   UNL     1       1.267  13.809  -2.215  0.00  0.00    +0.168 A 
ATOM      8  C   UNL     1       0.922  13.158  -1.045  0.00  0.00    +0.075 A 
ATOM      9  C   UNL     1       1.534  11.956  -0.708  0.00  0.00    +0.053 A 
ATOM     10  N   UNL     1       1.191  11.302   0.460  0.00  0.00    -0.321 N 
ATOM     11  H   UNL     1       0.517  11.688   1.041  0.00  0.00    +0.169 HD
ATOM     12  C   UNL     1       1.773  10.140   0.804  0.00  0.00    +0.263 A 
ATOM     13  O   UNL     1       1.448   9.589   1.841  0.00  0.00    -0.267 OA
ATOM     14  C   UNL     1       2.791   9.530  -0.048  0.00  0.00    +0.083 A 
ATOM     15  O   UNL     1       0.819  14.978  -2.758  0.00  0.00    -0.453 OA
ATOM     16  C   UNL     1       1.807  15.353  -3.736  0.00  0.00    +0.466 C 
ATOM     17  O   UNL     1       2.385  14.098  -4.141  0.00  0.00    -0.453 OA
ENDBRANCH   1  14
BRANCH   1  18
ATOM     18  C   UNL     1       2.156   6.930   0.303  0.00  0.00    +0.201 A 
ATOM     19  N   UNL     1       0.920   7.279   0.027  0.00  0.00    -0.121 NA
ATOM     20  N   UNL     1       0.159   6.243   0.014  0.00  0.00    -0.127 NA
ATOM     21  C   UNL     1       0.860   5.166   0.292  0.00  0.00    +0.176 A 
ATOM     22  N   UNL     1       2.164   5.572   0.482  0.00  0.00    -0.270 N 
BRANCH  22  23
ATOM     23  C   UNL     1       3.267   4.763   0.794  0.00  0.00    +0.051 A 
ATOM     24  C   UNL     1       3.318   4.097   2.011  0.00  0.00    +0.029 A 
ATOM     25  C   UNL     1       4.402   3.297   2.313  0.00  0.00    +0.040 A 
ATOM     26  C   UNL     1       5.444   3.169   1.410  0.00  0.00    +0.124 A 
ATOM     27  C   UNL     1       5.397   3.838   0.198  0.00  0.00    +0.040 A 
ATOM     28  C   UNL     1       4.311   4.634  -0.111  0.00  0.00    +0.029 A 
ATOM     29  F   UNL     1       6.506   2.391   1.710  0.00  0.00    -0.205 F 
ENDBRANCH  22  23
BRANCH  21  30
ATOM     30  C   UNL     1       0.351   3.788   0.377  0.00  0.00    +0.057 A 
ATOM     31  C   UNL     1      -0.946   3.350   0.475  0.00  0.00    +0.019 A 
ATOM     32  C   UNL     1      -1.183   1.995   0.537  0.00  0.00    +0.008 A 
ATOM     33  C   UNL     1      -0.130   1.137   0.509  0.00  0.00    +0.046 A 
ATOM     34  S   UNL     1       1.259   2.251   0.380  0.00  0.00    -0.094 S 
ENDBRANCH  21  30
ENDBRANCH   1  18
TORSDOF 4
