REMARK  Name = ZINC64338200
REMARK  11 active torsions:
REMARK  status: ('A' for Active; 'I' for Inactive)
REMARK    1  A    between atoms: C_7  and  C_10
REMARK    2  A    between atoms: C_10  and  C_12
REMARK    3  A    between atoms: C_10  and  C_27
REMARK    4  A    between atoms: C_12  and  N_13
REMARK    5  A    between atoms: N_13  and  C_14
REMARK    6  A    between atoms: C_14  and  C_15
REMARK    7  A    between atoms: C_15  and  C_17
REMARK    8  A    between atoms: C_15  and  O_26
REMARK    9  A    between atoms: C_17  and  O_18
REMARK   10  A    between atoms: O_18  and  C_19
REMARK   11  A    between atoms: C_19  and  C_20
REMARK                            x       y       z     vdW  Elec       q    Type
REMARK                         _______ _______ _______ _____ _____    ______ ____
ROOT
ATOM      1  C   UNL     1       0.691  -3.186  -0.024  0.00  0.00    +0.032 C 
ENDROOT
BRANCH   1   8
ATOM      2  C   UNL     1      -0.016   1.348   0.009  0.00  0.00    +0.001 A 
ATOM      3  C   UNL     1       1.166   2.101   0.002  0.00  0.00    +0.002 A 
ATOM      4  C   UNL     1       2.391   1.535  -0.013  0.00  0.00    +0.026 A 
ATOM      5  C   UNL     1       2.529   0.120  -0.022  0.00  0.00    +0.043 A 
ATOM      6  N   UNL     1       3.587  -0.654  -0.037  0.00  0.00    -0.380 N 
ATOM      7  C   UNL     1       3.143  -2.053  -0.041  0.00  0.00    +0.145 C 
ATOM      8  C   UNL     1       1.631  -2.008  -0.025  0.00  0.00    -0.036 C 
ATOM      9  C   UNL     1       1.295  -0.698  -0.014  0.00  0.00    -0.001 A 
ATOM     10  C   UNL     1       0.002  -0.004   0.002  0.00  0.00    +0.010 A 
ATOM     11  H   UNL     1       4.509  -0.353  -0.045  0.00  0.00    +0.160 HD
ENDBRANCH   1   8
BRANCH   1  12
ATOM     12  C   UNL     1       0.944  -4.029   1.199  0.00  0.00    -0.024 A 
ATOM     13  C   UNL     1       2.189  -4.591   1.405  0.00  0.00    +0.005 A 
ATOM     14  C   UNL     1       2.422  -5.365   2.527  0.00  0.00    +0.000 A 
ATOM     15  C   UNL     1       1.408  -5.577   3.443  0.00  0.00    +0.001 A 
ATOM     16  C   UNL     1       0.162  -5.016   3.238  0.00  0.00    +0.020 A 
ATOM     17  C   UNL     1      -0.069  -4.237   2.118  0.00  0.00    +0.045 A 
ATOM     18 CL   UNL     1      -1.632  -3.525   1.863  0.00  0.00    -0.083 Cl
ENDBRANCH   1  12
BRANCH   1  19
ATOM     19  C   UNL     1       0.923  -4.026  -1.281  0.00  0.00    -0.070 C 
BRANCH  19  20
ATOM     20  N   UNL     1      -0.072  -5.105  -1.340  0.00  0.00    +0.381 N 
ATOM     21  H   UNL     1       0.017  -5.690  -0.523  0.00  0.00    -0.086 HD
ATOM     22  H   UNL     1      -0.999  -4.706  -1.369  0.00  0.00    -0.086 HD
BRANCH  20  23
ATOM     23  C   UNL     1       0.151  -5.912  -2.547  0.00  0.00    -0.049 C 
BRANCH  23  24
ATOM     24  C   UNL     1      -0.886  -7.035  -2.608  0.00  0.00    +0.123 C 
BRANCH  24  25
ATOM     25  O   UNL     1      -2.189  -6.472  -2.767  0.00  0.00    -0.391 OA
ATOM     26  H   UNL     1      -2.294  -5.942  -3.569  0.00  0.00    +0.210 HD
ENDBRANCH  24  25
BRANCH  24  27
ATOM     27  C   UNL     1      -0.578  -7.949  -3.796  0.00  0.00    +0.189 C 
BRANCH  27  28
ATOM     28  O   UNL     1      -1.474  -9.062  -3.786  0.00  0.00    -0.375 OA
BRANCH  28  29
ATOM     29  C   UNL     1      -1.270  -9.983  -4.859  0.00  0.00    +0.191 C 
BRANCH  29  30
ATOM     30  C   UNL     1      -2.280 -11.127  -4.749  0.00  0.00    +0.144 C 
ATOM     31  C   UNL     1      -1.990 -12.188  -5.833  0.00  0.00    +0.036 C 
ATOM     32  C   UNL     1      -3.419 -12.600  -6.280  0.00  0.00    +0.031 C 
ATOM     33  C   UNL     1      -4.173 -11.255  -6.134  0.00  0.00    +0.160 C 
ATOM     34  O   UNL     1      -3.605 -10.629  -4.971  0.00  0.00    -0.374 OA
ENDBRANCH  29  30
ENDBRANCH  28  29
ENDBRANCH  27  28
ENDBRANCH  24  27
ENDBRANCH  23  24
ENDBRANCH  20  23
ENDBRANCH  19  20
ENDBRANCH   1  19
TORSDOF 11
