REMARK  Name = ZINC13248655
REMARK  13 active torsions:
REMARK  status: ('A' for Active; 'I' for Inactive)
REMARK    1  A    between atoms: C_1  and  C_2
REMARK    2  A    between atoms: C_2  and  O_3
REMARK    3  A    between atoms: O_3  and  C_4
REMARK    4  A    between atoms: C_4  and  C_6
REMARK    5  A    between atoms: C_6  and  C_8
REMARK    6  A    between atoms: C_6  and  N_22
REMARK    7  A    between atoms: C_9  and  C_21
REMARK    8  A    between atoms: N_11  and  C_14
REMARK    9  A    between atoms: C_12  and  C_13
REMARK   10  A    between atoms: C_14  and  C_15
REMARK   11  A    between atoms: N_22  and  S_23
REMARK   12  A    between atoms: S_23  and  C_26
REMARK   13  A    between atoms: C_30  and  C_32
REMARK                            x       y       z     vdW  Elec       q    Type
REMARK                         _______ _______ _______ _____ _____    ______ ____
ROOT
ATOM      1  C   UNL     1      -4.649   1.469   4.527  0.00  0.00    +0.218 C 
ENDROOT
BRANCH   1   2
ATOM      2  C   UNL     1      -3.854   0.929   3.366  0.00  0.00    +0.025 A 
ATOM      3  C   UNL     1      -3.136  -0.271   3.348  0.00  0.00    +0.065 A 
ATOM      4  N   UNL     1      -2.584  -0.399   2.168  0.00  0.00    -0.176 NA
ATOM      5  N   UNL     1      -2.927   0.722   1.401  0.00  0.00    -0.264 N 
ATOM      6  C   UNL     1      -3.709   1.520   2.158  0.00  0.00    +0.042 A 
ATOM      7  C   UNL     1      -4.313   2.834   1.732  0.00  0.00    +0.065 C 
ATOM      8  C   UNL     1      -3.023  -1.250   4.487  0.00  0.00    +0.068 C 
BRANCH   5   9
ATOM      9  C   UNL     1      -2.514   0.980   0.019  0.00  0.00    +0.178 C 
BRANCH   9  10
ATOM     10  C   UNL     1      -1.219   1.751   0.017  0.00  0.00    -0.026 A 
ATOM     11  C   UNL     1      -0.013   1.076   0.008  0.00  0.00    +0.005 A 
ATOM     12  C   UNL     1       1.175   1.783   0.000  0.00  0.00    +0.000 A 
ATOM     13  C   UNL     1       1.156   3.165   0.008  0.00  0.00    +0.000 A 
ATOM     14  C   UNL     1      -0.050   3.840   0.022  0.00  0.00    +0.000 A 
ATOM     15  C   UNL     1      -1.238   3.133   0.030  0.00  0.00    +0.005 A 
ENDBRANCH   9  10
ENDBRANCH   5   9
ENDBRANCH   1   2
BRANCH   1  16
ATOM     16  C   UNL     1      -3.708   2.014   5.571  0.00  0.00    +0.331 C 
ATOM     17  O   UNL     1      -3.709   1.551   6.686  0.00  0.00    -0.249 OA
BRANCH  16  18
ATOM     18  O   UNL     1      -2.868   3.014   5.260  0.00  0.00    -0.464 OA
BRANCH  18  20
ATOM     19  C   UNL     1      -1.113   4.621   5.777  0.00  0.00    +0.048 C 
ATOM     20  C   UNL     1      -1.990   3.489   6.314  0.00  0.00    +0.229 C 
ENDBRANCH  18  20
ENDBRANCH  16  18
ENDBRANCH   1  16
BRANCH   1  21
ATOM     21  N   UNL     1      -5.454   0.393   5.110  0.00  0.00    -0.172 NA
ATOM     22  H   UNL     1      -5.107  -0.512   5.136  0.00  0.00    +0.149 HD
BRANCH  21  23
ATOM     23  S   UNL     1      -6.956   0.722   5.725  0.00  0.00    +0.059 S 
ATOM     24  O   UNL     1      -7.487  -0.513   6.185  0.00  0.00    -0.153 OA
ATOM     25  O   UNL     1      -6.809   1.852   6.574  0.00  0.00    -0.153 OA
BRANCH  23  26
ATOM     26  C   UNL     1      -7.970   1.234   4.377  0.00  0.00    +0.106 A 
ATOM     27  C   UNL     1      -8.693   0.296   3.662  0.00  0.00    +0.028 A 
ATOM     28  C   UNL     1      -9.491   0.689   2.602  0.00  0.00    +0.003 A 
ATOM     29  C   UNL     1      -9.570   2.021   2.252  0.00  0.00    +0.015 A 
ATOM     30  C   UNL     1      -8.843   2.973   2.969  0.00  0.00    +0.065 A 
ATOM     31  C   UNL     1      -8.044   2.570   4.041  0.00  0.00    +0.043 A 
BRANCH  30  32
ATOM     32  C   UNL     1      -8.924   4.401   2.600  0.00  0.00    +0.387 C 
ATOM     33  O   UNL     1      -8.290   5.227   3.226  0.00  0.00    -0.241 OA
ATOM     34  O   UNL     1      -9.700   4.788   1.569  0.00  0.00    -0.241 OA
ENDBRANCH  30  32
ENDBRANCH  23  26
ENDBRANCH  21  23
ENDBRANCH   1  21
TORSDOF 10
