REMARK  Name = ZINC63767308
REMARK  7 active torsions:
REMARK  status: ('A' for Active; 'I' for Inactive)
REMARK    1  A    between atoms: C_1  and  C_2
REMARK    2  A    between atoms: C_2  and  C_31
REMARK    3  A    between atoms: N_7  and  C_10
REMARK    4  A    between atoms: C_14  and  C_16
REMARK    5  A    between atoms: N_18  and  C_19
REMARK    6  A    between atoms: C_19  and  C_20
REMARK    7  A    between atoms: C_20  and  C_21
REMARK                            x       y       z     vdW  Elec       q    Type
REMARK                         _______ _______ _______ _____ _____    ______ ____
ROOT
ATOM      1  C   UNL     1       2.342  -2.159   2.046  0.00  0.00    +0.060 A 
ATOM      2  C   UNL     1       2.746  -3.482   1.903  0.00  0.00    +0.027 A 
ATOM      3  C   UNL     1       3.489  -4.093   2.894  0.00  0.00    +0.022 A 
ATOM      4  C   UNL     1       3.836  -3.394   4.035  0.00  0.00    +0.053 A 
ATOM      5  C   UNL     1       3.434  -2.064   4.187  0.00  0.00    +0.057 A 
ATOM      6  C   UNL     1       2.688  -1.447   3.182  0.00  0.00    +0.039 A 
ATOM      7 CL   UNL     1       4.769  -4.167   5.277  0.00  0.00    -0.083 Cl
ENDROOT
BRANCH   1  14
ATOM      8  C   UNL     1      -0.019   1.526   0.010  0.00  0.00    +0.022 C 
ATOM      9  C   UNL     1       0.002  -0.004   0.002  0.00  0.00    +0.064 C 
ATOM     10  C   UNL     1       0.713  -0.509  -1.282  0.00  0.00    +0.205 C 
ATOM     11  S   UNL     1       1.568  -1.979  -0.579  0.00  0.00    +0.053 S 
ATOM     12  O   UNL     1       2.929  -2.016  -0.985  0.00  0.00    -0.155 OA
ATOM     13  O   UNL     1       0.741  -3.132  -0.658  0.00  0.00    -0.155 OA
ATOM     14  N   UNL     1       1.589  -1.545   1.038  0.00  0.00    -0.143 N 
ATOM     15  C   UNL     1       0.757  -0.505   1.196  0.00  0.00    +0.246 C 
ATOM     16  O   UNL     1       0.619   0.019   2.282  0.00  0.00    -0.273 OA
ATOM     17  C   UNL     1      -1.431  -0.538   0.038  0.00  0.00    +0.022 C 
ENDBRANCH   1  14
BRANCH   5  18
ATOM     18  C   UNL     1       3.803  -1.313   5.405  0.00  0.00    +0.246 C 
ATOM     19  O   UNL     1       4.456  -1.852   6.277  0.00  0.00    -0.270 OA
ATOM     20  N   UNL     1       3.414  -0.031   5.549  0.00  0.00    -0.311 N 
ATOM     21  H   UNL     1       2.893   0.399   4.854  0.00  0.00    +0.149 HD
BRANCH  20  22
ATOM     22  C   UNL     1       3.780   0.714   6.757  0.00  0.00    +0.109 C 
BRANCH  22  23
ATOM     23  C   UNL     1       3.219   2.135   6.669  0.00  0.00    +0.052 C 
BRANCH  23  24
ATOM     24  C   UNL     1       3.595   2.901   7.912  0.00  0.00    -0.040 C 
ATOM     25  C   UNL     1       4.657   3.723   8.070  0.00  0.00    -0.001 A 
ATOM     26  C   UNL     1       5.740   4.133   7.168  0.00  0.00    +0.010 A 
ATOM     27  C   UNL     1       6.684   4.988   7.623  0.00  0.00    +0.001 A 
ATOM     28  C   UNL     1       6.654   5.491   8.931  0.00  0.00    +0.002 A 
ATOM     29  C   UNL     1       5.692   5.160   9.817  0.00  0.00    +0.026 A 
ATOM     30  C   UNL     1       4.648   4.268   9.446  0.00  0.00    +0.043 A 
ATOM     31  N   UNL     1       3.620   3.802  10.113  0.00  0.00    -0.380 N 
ATOM     32  C   UNL     1       2.857   2.911   9.231  0.00  0.00    +0.144 C 
ATOM     33  H   UNL     1       3.399   4.013  11.033  0.00  0.00    +0.160 HD
ENDBRANCH  23  24
ENDBRANCH  22  23
ENDBRANCH  20  22
ENDBRANCH   5  18
TORSDOF 5
