REMARK  Name = ZINC59890633
REMARK  9 active torsions:
REMARK  status: ('A' for Active; 'I' for Inactive)
REMARK    1  A    between atoms: C_1  and  C_2
REMARK    2  A    between atoms: C_7  and  C_9
REMARK    3  A    between atoms: C_7  and  N_30
REMARK    4  A    between atoms: C_9  and  N_10
REMARK    5  A    between atoms: C_11  and  C_13
REMARK    6  A    between atoms: N_15  and  C_24
REMARK    7  A    between atoms: C_17  and  C_18
REMARK    8  A    between atoms: N_30  and  C_31
REMARK    9  A    between atoms: N_30  and  C_32
REMARK                            x       y       z     vdW  Elec       q    Type
REMARK                         _______ _______ _______ _____ _____    ______ ____
ROOT
ATOM      1  C   UNL     1       1.361  -6.339   3.373  0.00  0.00    +0.082 A 
ATOM      2  C   UNL     1       0.700  -7.055   2.397  0.00  0.00    +0.128 A 
ATOM      3  N   UNL     1       0.701  -8.348   2.763  0.00  0.00    -0.239 N 
ATOM      4  N   UNL     1       1.364  -8.491   3.985  0.00  0.00    -0.166 NA
ATOM      5  C   UNL     1       1.783  -7.312   4.386  0.00  0.00    +0.107 A 
ENDROOT
BRANCH   5   6
ATOM      6  C   UNL     1       2.537  -7.020   5.629  0.00  0.00    +0.021 A 
ATOM      7  C   UNL     1       2.289  -7.747   6.797  0.00  0.00    +0.013 A 
ATOM      8  C   UNL     1       3.020  -7.437   7.931  0.00  0.00    +0.020 A 
ATOM      9  C   UNL     1       3.962  -6.426   7.873  0.00  0.00    +0.111 A 
ATOM     10  N   UNL     1       4.174  -5.757   6.756  0.00  0.00    -0.263 NA
ATOM     11  C   UNL     1       3.507  -6.020   5.651  0.00  0.00    +0.120 A 
ENDBRANCH   5   6
BRANCH   3  12
ATOM     12  C   UNL     1       0.124  -9.395   2.031  0.00  0.00    +0.065 A 
ATOM     13  C   UNL     1      -0.507  -9.133   0.822  0.00  0.00    +0.028 A 
ATOM     14  C   UNL     1      -1.074 -10.166   0.102  0.00  0.00    +0.002 A 
ATOM     15  C   UNL     1      -1.014 -11.461   0.585  0.00  0.00    +0.000 A 
ATOM     16  C   UNL     1      -0.387 -11.725   1.788  0.00  0.00    +0.002 A 
ATOM     17  C   UNL     1       0.188 -10.696   2.510  0.00  0.00    +0.028 A 
ENDBRANCH   3  12
BRANCH   1  19
ATOM     18  N   UNL     1       1.149  -4.115   2.383  0.00  0.00    -0.313 N 
ATOM     19  C   UNL     1       1.601  -4.886   3.392  0.00  0.00    +0.248 C 
ATOM     20  O   UNL     1       2.207  -4.381   4.318  0.00  0.00    -0.270 OA
ATOM     21  H   UNL     1       0.666  -4.517   1.644  0.00  0.00    +0.149 HD
BRANCH  18  22
ATOM     22  C   UNL     1       1.388  -2.670   2.401  0.00  0.00    +0.092 C 
BRANCH  22  28
ATOM     23  C   UNL     1       1.111  -2.509  -2.585  0.00  0.00    +0.007 C 
ATOM     24  C   UNL     1       0.543  -1.940  -1.284  0.00  0.00    -0.015 C 
ATOM     25  C   UNL     1      -0.957  -2.236  -1.210  0.00  0.00    +0.003 C 
ATOM     26  C   UNL     1      -1.525  -1.667   0.092  0.00  0.00    -0.001 C 
ATOM     27  C   UNL     1      -0.819  -2.316   1.283  0.00  0.00    -0.010 C 
ATOM     28  C   UNL     1       0.681  -2.021   1.210  0.00  0.00    -0.050 C 
ATOM     29  C   UNL     1       1.250  -2.589  -0.092  0.00  0.00    -0.007 C 
BRANCH  28  30
ATOM     30  N   UNL     1       0.896  -0.568   1.245  0.00  0.00    +0.381 N 
ATOM     31  C   UNL     1       0.328  -0.019   2.483  0.00  0.00    -0.096 C 
ATOM     32  C   UNL     1       2.337  -0.285   1.199  0.00  0.00    -0.096 C 
ATOM     33  H   UNL     1       0.444  -0.142   0.449  0.00  0.00    -0.082 HD
ENDBRANCH  28  30
ENDBRANCH  22  28
ENDBRANCH  18  22
ENDBRANCH   1  19
TORSDOF 6
