REMARK  Name = ZINC65248621
REMARK  7 active torsions:
REMARK  status: ('A' for Active; 'I' for Inactive)
REMARK    1  A    between atoms: C_1  and  C_2
REMARK    2  A    between atoms: C_2  and  C_3
REMARK    3  A    between atoms: C_2  and  O_4
REMARK    4  A    between atoms: O_4  and  C_5
REMARK    5  A    between atoms: C_8  and  C_11
REMARK    6  A    between atoms: C_13  and  C_16
REMARK    7  A    between atoms: C_18  and  O_29
REMARK                            x       y       z     vdW  Elec       q    Type
REMARK                         _______ _______ _______ _____ _____    ______ ____
ROOT
ATOM      1  C   UNL     1      -2.296  -0.983   5.882  0.00  0.00    +0.202 A 
ATOM      2  N   UNL     1      -1.804  -1.309   7.091  0.00  0.00    -0.190 NA
ATOM      3  C   UNL     1      -2.765  -1.340   7.970  0.00  0.00    +0.247 A 
ATOM      4  O   UNL     1      -3.914  -1.033   7.354  0.00  0.00    -0.336 OA
ATOM      5  N   UNL     1      -3.589  -0.798   5.992  0.00  0.00    -0.056 NA
ENDROOT
BRANCH   3   6
ATOM      6  C   UNL     1      -2.610  -1.666   9.433  0.00  0.00    +0.229 C 
ATOM      7  C   UNL     1      -2.992  -0.432  10.228  0.00  0.00    +0.124 C 
ATOM      8  C   UNL     1      -4.028  -0.569  11.154  0.00  0.00    +0.036 A 
ATOM      9  C   UNL     1      -4.446   0.528  11.934  0.00  0.00    +0.013 A 
ATOM     10  C   UNL     1      -5.459   0.368  12.829  0.00  0.00    +0.002 A 
ATOM     11  C   UNL     1      -6.094  -0.859  12.992  0.00  0.00    +0.022 A 
ATOM     12  C   UNL     1      -5.733  -1.956  12.267  0.00  0.00    +0.063 A 
ATOM     13  C   UNL     1      -4.694  -1.863  11.323  0.00  0.00    +0.062 A 
ATOM     14  N   UNL     1      -4.342  -2.941  10.611  0.00  0.00    -0.283 N 
ATOM     15  C   UNL     1      -3.382  -2.936   9.710  0.00  0.00    +0.237 C 
ATOM     16  O   UNL     1      -3.116  -3.954   9.099  0.00  0.00    -0.274 OA
ATOM     17 CL   UNL     1      -6.556  -3.466  12.507  0.00  0.00    -0.082 Cl
ATOM     18  H   UNL     1      -4.820  -3.771  10.768  0.00  0.00    +0.155 HD
BRANCH   7  19
ATOM     19  O   UNL     1      -2.364   0.735  10.050  0.00  0.00    -0.509 OA
ATOM     20  H   UNL     1      -2.695   1.449  10.613  0.00  0.00    +0.292 HD
ENDBRANCH   7  19
ENDBRANCH   3   6
BRANCH   1  24
ATOM     21  C   UNL     1      -0.030  -0.600   2.303  0.00  0.00    +0.121 A 
ATOM     22  C   UNL     1      -1.401  -0.376   2.283  0.00  0.00    +0.046 A 
ATOM     23  C   UNL     1      -2.138  -0.499   3.442  0.00  0.00    +0.015 A 
ATOM     24  C   UNL     1      -1.506  -0.850   4.634  0.00  0.00    +0.023 A 
ATOM     25  C   UNL     1      -0.130  -1.074   4.651  0.00  0.00    +0.015 A 
ATOM     26  C   UNL     1       0.601  -0.954   3.488  0.00  0.00    +0.046 A 
BRANCH  21  27
ATOM     27  O   UNL     1       0.693  -0.477   1.160  0.00  0.00    -0.489 OA
BRANCH  27  29
ATOM     28  C   UNL     1      -0.292   1.273  -0.184  0.00  0.00    +0.051 C 
ATOM     29  C   UNL     1      -0.034  -0.229  -0.045  0.00  0.00    +0.167 C 
ATOM     30  C   UNL     1       0.781  -0.719  -1.243  0.00  0.00    +0.051 C 
ENDBRANCH  27  29
ENDBRANCH  21  27
ENDBRANCH   1  24
TORSDOF 5
