REMARK  Name = ZINC13659666
REMARK  5 active torsions:
REMARK  status: ('A' for Active; 'I' for Inactive)
REMARK    1  A    between atoms: C_1  and  C_2
REMARK    2  A    between atoms: C_5  and  N_8
REMARK    3  A    between atoms: C_13  and  C_15
REMARK    4  A    between atoms: N_17  and  C_18
REMARK    5  A    between atoms: N_26  and  C_29
REMARK                            x       y       z     vdW  Elec       q    Type
REMARK                         _______ _______ _______ _____ _____    ______ ____
ROOT
ATOM      1  N   UNL     1       0.033  -4.178  -0.016  0.00  0.00    -0.236 N 
ATOM      2  C   UNL     1       0.149  -5.094   1.120  0.00  0.00    +0.217 C 
ATOM      3  C   UNL     1       0.870  -6.293   0.490  0.00  0.00    +0.073 C 
ATOM      4  H   UNL     1      -0.497  -4.849  -1.967  0.00  0.00    +0.170 HD
ATOM      5  C   UNL     1       0.596  -6.229  -0.820  0.00  0.00    +0.117 C 
ATOM      6  N   UNL     1      -0.055  -5.049  -1.128  0.00  0.00    -0.258 N 
ATOM      7  C   UNL     1       1.593  -6.829   1.641  0.00  0.00    +0.258 C 
ATOM      8  O   UNL     1       1.907  -7.991   1.814  0.00  0.00    -0.269 OA
ATOM      9  N   UNL     1       1.852  -5.799   2.478  0.00  0.00    -0.205 N 
ATOM     10  C   UNL     1       1.148  -4.670   2.168  0.00  0.00    +0.253 C 
ATOM     11  O   UNL     1       1.295  -3.558   2.627  0.00  0.00    -0.272 OA
ENDROOT
BRANCH   1  16
ATOM     12  C   UNL     1      -0.068   1.492   0.030  0.00  0.00    +0.044 C 
ATOM     13  C   UNL     1      -0.041  -0.015   0.017  0.00  0.00    -0.050 A 
ATOM     14  C   UNL     1       0.576  -0.686  -1.022  0.00  0.00    +0.005 A 
ATOM     15  C   UNL     1       0.603  -2.066  -1.036  0.00  0.00    +0.025 A 
ATOM     16  C   UNL     1       0.008  -2.781  -0.004  0.00  0.00    +0.049 A 
ATOM     17  C   UNL     1      -0.611  -2.104   1.038  0.00  0.00    +0.025 A 
ATOM     18  C   UNL     1      -0.629  -0.724   1.049  0.00  0.00    +0.005 A 
ENDBRANCH   1  16
BRANCH   9  19
ATOM     19  C   UNL     1       2.740  -5.882   3.558  0.00  0.00    +0.044 A 
ATOM     20  C   UNL     1       2.945  -4.778   4.376  0.00  0.00    +0.025 A 
ATOM     21  C   UNL     1       3.821  -4.862   5.440  0.00  0.00    +0.017 A 
ATOM     22  C   UNL     1       4.494  -6.045   5.692  0.00  0.00    +0.018 A 
ATOM     23  C   UNL     1       4.291  -7.146   4.879  0.00  0.00    +0.017 A 
ATOM     24  C   UNL     1       3.411  -7.069   3.817  0.00  0.00    +0.025 A 
ATOM     25 BR   UNL     1       5.692  -6.157   7.151  0.00  0.00    -0.050 Br
ENDBRANCH   9  19
BRANCH   5  26
ATOM     26  C   UNL     1       0.939  -7.282  -1.805  0.00  0.00    +0.264 C 
ATOM     27  O   UNL     1       1.510  -8.291  -1.441  0.00  0.00    -0.268 OA
ATOM     28  N   UNL     1       0.619  -7.120  -3.104  0.00  0.00    -0.280 N 
ATOM     29  H   UNL     1       0.236  -6.283  -3.409  0.00  0.00    +0.155 HD
BRANCH  28  30
ATOM     30  C   UNL     1       0.840  -8.159  -4.013  0.00  0.00    +0.034 A 
ATOM     31  C   UNL     1       0.677  -9.479  -3.614  0.00  0.00    +0.023 A 
ATOM     32  C   UNL     1       0.895 -10.504  -4.514  0.00  0.00    +0.002 A 
ATOM     33  C   UNL     1       1.276 -10.216  -5.812  0.00  0.00    +0.000 A 
ATOM     34  C   UNL     1       1.439  -8.902  -6.213  0.00  0.00    +0.002 A 
ATOM     35  C   UNL     1       1.216  -7.873  -5.319  0.00  0.00    +0.023 A 
ENDBRANCH  28  30
ENDBRANCH   5  26
TORSDOF 4
