REMARK  Name = ZINC58881263
REMARK  9 active torsions:
REMARK  status: ('A' for Active; 'I' for Inactive)
REMARK    1  A    between atoms: C_4  and  C_7
REMARK    2  A    between atoms: C_7  and  N_8
REMARK    3  A    between atoms: C_9  and  C_11
REMARK    4  A    between atoms: C_11  and  O_12
REMARK    5  A    between atoms: O_12  and  C_13
REMARK    6  A    between atoms: C_16  and  C_19
REMARK    7  A    between atoms: N_20  and  N_21
REMARK    8  A    between atoms: C_22  and  C_24
REMARK    9  A    between atoms: N_26  and  C_27
REMARK                            x       y       z     vdW  Elec       q    Type
REMARK                         _______ _______ _______ _____ _____    ______ ____
ROOT
ATOM      1  C   UNL     1       7.545  -2.889   4.169  0.00  0.00    +0.121 A 
ATOM      2  C   UNL     1       6.897  -2.520   5.342  0.00  0.00    +0.046 A 
ATOM      3  C   UNL     1       7.456  -2.822   6.564  0.00  0.00    +0.013 A 
ATOM      4  C   UNL     1       8.677  -3.501   6.624  0.00  0.00    -0.005 A 
ATOM      5  C   UNL     1       9.325  -3.870   5.442  0.00  0.00    +0.013 A 
ATOM      6  C   UNL     1       8.756  -3.568   4.224  0.00  0.00    +0.046 A 
ENDROOT
BRANCH   4   7
ATOM      7  C   UNL     1       9.278  -3.826   7.929  0.00  0.00    +0.138 C 
ATOM      8  N   UNL     1      10.413  -4.457   7.982  0.00  0.00    -0.187 NA
BRANCH   8   9
ATOM      9  N   UNL     1      10.985  -4.766   9.223  0.00  0.00    -0.199 N 
ATOM     10  C   UNL     1      12.162  -5.420   9.278  0.00  0.00    +0.318 C 
ATOM     11  O   UNL     1      12.727  -5.742   8.252  0.00  0.00    -0.263 OA
ATOM     12  H   UNL     1      10.534  -4.509  10.043  0.00  0.00    +0.178 HD
BRANCH  10  13
ATOM     13  C   UNL     1      12.771  -5.749  10.599  0.00  0.00    +0.305 C 
ATOM     14  O   UNL     1      12.207  -5.428  11.624  0.00  0.00    -0.265 OA
ATOM     15  N   UNL     1      13.948  -6.404  10.654  0.00  0.00    -0.278 N 
ATOM     16  H   UNL     1      14.366  -6.719   9.837  0.00  0.00    +0.155 HD
BRANCH  15  17
ATOM     17  C   UNL     1      14.566  -6.627  11.887  0.00  0.00    +0.034 A 
ATOM     18  C   UNL     1      15.952  -6.592  11.988  0.00  0.00    +0.024 A 
ATOM     19  C   UNL     1      16.560  -6.813  13.208  0.00  0.00    +0.017 A 
ATOM     20  C   UNL     1      15.791  -7.068  14.329  0.00  0.00    +0.018 A 
ATOM     21  C   UNL     1      14.411  -7.103  14.232  0.00  0.00    +0.017 A 
ATOM     22  C   UNL     1      13.797  -6.878  13.016  0.00  0.00    +0.024 A 
ATOM     23 BR   UNL     1      16.627  -7.370  15.998  0.00  0.00    -0.050 Br
ENDBRANCH  15  17
ENDBRANCH  10  13
ENDBRANCH   8   9
ENDBRANCH   4   7
BRANCH   1  24
ATOM     24  O   UNL     1       6.991  -2.588   2.966  0.00  0.00    -0.483 OA
BRANCH  24  25
ATOM     25  C   UNL     1       5.745  -1.889   2.983  0.00  0.00    +0.324 C 
BRANCH  25  27
ATOM     26  N   UNL     1       4.129  -0.996   1.337  0.00  0.00    -0.308 N 
ATOM     27  C   UNL     1       5.287  -1.645   1.568  0.00  0.00    +0.251 C 
ATOM     28  O   UNL     1       5.962  -2.032   0.637  0.00  0.00    -0.272 OA
ATOM     29  H   UNL     1       3.590  -0.686   2.081  0.00  0.00    +0.149 HD
BRANCH  26  30
ATOM     30  C   UNL     1       3.684  -0.759  -0.039  0.00  0.00    +0.139 C 
BRANCH  30  34
ATOM     31  C   UNL     1      -0.040   1.333   0.008  0.00  0.00    +0.000 A 
ATOM     32  C   UNL     1       1.149   2.038  -0.009  0.00  0.00    +0.000 A 
ATOM     33  C   UNL     1       2.354   1.361  -0.024  0.00  0.00    +0.005 A 
ATOM     34  C   UNL     1       2.370  -0.021  -0.022  0.00  0.00    -0.030 A 
ATOM     35  C   UNL     1       1.181  -0.726  -0.004  0.00  0.00    +0.005 A 
ATOM     36  C   UNL     1      -0.024  -0.049   0.009  0.00  0.00    +0.000 A 
ENDBRANCH  30  34
ENDBRANCH  26  30
ENDBRANCH  25  27
ENDBRANCH  24  25
ENDBRANCH   1  24
TORSDOF 9
