REMARK  Name = ZINC60463241
REMARK  6 active torsions:
REMARK  status: ('A' for Active; 'I' for Inactive)
REMARK    1  A    between atoms: C_1  and  C_2
REMARK    2  A    between atoms: C_2  and  C_3
REMARK    3  A    between atoms: C_2  and  N_10
REMARK    4  A    between atoms: C_14  and  C_16
REMARK    5  A    between atoms: C_16  and  N_17
REMARK    6  A    between atoms: N_17  and  C_18
REMARK                            x       y       z     vdW  Elec       q    Type
REMARK                         _______ _______ _______ _____ _____    ______ ____
ROOT
ATOM      1  N   UNL     1       0.608  -0.262  -1.307  0.00  0.00    -0.296 N 
ATOM      2  C   UNL     1       1.947  -0.363  -1.422  0.00  0.00    +0.306 C 
ATOM      3  O   UNL     1       2.652  -0.241  -0.439  0.00  0.00    -0.252 OA
ATOM      4  N   UNL     1       2.504  -0.600  -2.626  0.00  0.00    -0.239 N 
ATOM      5  C   UNL     1       3.843  -0.701  -2.740  0.00  0.00    +0.237 C 
ATOM      6  O   UNL     1       4.546  -0.579  -1.760  0.00  0.00    -0.274 OA
ATOM      7  H   UNL     1       0.045  -0.359  -2.091  0.00  0.00    +0.151 HD
ATOM      8  H   UNL     1       1.941  -0.698  -3.410  0.00  0.00    +0.159 HD
ENDROOT
BRANCH   1  10
ATOM      9  C   UNL     1      -0.008   1.502   0.272  0.00  0.00    +0.028 C 
ATOM     10  C   UNL     1       0.002  -0.004   0.002  0.00  0.00    +0.075 C 
BRANCH  10  11
ATOM     11  C   UNL     1      -1.433  -0.534   0.013  0.00  0.00    +0.012 C 
ATOM     12  C   UNL     1      -1.438  -2.079  -0.001  0.00  0.00    +0.009 C 
ATOM     13  C   UNL     1      -2.151  -2.484   1.325  0.00  0.00    -0.010 C 
ATOM     14  C   UNL     1      -1.136  -2.102   2.446  0.00  0.00    +0.004 C 
ATOM     15  C   UNL     1      -1.132  -0.556   2.460  0.00  0.00    +0.004 C 
ATOM     16  C   UNL     1      -2.144  -0.149   1.346  0.00  0.00    -0.006 C 
ATOM     17  C   UNL     1      -3.189  -1.315   1.464  0.00  0.00    +0.007 C 
ENDBRANCH  10  11
ENDBRANCH   1  10
BRANCH   5  18
ATOM     18  C   UNL     1       4.466  -0.966  -4.087  0.00  0.00    +0.198 C 
BRANCH  18  19
ATOM     19  N   UNL     1       5.923  -1.032  -3.946  0.00  0.00    -0.335 N 
ATOM     20  H   UNL     1       6.332  -0.910  -3.075  0.00  0.00    +0.147 HD
BRANCH  19  21
ATOM     21  C   UNL     1       6.724  -1.270  -5.069  0.00  0.00    +0.031 A 
ATOM     22  C   UNL     1       6.139  -1.438  -6.317  0.00  0.00    +0.027 A 
ATOM     23  C   UNL     1       6.929  -1.675  -7.425  0.00  0.00    +0.051 A 
ATOM     24  C   UNL     1       8.308  -1.744  -7.295  0.00  0.00    +0.162 A 
ATOM     25  C   UNL     1       8.897  -1.573  -6.048  0.00  0.00    +0.164 A 
ATOM     26  C   UNL     1       8.104  -1.332  -4.936  0.00  0.00    +0.072 A 
ATOM     27  O   UNL     1      10.249  -1.629  -5.902  0.00  0.00    -0.485 OA
ATOM     28  C   UNL     1      10.987  -2.235  -6.969  0.00  0.00    +0.270 C 
ATOM     29  C   UNL     1      10.465  -1.670  -8.296  0.00  0.00    +0.270 C 
ATOM     30  O   UNL     1       9.071  -1.981  -8.399  0.00  0.00    -0.485 OA
ENDBRANCH  19  21
ENDBRANCH  18  19
ENDBRANCH   5  18
TORSDOF 5
