REMARK  Name = ZINC03416068
REMARK  2 active torsions:
REMARK  status: ('A' for Active; 'I' for Inactive)
REMARK    1  A    between atoms: C_2  and  C_3
REMARK    2  A    between atoms: C_3  and  N_4
REMARK                            x       y       z     vdW  Elec       q    Type
REMARK                         _______ _______ _______ _____ _____    ______ ____
ROOT
ATOM      1  N   UNL     1       1.367  -1.676   1.111  0.00  0.00    -0.262 N 
ATOM      2  C   UNL     1       1.854  -1.351   2.365  0.00  0.00    +0.046 A 
ATOM      3  C   UNL     1       2.374  -0.142   2.829  0.00  0.00    +0.024 A 
ATOM      4  C   UNL     1       2.795  -0.097   4.149  0.00  0.00    +0.002 A 
ATOM      5  C   UNL     1       2.710  -1.195   4.981  0.00  0.00    +0.001 A 
ATOM      6  C   UNL     1       2.192  -2.405   4.532  0.00  0.00    +0.011 A 
ATOM      7  C   UNL     1       1.770  -2.457   3.221  0.00  0.00    +0.043 A 
ATOM      8  C   UNL     1       1.170  -3.565   2.415  0.00  0.00    +0.282 C 
ATOM      9  C   UNL     1       0.939  -2.954   1.050  0.00  0.00    +0.286 C 
ATOM     10  O   UNL     1       0.462  -3.509   0.082  0.00  0.00    -0.269 OA
ATOM     11  N   UNL     1       2.093  -4.702   2.312  0.00  0.00    -0.190 NA
ATOM     12  N   UNL     1       1.539  -5.684   1.527  0.00  0.00    -0.273 N 
ATOM     13  C   UNL     1       0.185  -5.997   1.721  0.00  0.00    +0.083 A 
ATOM     14  C   UNL     1      -0.355  -7.157   1.193  0.00  0.00    +0.028 A 
ATOM     15  C   UNL     1      -1.693  -7.446   1.395  0.00  0.00    +0.002 A 
ATOM     16  C   UNL     1      -2.489  -6.580   2.122  0.00  0.00    +0.004 A 
ATOM     17  C   UNL     1      -1.954  -5.419   2.652  0.00  0.00    +0.048 A 
ATOM     18  C   UNL     1      -0.617  -5.124   2.454  0.00  0.00    +0.146 A 
ATOM     19  O   UNL     1      -0.074  -3.988   2.973  0.00  0.00    -0.455 OA
ATOM     20  H   UNL     1       2.329  -5.060   3.225  0.00  0.00    +0.149 HD
ATOM     21  H   UNL     1       2.068  -6.147   0.858  0.00  0.00    +0.166 HD
ENDROOT
BRANCH   1  22
ATOM     22  C   UNL     1       1.317  -0.740  -0.015  0.00  0.00    +0.140 C 
BRANCH  22  24
ATOM     23  C   UNL     1      -0.016   1.306   0.009  0.00  0.00    +0.005 C 
ATOM     24  C   UNL     1       0.002  -0.004   0.002  0.00  0.00    -0.015 C 
ENDBRANCH  22  24
ENDBRANCH   1  22
TORSDOF 2
