REMARK  Name = ZINC42026676
REMARK  4 active torsions:
REMARK  status: ('A' for Active; 'I' for Inactive)
REMARK    1  A    between atoms: C_1  and  C_2
REMARK    2  A    between atoms: C_7  and  N_8
REMARK    3  A    between atoms: C_9  and  C_13
REMARK    4  A    between atoms: C_15  and  N_20
REMARK                            x       y       z     vdW  Elec       q    Type
REMARK                         _______ _______ _______ _____ _____    ______ ____
ROOT
ATOM      1  N   UNL     1       0.310   0.135   2.326  0.00  0.00    -0.192 N 
ATOM      2  C   UNL     1       0.378  -0.337   3.604  0.00  0.00    +0.190 A 
ATOM      3  N   UNL     1       0.236   0.700   4.403  0.00  0.00    -0.108 NA
ATOM      4  N   UNL     1       0.085   1.777   3.721  0.00  0.00    -0.022 NA
ATOM      5  N   UNL     1       0.124   1.522   2.458  0.00  0.00    -0.039 NA
ENDROOT
BRANCH   1  12
ATOM      6  C   UNL     1      -1.640   0.576   0.301  0.00  0.00    +0.046 C 
ATOM      7  C   UNL     1      -0.521  -0.418   0.125  0.00  0.00    -0.025 A 
ATOM      8  C   UNL     1      -0.417  -1.141  -1.048  0.00  0.00    +0.008 A 
ATOM      9  C   UNL     1       0.609  -2.053  -1.211  0.00  0.00    +0.039 A 
ATOM     10  C   UNL     1       1.537  -2.244  -0.200  0.00  0.00    +0.125 A 
ATOM     11  C   UNL     1       1.437  -1.522   0.976  0.00  0.00    +0.066 A 
ATOM     12  C   UNL     1       0.410  -0.602   1.138  0.00  0.00    +0.075 A 
ATOM     13  F   UNL     1       2.538  -3.136  -0.362  0.00  0.00    -0.205 F 
ENDBRANCH   1  12
BRANCH   2  14
ATOM     14  C   UNL     1       0.573  -1.745   4.014  0.00  0.00    +0.058 A 
ATOM     15  C   UNL     1      -0.182  -2.757   3.422  0.00  0.00    +0.037 A 
ATOM     16  C   UNL     1       0.007  -4.074   3.811  0.00  0.00    +0.025 A 
ATOM     17  C   UNL     1       0.946  -4.384   4.788  0.00  0.00    +0.025 A 
ATOM     18  C   UNL     1       1.694  -3.382   5.376  0.00  0.00    +0.041 A 
ATOM     19  C   UNL     1       1.519  -2.066   4.991  0.00  0.00    +0.134 A 
ATOM     20  F   UNL     1       2.258  -1.090   5.563  0.00  0.00    -0.205 F 
BRANCH  16  21
ATOM     21  N   UNL     1      -0.749  -5.092   3.221  0.00  0.00    -0.358 N 
ATOM     22  H   UNL     1      -1.405  -4.876   2.539  0.00  0.00    +0.142 HD
ATOM     23  H   UNL     1      -0.617  -6.013   3.493  0.00  0.00    +0.142 HD
ENDBRANCH  16  21
ENDBRANCH   2  14
TORSDOF 3
