REMARK  Name = ZINC08868131
REMARK  8 active torsions:
REMARK  status: ('A' for Active; 'I' for Inactive)
REMARK    1  A    between atoms: C_1  and  C_2
REMARK    2  A    between atoms: C_2  and  C_3
REMARK    3  A    between atoms: C_2  and  C_4
REMARK    4  A    between atoms: C_4  and  C_5
REMARK    5  A    between atoms: N_13  and  C_16
REMARK    6  A    between atoms: C_16  and  C_17
REMARK    7  A    between atoms: N_30  and  C_33
REMARK    8  A    between atoms: C_33  and  C_34
REMARK                            x       y       z     vdW  Elec       q    Type
REMARK                         _______ _______ _______ _____ _____    ______ ____
ROOT
ATOM      1  C   UNL     1      -2.443   1.714   0.848  0.00  0.00    -0.057 C 
ATOM      2  C   UNL     1      -1.222   2.113   0.018  0.00  0.00    +0.073 C 
ATOM      3  C   UNL     1      -0.587   3.182   1.002  0.00  0.00    +0.088 C 
ATOM      4  C   UNL     1       0.734   3.321   0.442  0.00  0.00    +0.225 C 
ATOM      5  O   UNL     1       1.408   4.326   0.373  0.00  0.00    -0.275 OA
ATOM      6  N   UNL     1       1.060   2.060   0.003  0.00  0.00    -0.237 N 
ATOM      7  C   UNL     1      -0.014   1.208   0.009  0.00  0.00    +0.224 C 
ATOM      8  O   UNL     1       0.002  -0.004   0.002  0.00  0.00    -0.275 OA
ATOM      9  C   UNL     1      -1.759   3.934   1.445  0.00  0.00    +0.050 C 
ATOM     10  C   UNL     1      -1.544   4.839   2.625  0.00  0.00    -0.027 A 
ATOM     11  C   UNL     1      -1.001   4.651   3.877  0.00  0.00    +0.004 A 
ATOM     12  C   UNL     1      -0.938   5.706   4.770  0.00  0.00    +0.000 A 
ATOM     13  C   UNL     1      -1.422   6.949   4.402  0.00  0.00    +0.002 A 
ATOM     14  C   UNL     1      -1.967   7.142   3.150  0.00  0.00    +0.024 A 
ATOM     15  C   UNL     1      -2.034   6.085   2.245  0.00  0.00    +0.039 A 
ATOM     16  N   UNL     1      -2.532   6.030   0.941  0.00  0.00    -0.268 N 
ATOM     17  C   UNL     1      -2.407   4.803   0.400  0.00  0.00    +0.214 C 
ATOM     18  O   UNL     1      -2.750   4.464  -0.712  0.00  0.00    -0.276 OA
ATOM     19  N   UNL     1      -2.677   2.820   1.806  0.00  0.00    +0.394 N 
ATOM     20  H   UNL     1      -2.481   2.501   2.762  0.00  0.00    -0.083 HD
ATOM     21  H   UNL     1      -3.652   3.136   1.744  0.00  0.00    -0.083 HD
ENDROOT
BRANCH   1  22
ATOM     22  C   UNL     1      -2.164   0.410   1.598  0.00  0.00    -0.012 C 
BRANCH  22  24
ATOM     23  C   UNL     1      -4.522  -0.372   1.328  0.00  0.00    +0.007 C 
ATOM     24  C   UNL     1      -3.427  -0.031   2.341  0.00  0.00    -0.019 C 
ATOM     25  C   UNL     1      -3.114  -1.265   3.190  0.00  0.00    +0.007 C 
ENDBRANCH  22  24
ENDBRANCH   1  22
BRANCH   6  26
ATOM     26  C   UNL     1       2.406   1.669  -0.423  0.00  0.00    +0.151 C 
BRANCH  26  27
ATOM     27  C   UNL     1       2.557   1.918  -1.901  0.00  0.00    -0.030 A 
ATOM     28  C   UNL     1       2.239   0.923  -2.806  0.00  0.00    +0.005 A 
ATOM     29  C   UNL     1       2.372   1.154  -4.163  0.00  0.00    +0.000 A 
ATOM     30  C   UNL     1       2.835   2.376  -4.614  0.00  0.00    +0.000 A 
ATOM     31  C   UNL     1       3.159   3.369  -3.709  0.00  0.00    +0.000 A 
ATOM     32  C   UNL     1       3.020   3.140  -2.353  0.00  0.00    +0.005 A 
ENDBRANCH  26  27
ENDBRANCH   6  26
BRANCH  16  33
ATOM     33  C   UNL     1      -3.122   7.175   0.242  0.00  0.00    +0.151 C 
BRANCH  33  34
ATOM     34  C   UNL     1      -4.605   7.215   0.506  0.00  0.00    +0.005 A 
ATOM     35  C   UNL     1      -5.127   8.149   1.382  0.00  0.00    +0.008 A 
ATOM     36  C   UNL     1      -6.487   8.186   1.623  0.00  0.00    +0.000 A 
ATOM     37  C   UNL     1      -7.328   7.289   0.990  0.00  0.00    +0.003 A 
ATOM     38  C   UNL     1      -6.809   6.355   0.114  0.00  0.00    +0.038 A 
ATOM     39  C   UNL     1      -5.446   6.320  -0.132  0.00  0.00    +0.128 A 
ATOM     40  F   UNL     1      -4.938   5.410  -0.992  0.00  0.00    -0.205 F 
ENDBRANCH  33  34
ENDBRANCH  16  33
TORSDOF 6
