REMARK  Name = ZINC00910603
REMARK  10 active torsions:
REMARK  status: ('A' for Active; 'I' for Inactive)
REMARK    1  A    between atoms: C_1  and  C_2
REMARK    2  A    between atoms: C_2  and  C_3
REMARK    3  A    between atoms: C_3  and  C_4
REMARK    4  A    between atoms: C_3  and  C_5
REMARK    5  A    between atoms: C_3  and  N_6
REMARK    6  A    between atoms: C_7  and  C_11
REMARK    7  A    between atoms: C_11  and  C_13
REMARK    8  A    between atoms: C_11  and  N_27
REMARK    9  A    between atoms: C_17  and  C_26
REMARK   10  A    between atoms: C_18  and  C_25
REMARK                            x       y       z     vdW  Elec       q    Type
REMARK                         _______ _______ _______ _____ _____    ______ ____
ROOT
ATOM      1  C   UNL     1      -0.088   0.949   0.172  0.00  0.00    +0.179 C 
ENDROOT
BRANCH   1   2
ATOM      2  C   UNL     1       1.367   1.338   0.160  0.00  0.00    +0.045 A 
ATOM      3  C   UNL     1       2.315   0.416   0.462  0.00  0.00    +0.021 A 
ATOM      4  C   UNL     1       3.721   0.825   0.437  0.00  0.00    -0.001 A 
ATOM      5  C   UNL     1       4.744  -0.083   0.734  0.00  0.00    +0.013 A 
ATOM      6  C   UNL     1       6.045   0.331   0.705  0.00  0.00    -0.047 A 
ATOM      7  C   UNL     1       6.362   1.644   0.385  0.00  0.00    -0.046 A 
ATOM      8  C   UNL     1       5.371   2.555   0.089  0.00  0.00    +0.030 A 
ATOM      9  C   UNL     1       4.039   2.157   0.112  0.00  0.00    +0.049 A 
ATOM     10  N   UNL     1       3.027   3.047  -0.180  0.00  0.00    -0.322 N 
ATOM     11  H   UNL     1       3.255   3.993  -0.410  0.00  0.00    +0.169 HD
ATOM     12  C   UNL     1       1.739   2.662  -0.159  0.00  0.00    +0.255 A 
ATOM     13  O   UNL     1       0.871   3.475  -0.423  0.00  0.00    -0.268 OA
ATOM     14  C   UNL     1       7.805   2.078   0.360  0.00  0.00    +0.044 C 
ATOM     15  C   UNL     1       7.146  -0.647   1.024  0.00  0.00    +0.044 C 
ENDBRANCH   1   2
BRANCH   1  16
ATOM     16  N   UNL     1      -0.680   1.226  -1.143  0.00  0.00    -0.315 N 
ATOM     17  C   UNL     1       0.152   0.661  -2.228  0.00  0.00    +0.111 C 
ATOM     18  C   UNL     1      -0.894   0.320  -3.314  0.00  0.00    +0.056 C 
ATOM     19  C   UNL     1      -2.162   0.120  -2.509  0.00  0.00    -0.025 A 
ATOM     20  C   UNL     1      -1.959   0.665  -1.247  0.00  0.00    +0.034 A 
ATOM     21  C   UNL     1      -2.983   0.593  -0.304  0.00  0.00    +0.023 A 
ATOM     22  C   UNL     1      -4.183  -0.007  -0.628  0.00  0.00    +0.002 A 
ATOM     23  C   UNL     1      -4.377  -0.542  -1.888  0.00  0.00    +0.000 A 
ATOM     24  C   UNL     1      -3.364  -0.477  -2.828  0.00  0.00    +0.005 A 
ENDBRANCH   1  16
BRANCH   1  26
ATOM     25  N   UNL     1      -1.248   1.296   2.418  0.00  0.00    -0.222 N 
ATOM     26  C   UNL     1      -0.813   1.747   1.226  0.00  0.00    +0.177 A 
ATOM     27  N   UNL     1      -1.147   3.012   1.158  0.00  0.00    -0.111 NA
ATOM     28  N   UNL     1      -1.750   3.324   2.253  0.00  0.00    -0.023 NA
ATOM     29  N   UNL     1      -1.810   2.290   3.018  0.00  0.00    -0.043 NA
BRANCH  25  30
ATOM     30  C   UNL     1      -1.105  -0.067   2.937  0.00  0.00    +0.062 C 
ATOM     31  C   UNL     1      -1.882  -1.036   2.044  0.00  0.00    +0.036 C 
ATOM     32  C   UNL     1       0.374  -0.457   2.948  0.00  0.00    +0.036 C 
BRANCH  30  34
ATOM     33  C   UNL     1      -1.512  -1.553   4.904  0.00  0.00    +0.006 C 
ATOM     34  C   UNL     1      -1.661  -0.130   4.361  0.00  0.00    +0.026 C 
ENDBRANCH  30  34
ENDBRANCH  25  30
ENDBRANCH   1  26
TORSDOF 5
