REMARK  Name = ZINC59364760
REMARK  11 active torsions:
REMARK  status: ('A' for Active; 'I' for Inactive)
REMARK    1  A    between atoms: C_1  and  C_2
REMARK    2  A    between atoms: C_2  and  O_3
REMARK    3  A    between atoms: O_3  and  C_4
REMARK    4  A    between atoms: C_10  and  C_11
REMARK    5  A    between atoms: C_13  and  C_26
REMARK    6  A    between atoms: N_14  and  C_17
REMARK    7  A    between atoms: C_15  and  C_16
REMARK    8  A    between atoms: C_21  and  C_23
REMARK    9  A    between atoms: N_29  and  C_30
REMARK   10  A    between atoms: C_33  and  O_36
REMARK   11  A    between atoms: O_36  and  C_37
REMARK                            x       y       z     vdW  Elec       q    Type
REMARK                         _______ _______ _______ _____ _____    ______ ____
ROOT
ATOM      1  C   UNL     1      -1.497  -1.835   0.006  0.00  0.00    +0.346 C 
ATOM      2  O   UNL     1      -0.419  -2.640  -0.008  0.00  0.00    -0.245 OA
ATOM      3  C   UNL     1      -2.773  -2.383   0.016  0.00  0.00    +0.139 C 
ATOM      4  C   UNL     1      -2.997  -3.835   0.010  0.00  0.00    +0.120 C 
ATOM      5  S   UNL     1      -4.770  -3.994   0.026  0.00  0.00    -0.065 S 
ATOM      6  C   UNL     1      -5.239  -2.276   0.040  0.00  0.00    +0.062 C 
ATOM      7  C   UNL     1      -6.492  -1.751   0.055  0.00  0.00    +0.028 C 
ATOM      8  C   UNL     1      -3.959  -1.561   0.037  0.00  0.00    +0.209 C 
ATOM      9  O   UNL     1      -3.900  -0.342   0.049  0.00  0.00    -0.286 OA
ATOM     10  N   UNL     1      -2.094  -4.797  -0.004  0.00  0.00    -0.240 NA
ENDROOT
BRANCH   7  11
ATOM     11  C   UNL     1      -7.660  -2.639   0.061  0.00  0.00    -0.003 A 
ATOM     12  C   UNL     1      -7.653  -4.107   0.059  0.00  0.00    +0.031 A 
ATOM     13  C   UNL     1      -8.940  -4.497   0.067  0.00  0.00    +0.022 A 
ATOM     14  N   UNL     1      -9.744  -3.392   0.074  0.00  0.00    -0.317 N 
ATOM     15  C   UNL     1      -8.988  -2.264   0.076  0.00  0.00    +0.028 A 
ATOM     16  C   UNL     1      -9.509  -0.850   0.089  0.00  0.00    +0.064 C 
ATOM     17  C   UNL     1      -9.419  -5.926   0.069  0.00  0.00    +0.064 C 
BRANCH  14  18
ATOM     18  C   UNL     1     -11.145  -3.420   0.083  0.00  0.00    +0.047 A 
ATOM     19  C   UNL     1     -11.857  -2.929  -1.005  0.00  0.00    +0.026 A 
ATOM     20  C   UNL     1     -13.239  -2.953  -1.002  0.00  0.00    +0.003 A 
ATOM     21  C   UNL     1     -13.922  -3.465   0.082  0.00  0.00    +0.015 A 
ATOM     22  C   UNL     1     -13.217  -3.961   1.181  0.00  0.00    +0.065 A 
ATOM     23  C   UNL     1     -11.820  -3.942   1.174  0.00  0.00    +0.041 A 
BRANCH  22  24
ATOM     24  C   UNL     1     -13.944  -4.509   2.342  0.00  0.00    +0.387 C 
ATOM     25  O   UNL     1     -15.167  -4.530   2.343  0.00  0.00    -0.241 OA
ATOM     26  O   UNL     1     -13.324  -4.943   3.303  0.00  0.00    -0.241 OA
ENDBRANCH  22  24
ENDBRANCH  14  18
ENDBRANCH   7  11
BRANCH  10  27
ATOM     27  C   UNL     1      -2.490  -6.106  -0.007  0.00  0.00    +0.065 A 
ATOM     28  C   UNL     1      -3.506  -6.533   0.851  0.00  0.00    +0.031 A 
ATOM     29  C   UNL     1      -3.902  -7.854   0.844  0.00  0.00    +0.048 A 
ATOM     30  C   UNL     1      -3.292  -8.759  -0.014  0.00  0.00    +0.120 A 
ATOM     31  C   UNL     1      -2.282  -8.339  -0.869  0.00  0.00    +0.048 A 
ATOM     32  C   UNL     1      -1.884  -7.019  -0.873  0.00  0.00    +0.031 A 
BRANCH  30  33
ATOM     33  O   UNL     1      -3.686 -10.060  -0.017  0.00  0.00    -0.495 OA
ATOM     34  C   UNL     1      -3.017 -10.938  -0.924  0.00  0.00    +0.277 C 
ENDBRANCH  30  33
ENDBRANCH  10  27
BRANCH   1  35
ATOM     35  O   UNL     1      -1.339  -0.499   0.012  0.00  0.00    -0.461 OA
BRANCH  35  37
ATOM     36  C   UNL     1      -0.019   1.526   0.010  0.00  0.00    +0.048 C 
ATOM     37  C   UNL     1       0.002  -0.004   0.002  0.00  0.00    +0.229 C 
ENDBRANCH  35  37
ENDBRANCH   1  35
TORSDOF 7
