REMARK  Name = ZINC05259332
REMARK  5 active torsions:
REMARK  status: ('A' for Active; 'I' for Inactive)
REMARK    1  A    between atoms: C_1  and  C_2
REMARK    2  A    between atoms: C_5  and  C_10
REMARK    3  A    between atoms: C_15  and  C_33
REMARK    4  A    between atoms: C_25  and  C_32
REMARK    5  A    between atoms: C_28  and  O_31
REMARK                            x       y       z     vdW  Elec       q    Type
REMARK                         _______ _______ _______ _____ _____    ______ ____
ROOT
ATOM      1  C   UNL     1      -1.255  -1.173   2.782  0.00  0.00    +0.063 C 
ATOM      2  C   UNL     1      -0.151  -0.196   3.100  0.00  0.00    +0.018 A 
ATOM      3  C   UNL     1       0.017   0.960   2.417  0.00  0.00    -0.018 A 
ATOM      4  C   UNL     1       1.092   1.835   2.732  0.00  0.00    -0.022 A 
ATOM      5  C   UNL     1       1.998   1.523   3.736  0.00  0.00    +0.086 A 
ATOM      6  C   UNL     1       1.768   0.294   4.424  0.00  0.00    +0.102 A 
ATOM      7  S   UNL     1       2.839  -0.186   5.669  0.00  0.00    -0.031 S 
ATOM      8  N   UNL     1       0.726  -0.489   4.106  0.00  0.00    -0.352 N 
ATOM      9  H   UNL     1       0.585  -1.304   4.613  0.00  0.00    +0.166 HD
ATOM     10  C   UNL     1       1.020   3.059   1.841  0.00  0.00    +0.041 C 
ATOM     11  C   UNL     1      -0.486   3.087   1.518  0.00  0.00    +0.007 C 
ATOM     12  C   UNL     1      -0.731   1.581   1.270  0.00  0.00    -0.002 C 
ATOM     13  C   UNL     1      -2.206   1.301   1.167  0.00  0.00    +0.012 C 
ATOM     14  C   UNL     1      -2.950   2.466   0.497  0.00  0.00    +0.005 C 
ATOM     15  C   UNL     1      -2.031   3.248  -0.431  0.00  0.00    +0.003 C 
ATOM     16  C   UNL     1      -0.947   3.954   0.398  0.00  0.00    +0.001 C 
ATOM     17  C   UNL     1       0.140   4.412  -0.573  0.00  0.00    +0.031 C 
ATOM     18  C   UNL     1      -0.523   5.334  -1.567  0.00  0.00    -0.027 C 
ATOM     19  C   UNL     1      -1.789   5.286  -1.850  0.00  0.00    -0.065 C 
ATOM     20  C   UNL     1      -2.764   4.292  -1.263  0.00  0.00    -0.008 C 
ATOM     21  C   UNL     1      -3.807   5.051  -0.455  0.00  0.00    +0.014 C 
ATOM     22  C   UNL     1      -3.667   6.555  -0.687  0.00  0.00    +0.032 C 
ATOM     23  C   UNL     1      -3.617   6.905  -2.170  0.00  0.00    +0.119 C 
ATOM     24  C   UNL     1      -2.366   6.301  -2.822  0.00  0.00    +0.062 C 
ATOM     25  C   UNL     1      -3.465   3.562  -2.415  0.00  0.00    +0.016 C 
ATOM     26  C   UNL     1      -0.013   1.086   0.008  0.00  0.00    +0.016 C 
ENDROOT
BRANCH   5  27
ATOM     27  C   UNL     1       3.101   2.376   4.062  0.00  0.00    +0.102 C 
ATOM     28  N   UNL     1       3.977   3.052   4.322  0.00  0.00    -0.191 NA
ENDBRANCH   5  27
BRANCH  23  29
ATOM     29  O   UNL     1      -4.789   6.417  -2.824  0.00  0.00    -0.391 OA
ATOM     30  H   UNL     1      -4.831   6.631  -3.767  0.00  0.00    +0.210 HD
ENDBRANCH  23  29
TORSDOF 2
