REMARK  Name = ZINC11817979
REMARK  7 active torsions:
REMARK  status: ('A' for Active; 'I' for Inactive)
REMARK    1  A    between atoms: C_1  and  N_2
REMARK    2  A    between atoms: N_2  and  C_3
REMARK    3  A    between atoms: C_3  and  C_4
REMARK    4  A    between atoms: C_15  and  C_17
REMARK    5  A    between atoms: C_17  and  C_18
REMARK    6  A    between atoms: C_25  and  C_26
REMARK    7  A    between atoms: C_25  and  N_55
REMARK                            x       y       z     vdW  Elec       q    Type
REMARK                         _______ _______ _______ _____ _____    ______ ____
ROOT
ATOM      1  C   UNL     1      -4.479   2.732   4.137  0.00  0.00    +0.028 C 
ATOM      2  C   UNL     1      -3.438   3.779   3.861  0.00  0.00    +0.200 C 
ATOM      3  O   UNL     1      -2.269   3.490   4.008  0.00  0.00    -0.278 OA
ATOM      4  N   UNL     1      -3.745   5.017   3.460  0.00  0.00    -0.318 N 
ATOM      5  C   UNL     1      -5.117   5.455   3.219  0.00  0.00    +0.085 C 
ATOM      6  C   UNL     1      -6.100   4.502   3.902  0.00  0.00    -0.058 C 
ATOM      7  H   UNL     1      -3.025   5.653   3.323  0.00  0.00    +0.149 HD
ATOM      8  N   UNL     1      -5.751   3.123   3.503  0.00  0.00    +0.391 N 
ATOM      9  H   UNL     1      -5.643   3.087   2.482  0.00  0.00    -0.080 HD
ENDROOT
BRANCH   1  10
ATOM     10  C   UNL     1      -4.021   1.394   3.551  0.00  0.00    +0.090 C 
BRANCH  10  13
ATOM     11  C   UNL     1      -2.951  -0.734   2.016  0.00  0.00    +0.132 C 
ATOM     12  N   UNL     1      -3.326   0.514   1.346  0.00  0.00    -0.299 N 
ATOM     13  C   UNL     1      -3.837   1.536   2.062  0.00  0.00    +0.215 C 
ATOM     14  O   UNL     1      -4.147   2.569   1.508  0.00  0.00    -0.276 OA
BRANCH  12  15
ATOM     15  C   UNL     1      -3.146   0.651  -0.101  0.00  0.00    +0.160 C 
BRANCH  15  16
ATOM     16  C   UNL     1      -1.774   1.205  -0.387  0.00  0.00    +0.035 A 
ATOM     17  C   UNL     1      -1.492   2.504  -0.576  0.00  0.00    +0.032 A 
ATOM     18  C   UNL     1      -0.052   2.597  -0.828  0.00  0.00    +0.003 A 
ATOM     19  C   UNL     1       0.820   3.655  -1.095  0.00  0.00    +0.048 A 
ATOM     20  C   UNL     1       2.160   3.401  -1.291  0.00  0.00    +0.124 A 
ATOM     21  C   UNL     1       2.645   2.100  -1.224  0.00  0.00    +0.040 A 
ATOM     22  C   UNL     1       1.797   1.047  -0.961  0.00  0.00    +0.029 A 
ATOM     23  C   UNL     1       0.441   1.281  -0.761  0.00  0.00    +0.047 A 
ATOM     24  N   UNL     1      -0.631   0.460  -0.487  0.00  0.00    -0.357 N 
ATOM     25  H   UNL     1      -0.584  -0.503  -0.385  0.00  0.00    +0.166 HD
ATOM     26  F   UNL     1       3.007   4.422  -1.549  0.00  0.00    -0.205 F 
ENDBRANCH  15  16
ENDBRANCH  12  15
ENDBRANCH  10  13
ENDBRANCH   1  10
BRANCH   8  27
ATOM     27  C   UNL     1      -6.827   2.190   3.907  0.00  0.00    -0.039 C 
BRANCH  27  28
ATOM     28  C   UNL     1      -8.007   2.378   2.989  0.00  0.00    -0.026 A 
ATOM     29  C   UNL     1      -8.156   1.568   1.879  0.00  0.00    +0.005 A 
ATOM     30  C   UNL     1      -9.238   1.739   1.036  0.00  0.00    +0.003 A 
ATOM     31  C   UNL     1     -10.173   2.722   1.301  0.00  0.00    +0.041 A 
ATOM     32  C   UNL     1     -10.027   3.535   2.411  0.00  0.00    +0.159 A 
ATOM     33  C   UNL     1      -8.945   3.359   3.260  0.00  0.00    +0.160 A 
ATOM     34  F   UNL     1      -8.803   4.148   4.348  0.00  0.00    -0.202 F 
ATOM     35  F   UNL     1     -10.941   4.496   2.670  0.00  0.00    -0.202 F 
ENDBRANCH  27  28
ENDBRANCH   8  27
TORSDOF 6
