REMARK  Name = ZINC41586515
REMARK  9 active torsions:
REMARK  status: ('A' for Active; 'I' for Inactive)
REMARK    1  A    between atoms: C_1  and  C_2
REMARK    2  A    between atoms: C_2  and  O_3
REMARK    3  A    between atoms: O_3  and  C_4
REMARK    4  A    between atoms: C_4  and  C_6
REMARK    5  A    between atoms: N_11  and  C_13
REMARK    6  A    between atoms: C_13  and  C_14
REMARK    7  A    between atoms: C_15  and  O_33
REMARK    8  A    between atoms: C_22  and  C_23
REMARK    9  A    between atoms: C_24  and  C_25
REMARK                            x       y       z     vdW  Elec       q    Type
REMARK                         _______ _______ _______ _____ _____    ______ ____
ROOT
ATOM      1  C   UNL     1       2.968  -6.452  -4.723  0.00  0.00    +0.020 A 
ATOM      2  C   UNL     1       2.341  -6.778  -5.915  0.00  0.00    +0.122 A 
ATOM      3  C   UNL     1       3.072  -7.292  -6.982  0.00  0.00    +0.046 A 
ATOM      4  C   UNL     1       4.420  -7.480  -6.864  0.00  0.00    +0.019 A 
ATOM      5  C   UNL     1       5.065  -7.156  -5.670  0.00  0.00    +0.068 A 
ATOM      6  C   UNL     1       4.339  -6.632  -4.588  0.00  0.00    +0.144 A 
ATOM      7  O   UNL     1       5.175  -6.392  -3.555  0.00  0.00    -0.451 OA
ATOM      8  C   UNL     1       6.454  -6.716  -3.856  0.00  0.00    +0.176 C 
ATOM      9  C   UNL     1       7.532  -6.593  -3.029  0.00  0.00    +0.050 C 
ATOM     10  C   UNL     1       6.469  -7.236  -5.228  0.00  0.00    +0.231 C 
ATOM     11  O   UNL     1       7.430  -7.634  -5.864  0.00  0.00    -0.283 OA
ENDROOT
BRANCH   9  12
ATOM     12  C   UNL     1       7.366  -6.086  -1.725  0.00  0.00    +0.004 C 
ATOM     13  C   UNL     1       8.436  -5.963  -0.904  0.00  0.00    +0.008 C 
BRANCH  13  14
ATOM     14  C   UNL     1       8.263  -5.434   0.456  0.00  0.00    -0.025 A 
ATOM     15  C   UNL     1       6.992  -5.061   0.909  0.00  0.00    +0.008 A 
ATOM     16  C   UNL     1       6.838  -4.566   2.186  0.00  0.00    +0.001 A 
ATOM     17  C   UNL     1       7.936  -4.437   3.020  0.00  0.00    +0.000 A 
ATOM     18  C   UNL     1       9.196  -4.803   2.579  0.00  0.00    +0.001 A 
ATOM     19  C   UNL     1       9.366  -5.306   1.307  0.00  0.00    +0.008 A 
ENDBRANCH  13  14
ENDBRANCH   9  12
BRANCH   2  20
ATOM     20  O   UNL     1       1.002  -6.595  -6.042  0.00  0.00    -0.506 OA
ATOM     21  H   UNL     1       0.754  -5.723  -6.378  0.00  0.00    +0.292 HD
ENDBRANCH   2  20
BRANCH   1  22
ATOM     22  C   UNL     1       2.165  -5.896  -3.576  0.00  0.00    -0.036 C 
BRANCH  22  27
ATOM     23  C   UNL     1       1.468  -2.353  -2.550  0.00  0.00    +0.081 C 
ATOM     24  C   UNL     1       0.740  -1.887  -3.814  0.00  0.00    +0.011 C 
ATOM     25  C   UNL     1       1.403  -2.524  -5.038  0.00  0.00    -0.018 C 
ATOM     26  C   UNL     1       1.385  -4.046  -4.887  0.00  0.00    -0.078 C 
ATOM     27  N   UNL     1       2.119  -4.431  -3.675  0.00  0.00    +0.383 N 
ATOM     28  C   UNL     1       1.448  -3.882  -2.490  0.00  0.00    -0.064 C 
ATOM     29  H   UNL     1       3.059  -4.069  -3.724  0.00  0.00    -0.081 HD
BRANCH  23  30
ATOM     30  C   UNL     1       0.775  -1.794  -1.334  0.00  0.00    +0.308 C 
ATOM     31  O   UNL     1       0.314  -2.540  -0.504  0.00  0.00    -0.251 OA
BRANCH  30  32
ATOM     32  O   UNL     1       0.671  -0.465  -1.174  0.00  0.00    -0.465 OA
BRANCH  32  34
ATOM     33  C   UNL     1      -0.019   1.526   0.010  0.00  0.00    +0.048 C 
ATOM     34  C   UNL     1       0.002  -0.004   0.002  0.00  0.00    +0.229 C 
ENDBRANCH  32  34
ENDBRANCH  30  32
ENDBRANCH  23  30
ENDBRANCH  22  27
ENDBRANCH   1  22
TORSDOF 8
