REMARK  Name = ZINC55120498
REMARK  3 active torsions:
REMARK  status: ('A' for Active; 'I' for Inactive)
REMARK    1  A    between atoms: C_10  and  N_11
REMARK    2  A    between atoms: C_15  and  N_19
REMARK    3  A    between atoms: N_19  and  C_20
REMARK                            x       y       z     vdW  Elec       q    Type
REMARK                         _______ _______ _______ _____ _____    ______ ____
ROOT
ATOM      1  N   UNL     1       4.873   0.100  -0.044  0.00  0.00    -0.208 N 
ATOM      2  C   UNL     1       5.509   0.461   1.078  0.00  0.00    +0.228 C 
ATOM      3  O   UNL     1       5.136   0.219   2.205  0.00  0.00    -0.275 OA
ATOM      4  C   UNL     1       6.768   1.218   0.715  0.00  0.00    +0.128 C 
ATOM      5  C   UNL     1       6.749   1.232  -0.828  0.00  0.00    +0.166 C 
ATOM      6  C   UNL     1       5.485   0.477  -1.174  0.00  0.00    +0.247 C 
ATOM      7  O   UNL     1       5.087   0.251  -2.296  0.00  0.00    -0.273 OA
ENDROOT
BRANCH   1  17
ATOM      8  C   UNL     1      -0.016   1.357   0.009  0.00  0.00    +0.001 A 
ATOM      9  C   UNL     1       1.169   2.090   0.002  0.00  0.00    +0.001 A 
ATOM     10  C   UNL     1       2.378   1.466  -0.013  0.00  0.00    +0.010 A 
ATOM     11  C   UNL     1       2.437   0.064  -0.021  0.00  0.00    +0.004 A 
ATOM     12  C   UNL     1       1.233  -0.683  -0.013  0.00  0.00    -0.016 A 
ATOM     13  C   UNL     1       0.002  -0.004   0.002  0.00  0.00    +0.008 A 
ATOM     14  C   UNL     1       1.290  -2.087  -0.021  0.00  0.00    +0.008 A 
ATOM     15  C   UNL     1       2.496  -2.718  -0.035  0.00  0.00    +0.002 A 
ATOM     16  C   UNL     1       3.685  -1.995  -0.042  0.00  0.00    +0.024 A 
ATOM     17  C   UNL     1       3.672  -0.617  -0.036  0.00  0.00    +0.052 A 
ENDBRANCH   1  17
BRANCH   5  18
ATOM     18  N   UNL     1       6.691   2.607  -1.330  0.00  0.00    -0.332 N 
ATOM     19  H   UNL     1       6.316   3.310  -0.777  0.00  0.00    +0.147 HD
BRANCH  18  20
ATOM     20  C   UNL     1       7.177   2.906  -2.607  0.00  0.00    +0.030 A 
ATOM     21  C   UNL     1       7.710   1.897  -3.401  0.00  0.00    +0.025 A 
ATOM     22  C   UNL     1       8.191   2.185  -4.662  0.00  0.00    +0.029 A 
ATOM     23  C   UNL     1       8.143   3.486  -5.141  0.00  0.00    +0.067 A 
ATOM     24  C   UNL     1       7.609   4.503  -4.346  0.00  0.00    +0.069 A 
ATOM     25  C   UNL     1       7.122   4.209  -3.082  0.00  0.00    +0.050 A 
ATOM     26  N   UNL     1       7.696   5.680  -5.085  0.00  0.00    -0.306 N 
ATOM     27  H   UNL     1       7.402   6.557  -4.792  0.00  0.00    +0.170 HD
ATOM     28  C   UNL     1       8.257   5.394  -6.275  0.00  0.00    +0.325 A 
ATOM     29  O   UNL     1       8.476   6.202  -7.158  0.00  0.00    -0.247 OA
ATOM     30  N   UNL     1       8.538   4.079  -6.340  0.00  0.00    -0.306 N 
ATOM     31  H   UNL     1       8.947   3.622  -7.092  0.00  0.00    +0.170 HD
ENDBRANCH  18  20
ENDBRANCH   5  18
TORSDOF 3
