REMARK  Name = ZINC15367489
REMARK  7 active torsions:
REMARK  status: ('A' for Active; 'I' for Inactive)
REMARK    1  A    between atoms: C_1  and  C_2
REMARK    2  A    between atoms: C_15  and  C_17
REMARK    3  A    between atoms: C_17  and  N_55
REMARK    4  A    between atoms: C_18  and  N_55
REMARK    5  A    between atoms: C_19  and  C_20
REMARK    6  A    between atoms: C_19  and  N_55
REMARK    7  A    between atoms: C_23  and  C_25
REMARK                            x       y       z     vdW  Elec       q    Type
REMARK                         _______ _______ _______ _____ _____    ______ ____
ROOT
ATOM      1  C   UNL     1      -2.714   3.512  -1.397  0.00  0.00    +0.019 C 
ENDROOT
BRANCH   1  15
ATOM      2  C   UNL     1      -5.348   4.688  -5.023  0.00  0.00    +0.029 C 
ATOM      3  C   UNL     1      -4.080   5.344  -4.473  0.00  0.00    +0.087 C 
ATOM      4  C   UNL     1      -4.241   6.860  -4.511  0.00  0.00    +0.118 C 
ATOM      5  C   UNL     1      -3.202   7.510  -3.636  0.00  0.00    +0.219 C 
ATOM      6  O   UNL     1      -2.242   8.053  -4.142  0.00  0.00    -0.275 OA
ATOM      7  N   UNL     1      -3.332   7.493  -2.292  0.00  0.00    -0.284 N 
ATOM      8  C   UNL     1      -4.381   6.790  -1.689  0.00  0.00    +0.055 A 
ATOM      9  C   UNL     1      -5.154   7.377  -0.700  0.00  0.00    +0.025 A 
ATOM     10  C   UNL     1      -6.149   6.644  -0.080  0.00  0.00    +0.002 A 
ATOM     11  C   UNL     1      -6.376   5.329  -0.444  0.00  0.00    +0.002 A 
ATOM     12  C   UNL     1      -5.617   4.740  -1.438  0.00  0.00    +0.025 A 
ATOM     13  C   UNL     1      -4.623   5.470  -2.070  0.00  0.00    +0.058 A 
ATOM     14  N   UNL     1      -3.859   4.897  -3.096  0.00  0.00    -0.268 N 
ATOM     15  C   UNL     1      -2.934   3.957  -2.820  0.00  0.00    +0.204 C 
ATOM     16  O   UNL     1      -2.278   3.469  -3.716  0.00  0.00    -0.277 OA
ATOM     17  H   UNL     1      -2.693   7.972  -1.740  0.00  0.00    +0.155 HD
ENDBRANCH   1  15
BRANCH   1  19
ATOM     18  C   UNL     1      -2.095   1.263  -2.047  0.00  0.00    -0.095 C 
ATOM     19  N   UNL     1      -1.638   2.498  -1.375  0.00  0.00    +0.388 N 
ATOM     20  H   UNL     1      -0.821   2.868  -1.876  0.00  0.00    -0.081 HD
BRANCH  19  21
ATOM     21  C   UNL     1      -1.252   2.201   0.020  0.00  0.00    -0.003 C 
BRANCH  21  22
ATOM     22  C   UNL     1      -0.016   1.339   0.009  0.00  0.00    +0.089 A 
ATOM     23  C   UNL     1       1.254   1.788  -0.000  0.00  0.00    +0.043 A 
ATOM     24  C   UNL     1       2.092   0.654  -0.014  0.00  0.00    +0.050 A 
ATOM     25  C   UNL     1       1.278  -0.434  -0.013  0.00  0.00    +0.135 A 
ATOM     26  O   UNL     1       0.002  -0.004   0.002  0.00  0.00    -0.462 OA
BRANCH  25  27
ATOM     27  C   UNL     1       1.717  -1.846  -0.025  0.00  0.00    +0.017 A 
ATOM     28  C   UNL     1       3.078  -2.156  -0.046  0.00  0.00    +0.013 A 
ATOM     29  C   UNL     1       3.482  -3.475  -0.054  0.00  0.00    +0.021 A 
ATOM     30  C   UNL     1       2.541  -4.490  -0.050  0.00  0.00    +0.041 A 
ATOM     31  C   UNL     1       1.189  -4.189  -0.034  0.00  0.00    +0.021 A 
ATOM     32  C   UNL     1       0.773  -2.873  -0.022  0.00  0.00    +0.013 A 
ATOM     33 CL   UNL     1       3.057  -6.147  -0.066  0.00  0.00    -0.084 Cl
ENDBRANCH  25  27
ENDBRANCH  21  22
ENDBRANCH  19  21
ENDBRANCH   1  19
TORSDOF 5
