REMARK  Name = ZINC36028030
REMARK  12 active torsions:
REMARK  status: ('A' for Active; 'I' for Inactive)
REMARK    1  A    between atoms: C_1  and  C_2
REMARK    2  A    between atoms: C_2  and  C_3
REMARK    3  A    between atoms: C_3  and  C_5
REMARK    4  A    between atoms: C_3  and  C_6
REMARK    5  A    between atoms: C_6  and  N_7
REMARK    6  A    between atoms: C_10  and  C_29
REMARK    7  A    between atoms: N_16  and  C_19
REMARK    8  A    between atoms: C_19  and  N_21
REMARK    9  A    between atoms: N_21  and  C_22
REMARK   10  A    between atoms: C_29  and  C_31
REMARK   11  A    between atoms: C_29  and  C_32
REMARK   12  A    between atoms: C_32  and  C_33
REMARK                            x       y       z     vdW  Elec       q    Type
REMARK                         _______ _______ _______ _____ _____    ______ ____
ROOT
ATOM      1  N   UNL     1      -2.701  -2.471   0.447  0.00  0.00    -0.313 N 
ATOM      2  C   UNL     1      -3.276  -2.482   1.668  0.00  0.00    +0.201 C 
ATOM      3  O   UNL     1      -2.760  -2.104   2.698  0.00  0.00    -0.277 OA
ATOM      4  C   UNL     1      -4.674  -3.046   1.535  0.00  0.00    +0.022 C 
ATOM      5  N   UNL     1      -4.684  -3.726   0.216  0.00  0.00    +0.401 N 
ATOM      6  C   UNL     1      -3.646  -2.994  -0.543  0.00  0.00    +0.006 C 
ATOM      7  C   UNL     1      -2.935  -3.953  -1.497  0.00  0.00    +0.025 C 
ATOM      8  C   UNL     1      -1.834  -3.198  -2.249  0.00  0.00    +0.107 C 
ATOM      9  N   UNL     1      -2.426  -2.018  -2.895  0.00  0.00    -0.312 N 
ATOM     10  C   UNL     1      -3.194  -1.073  -2.073  0.00  0.00    +0.107 C 
ATOM     11  C   UNL     1      -4.284  -1.846  -1.323  0.00  0.00    +0.025 C 
ATOM     12  H   UNL     1      -4.438  -4.700   0.316  0.00  0.00    -0.082 HD
ATOM     13  H   UNL     1      -5.584  -3.627  -0.229  0.00  0.00    -0.082 HD
ENDROOT
BRANCH   9  14
ATOM     14  C   UNL     1      -2.268  -1.807  -4.217  0.00  0.00    +0.137 C 
ATOM     15  S   UNL     1      -1.269  -2.850  -5.136  0.00  0.00    -0.018 S 
BRANCH  14  16
ATOM     16  N   UNL     1      -2.896  -0.776  -4.814  0.00  0.00    -0.295 N 
ATOM     17  H   UNL     1      -3.702  -0.932  -5.332  0.00  0.00    +0.154 HD
BRANCH  16  18
ATOM     18  C   UNL     1      -2.387   0.522  -4.688  0.00  0.00    +0.068 A 
ATOM     19  C   UNL     1      -1.174   0.734  -4.047  0.00  0.00    +0.026 A 
ATOM     20  C   UNL     1      -0.673   2.016  -3.925  0.00  0.00    +0.002 A 
ATOM     21  C   UNL     1      -1.378   3.088  -4.440  0.00  0.00    +0.003 A 
ATOM     22  C   UNL     1      -2.587   2.882  -5.079  0.00  0.00    +0.040 A 
ATOM     23  C   UNL     1      -3.092   1.601  -5.210  0.00  0.00    +0.144 A 
ATOM     24  F   UNL     1      -4.270   1.399  -5.839  0.00  0.00    -0.204 F 
ENDBRANCH  16  18
ENDBRANCH  14  16
ENDBRANCH   9  14
BRANCH   4  25
ATOM     25  C   UNL     1      -4.952  -4.050   2.656  0.00  0.00    -0.020 C 
ATOM     26  C   UNL     1      -3.849  -5.109   2.678  0.00  0.00    +0.006 C 
BRANCH  25  27
ATOM     27  C   UNL     1      -4.983  -3.317   3.999  0.00  0.00    -0.001 C 
ATOM     28  C   UNL     1      -5.385  -4.296   5.104  0.00  0.00    +0.004 C 
ENDBRANCH  25  27
ENDBRANCH   4  25
BRANCH   1  29
ATOM     29  C   UNL     1      -1.343  -2.003   0.156  0.00  0.00    +0.109 C 
BRANCH  29  30
ATOM     30  C   UNL     1      -0.361  -3.167   0.296  0.00  0.00    +0.003 C 
ATOM     31  C   UNL     1      -0.314  -3.621   1.757  0.00  0.00    +0.009 C 
BRANCH  30  33
ATOM     32  C   UNL     1       1.988  -3.908  -0.120  0.00  0.00    +0.004 C 
ATOM     33  C   UNL     1       1.033  -2.713  -0.142  0.00  0.00    +0.001 C 
ENDBRANCH  30  33
ENDBRANCH  29  30
ENDBRANCH   1  29
TORSDOF 8
