REMARK  Name = ZINC39373441
REMARK  5 active torsions:
REMARK  status: ('A' for Active; 'I' for Inactive)
REMARK    1  A    between atoms: C_4  and  C_7
REMARK    2  A    between atoms: C_8  and  C_9
REMARK    3  A    between atoms: C_9  and  S_10
REMARK    4  A    between atoms: S_10  and  C_11
REMARK    5  A    between atoms: N_25  and  C_26
REMARK                            x       y       z     vdW  Elec       q    Type
REMARK                         _______ _______ _______ _____ _____    ______ ____
ROOT
ATOM      1  C   UNL     1       6.921  -4.761   1.327  0.00  0.00    +0.259 C 
ATOM      2  N   UNL     1       6.729  -5.626   0.160  0.00  0.00    -0.248 NA
ATOM      3  C   UNL     1       7.386  -5.414  -0.930  0.00  0.00    +0.101 C 
ATOM      4  C   UNL     1       7.442  -6.065  -2.260  0.00  0.00    +0.028 A 
ATOM      5  C   UNL     1       6.804  -7.149  -2.832  0.00  0.00    +0.012 A 
ATOM      6  C   UNL     1       7.090  -7.508  -4.141  0.00  0.00    +0.001 A 
ATOM      7  C   UNL     1       8.012  -6.784  -4.874  0.00  0.00    +0.002 A 
ATOM      8  C   UNL     1       8.659  -5.697  -4.319  0.00  0.00    +0.028 A 
ATOM      9  C   UNL     1       8.386  -5.318  -2.999  0.00  0.00    +0.074 A 
ATOM     10  N   UNL     1       8.871  -4.312  -2.229  0.00  0.00    -0.240 NA
ATOM     11  C   UNL     1       8.356  -4.291  -1.031  0.00  0.00    +0.152 C 
ATOM     12  C   UNL     1       8.562  -3.410   0.137  0.00  0.00    +0.274 C 
ATOM     13  O   UNL     1       9.349  -2.485   0.078  0.00  0.00    -0.268 OA
ATOM     14  N   UNL     1       7.866  -3.643   1.269  0.00  0.00    -0.232 N 
ENDROOT
BRANCH  14  15
ATOM     15  C   UNL     1       8.047  -2.820   2.385  0.00  0.00    +0.075 A 
ATOM     16  C   UNL     1       7.344  -1.627   2.491  0.00  0.00    +0.026 A 
ATOM     17  C   UNL     1       7.525  -0.816   3.594  0.00  0.00    +0.002 A 
ATOM     18  C   UNL     1       8.406  -1.189   4.593  0.00  0.00    +0.003 A 
ATOM     19  C   UNL     1       9.110  -2.375   4.492  0.00  0.00    +0.040 A 
ATOM     20  C   UNL     1       8.928  -3.196   3.393  0.00  0.00    +0.145 A 
ATOM     21  F   UNL     1       9.611  -4.358   3.297  0.00  0.00    -0.204 F 
ENDBRANCH  14  15
BRANCH   1  22
ATOM     22  S   UNL     1       5.300  -4.074   1.761  0.00  0.00    -0.111 S 
BRANCH  22  23
ATOM     23  C   UNL     1       4.863  -3.044   0.333  0.00  0.00    +0.100 C 
BRANCH  23  25
ATOM     24  C   UNL     1       3.582  -0.984   0.711  0.00  0.00    +0.004 C 
ATOM     25  C   UNL     1       3.580  -2.306   0.619  0.00  0.00    -0.015 C 
BRANCH  24  29
ATOM     26  C   UNL     1      -0.034   1.094   1.515  0.00  0.00    +0.000 A 
ATOM     27  C   UNL     1       1.144   1.800   1.350  0.00  0.00    +0.001 A 
ATOM     28  C   UNL     1       2.322   1.131   1.088  0.00  0.00    +0.008 A 
ATOM     29  C   UNL     1       2.324  -0.261   0.991  0.00  0.00    -0.025 A 
ATOM     30  C   UNL     1       1.132  -0.967   1.159  0.00  0.00    +0.008 A 
ATOM     31  C   UNL     1      -0.039  -0.286   1.420  0.00  0.00    +0.001 A 
ENDBRANCH  24  29
ENDBRANCH  23  25
ENDBRANCH  22  23
ENDBRANCH   1  22
TORSDOF 5
