REMARK  Name = ZINC04419114
REMARK  10 active torsions:
REMARK  status: ('A' for Active; 'I' for Inactive)
REMARK    1  A    between atoms: C_1  and  C_2
REMARK    2  A    between atoms: C_7  and  C_8
REMARK    3  A    between atoms: C_8  and  N_65
REMARK    4  A    between atoms: C_9  and  C_10
REMARK    5  A    between atoms: C_9  and  N_65
REMARK    6  A    between atoms: C_13  and  C_15
REMARK    7  A    between atoms: N_17  and  C_18
REMARK    8  A    between atoms: C_18  and  C_19
REMARK    9  A    between atoms: C_19  and  C_20
REMARK   10  A    between atoms: C_26  and  N_65
REMARK                            x       y       z     vdW  Elec       q    Type
REMARK                         _______ _______ _______ _____ _____    ______ ____
ROOT
ATOM      1  C   UNL     1      -3.337   3.810   5.357  0.00  0.00    -0.002 C 
ENDROOT
BRANCH   1   2
ATOM      2  C   UNL     1      -2.065   3.156   4.885  0.00  0.00    +0.090 A 
ATOM      3  C   UNL     1      -1.091   2.662   5.681  0.00  0.00    +0.043 A 
ATOM      4  C   UNL     1      -0.092   2.147   4.841  0.00  0.00    +0.055 A 
ATOM      5  C   UNL     1      -0.512   2.354   3.558  0.00  0.00    +0.189 A 
ATOM      6  O   UNL     1      -1.710   2.973   3.606  0.00  0.00    -0.457 OA
BRANCH   5   7
ATOM      7  C   UNL     1       0.215   1.976   2.342  0.00  0.00    +0.279 C 
ATOM      8  O   UNL     1       1.296   1.424   2.426  0.00  0.00    -0.267 OA
ATOM      9  N   UNL     1      -0.314   2.241   1.131  0.00  0.00    -0.308 N 
ATOM     10  H   UNL     1      -1.176   2.681   1.064  0.00  0.00    +0.149 HD
BRANCH   9  11
ATOM     11  C   UNL     1       0.412   1.863  -0.084  0.00  0.00    +0.111 C 
BRANCH  11  12
ATOM     12  C   UNL     1      -0.403   2.273  -1.313  0.00  0.00    +0.074 C 
BRANCH  12  13
ATOM     13  C   UNL     1       0.344   1.885  -2.563  0.00  0.00    +0.043 A 
ATOM     14  C   UNL     1      -0.275   1.091  -3.510  0.00  0.00    +0.023 A 
ATOM     15  C   UNL     1       0.421   0.740  -4.656  0.00  0.00    +0.003 A 
ATOM     16  C   UNL     1       1.719   1.202  -4.808  0.00  0.00    +0.020 A 
ATOM     17  C   UNL     1       2.272   1.992  -3.819  0.00  0.00    +0.111 A 
ATOM     18  N   UNL     1       1.579   2.311  -2.743  0.00  0.00    -0.260 NA
ENDBRANCH  12  13
ENDBRANCH  11  12
ENDBRANCH   9  11
ENDBRANCH   5   7
ENDBRANCH   1   2
BRANCH   1  19
ATOM     19  N   UNL     1      -3.049   5.221   5.691  0.00  0.00    +0.389 N 
ATOM     20  H   UNL     1      -2.145   5.270   6.176  0.00  0.00    -0.080 HD
BRANCH  19  21
ATOM     21  C   UNL     1      -2.975   6.027   4.455  0.00  0.00    -0.068 C 
ATOM     22  C   UNL     1      -4.029   5.561   3.449  0.00  0.00    -0.015 C 
ATOM     23  C   UNL     1      -3.926   6.403   2.175  0.00  0.00    -0.002 C 
ATOM     24  C   UNL     1      -2.533   6.239   1.566  0.00  0.00    -0.000 C 
ATOM     25  C   UNL     1      -1.478   6.705   2.572  0.00  0.00    -0.002 C 
ATOM     26  C   UNL     1      -1.581   5.863   3.846  0.00  0.00    -0.015 C 
ENDBRANCH  19  21
BRANCH  19  27
ATOM     27  C   UNL     1      -4.101   5.755   6.581  0.00  0.00    -0.042 C 
BRANCH  27  34
ATOM     28  C   UNL     1      -2.096   5.697   8.660  0.00  0.00    +0.044 C 
ATOM     29  C   UNL     1      -2.652   7.015   8.186  0.00  0.00    -0.049 A 
ATOM     30  C   UNL     1      -2.200   8.197   8.743  0.00  0.00    +0.003 A 
ATOM     31  C   UNL     1      -2.713   9.405   8.311  0.00  0.00    +0.000 A 
ATOM     32  C   UNL     1      -3.676   9.432   7.320  0.00  0.00    +0.000 A 
ATOM     33  C   UNL     1      -4.126   8.251   6.760  0.00  0.00    +0.002 A 
ATOM     34  C   UNL     1      -3.611   7.043   7.191  0.00  0.00    -0.061 A 
ENDBRANCH  27  34
ENDBRANCH  19  27
ENDBRANCH   1  19
TORSDOF 9
