REMARK  Name = ZINC39946796
REMARK  7 active torsions:
REMARK  status: ('A' for Active; 'I' for Inactive)
REMARK    1  A    between atoms: C_1  and  C_2
REMARK    2  A    between atoms: C_2  and  C_3
REMARK    3  A    between atoms: C_10  and  C_12
REMARK    4  A    between atoms: C_12  and  S_13
REMARK    5  A    between atoms: S_13  and  C_14
REMARK    6  A    between atoms: C_18  and  C_27
REMARK    7  A    between atoms: N_19  and  C_20
REMARK                            x       y       z     vdW  Elec       q    Type
REMARK                         _______ _______ _______ _____ _____    ______ ____
ROOT
ATOM      1  C   UNL     1      -2.098   2.610   5.439  0.00  0.00    +0.241 C 
ATOM      2  N   UNL     1      -3.456   3.174   5.370  0.00  0.00    -0.237 N 
ATOM      3  N   UNL     1      -4.235   2.448   6.279  0.00  0.00    -0.169 NA
ATOM      4  C   UNL     1      -3.528   1.528   6.881  0.00  0.00    +0.151 C 
ATOM      5  N   UNL     1      -2.198   1.538   6.443  0.00  0.00    -0.254 N 
ATOM      6  H   UNL     1      -3.753   3.905   4.807  0.00  0.00    +0.171 HD
ENDROOT
BRANCH   4   7
ATOM      7  C   UNL     1      -4.036   0.644   7.845  0.00  0.00    +0.022 C 
ATOM      8  C   UNL     1      -5.316   0.645   8.399  0.00  0.00    +0.006 A 
ATOM      9  C   UNL     1      -6.442   1.470   8.195  0.00  0.00    +0.010 A 
ATOM     10  C   UNL     1      -7.586   1.234   8.889  0.00  0.00    +0.001 A 
ATOM     11  C   UNL     1      -7.680   0.188   9.809  0.00  0.00    +0.002 A 
ATOM     12  C   UNL     1      -6.638  -0.644  10.055  0.00  0.00    +0.026 A 
ATOM     13  C   UNL     1      -5.410  -0.460   9.367  0.00  0.00    +0.043 A 
ATOM     14  N   UNL     1      -4.270  -1.119   9.427  0.00  0.00    -0.380 N 
ATOM     15  C   UNL     1      -3.312  -0.515   8.495  0.00  0.00    +0.152 C 
ATOM     16  H   UNL     1      -4.093  -1.886   9.994  0.00  0.00    +0.160 HD
ENDBRANCH   4   7
BRANCH   5  17
ATOM     17  C   UNL     1      -1.167   0.696   6.871  0.00  0.00    +0.038 A 
ATOM     18  C   UNL     1      -1.031  -0.572   6.322  0.00  0.00    +0.025 A 
ATOM     19  C   UNL     1      -0.012  -1.402   6.747  0.00  0.00    +0.022 A 
ATOM     20  C   UNL     1       0.872  -0.971   7.720  0.00  0.00    +0.041 A 
ATOM     21  C   UNL     1       0.738   0.292   8.270  0.00  0.00    +0.022 A 
ATOM     22  C   UNL     1      -0.275   1.129   7.844  0.00  0.00    +0.025 A 
ATOM     23 CL   UNL     1       2.151  -2.016   8.253  0.00  0.00    -0.084 Cl
ENDBRANCH   5  17
BRANCH   1  24
ATOM     24  S   UNL     1      -1.611   1.930   3.829  0.00  0.00    -0.108 S 
BRANCH  24  25
ATOM     25  C   UNL     1      -2.908   0.718   3.455  0.00  0.00    +0.168 C 
BRANCH  25  32
ATOM     26  C   UNL     1      -3.147  -1.570   0.385  0.00  0.00    +0.076 C 
ATOM     27  C   UNL     1      -3.198  -3.081   0.635  0.00  0.00    +0.022 C 
ATOM     28  C   UNL     1      -4.553  -3.449   1.243  0.00  0.00    +0.003 C 
ATOM     29  C   UNL     1      -4.725  -2.731   2.583  0.00  0.00    +0.019 C 
ATOM     30  C   UNL     1      -4.692  -1.216   2.355  0.00  0.00    +0.108 C 
ATOM     31  N   UNL     1      -3.457  -0.870   1.639  0.00  0.00    -0.298 N 
ATOM     32  C   UNL     1      -2.621   0.070   2.125  0.00  0.00    +0.226 C 
ATOM     33  O   UNL     1      -1.639   0.393   1.492  0.00  0.00    -0.275 OA
BRANCH  26  35
ATOM     34  C   UNL     1      -1.417  -1.928  -1.381  0.00  0.00    +0.006 C 
ATOM     35  C   UNL     1      -1.748  -1.176  -0.091  0.00  0.00    +0.019 C 
ENDBRANCH  26  35
ENDBRANCH  25  32
ENDBRANCH  24  25
ENDBRANCH   1  24
TORSDOF 6
