REMARK  Name = ZINC58853626
REMARK  12 active torsions:
REMARK  status: ('A' for Active; 'I' for Inactive)
REMARK    1  A    between atoms: C_1  and  C_2
REMARK    2  A    between atoms: C_6  and  C_34
REMARK    3  A    between atoms: C_7  and  N_8
REMARK    4  A    between atoms: N_8  and  C_9
REMARK    5  A    between atoms: N_8  and  S_30
REMARK    6  A    between atoms: C_9  and  C_10
REMARK    7  A    between atoms: N_12  and  N_13
REMARK    8  A    between atoms: C_14  and  C_15
REMARK    9  A    between atoms: C_17  and  C_29
REMARK   10  A    between atoms: N_18  and  C_21
REMARK   11  A    between atoms: C_19  and  C_20
REMARK   12  A    between atoms: S_30  and  C_33
REMARK                            x       y       z     vdW  Elec       q    Type
REMARK                         _______ _______ _______ _____ _____    ______ ____
ROOT
ATOM      1  C   UNL     1      -1.193  -1.902   4.135  0.00  0.00    +0.251 C 
ATOM      2  O   UNL     1      -0.361  -2.734   3.837  0.00  0.00    -0.272 OA
ATOM      3  N   UNL     1      -2.196  -2.223   4.976  0.00  0.00    -0.206 N 
ATOM      4  H   UNL     1      -2.861  -1.558   5.214  0.00  0.00    +0.177 HD
ENDROOT
BRANCH   3   5
ATOM      5  N   UNL     1      -2.278  -3.517   5.506  0.00  0.00    -0.188 NA
ATOM      6  C   UNL     1      -3.244  -3.827   6.316  0.00  0.00    +0.140 C 
BRANCH   6   7
ATOM      7  C   UNL     1      -3.330  -5.189   6.874  0.00  0.00    +0.016 A 
ATOM      8  C   UNL     1      -4.353  -5.700   7.791  0.00  0.00    +0.032 A 
ATOM      9  C   UNL     1      -4.041  -6.986   8.037  0.00  0.00    +0.022 A 
ATOM     10  N   UNL     1      -2.908  -7.305   7.345  0.00  0.00    -0.316 N 
ATOM     11  C   UNL     1      -2.476  -6.227   6.636  0.00  0.00    +0.030 A 
ATOM     12  C   UNL     1      -1.262  -6.186   5.744  0.00  0.00    +0.064 C 
ATOM     13  C   UNL     1      -4.815  -7.920   8.931  0.00  0.00    +0.064 C 
BRANCH  10  14
ATOM     14  C   UNL     1      -2.285  -8.561   7.358  0.00  0.00    +0.066 A 
ATOM     15  C   UNL     1      -2.641  -9.524   6.423  0.00  0.00    +0.047 A 
ATOM     16  C   UNL     1      -2.024 -10.761   6.439  0.00  0.00    +0.043 A 
ATOM     17  C   UNL     1      -1.053 -11.040   7.385  0.00  0.00    +0.021 A 
ATOM     18  C   UNL     1      -0.697 -10.083   8.317  0.00  0.00    +0.023 A 
ATOM     19  C   UNL     1      -1.306  -8.842   8.303  0.00  0.00    +0.065 A 
ATOM     20 CL   UNL     1      -0.853  -7.639   9.469  0.00  0.00    -0.081 Cl
ATOM     21 CL   UNL     1      -2.468 -11.966   5.271  0.00  0.00    -0.083 Cl
ENDBRANCH  10  14
ENDBRANCH   6   7
ENDBRANCH   3   5
BRANCH   1  22
ATOM     22  C   UNL     1      -1.105  -0.510   3.564  0.00  0.00    +0.228 C 
BRANCH  22  23
ATOM     23  N   UNL     1      -0.022  -0.454   2.579  0.00  0.00    -0.198 N 
BRANCH  23  30
ATOM     24  C   UNL     1      -1.764   1.190   1.045  0.00  0.00    +0.046 C 
ATOM     25  C   UNL     1      -1.111  -0.038   0.466  0.00  0.00    -0.028 A 
ATOM     26  C   UNL     1      -1.346  -0.392  -0.848  0.00  0.00    +0.005 A 
ATOM     27  C   UNL     1      -0.746  -1.519  -1.380  0.00  0.00    +0.001 A 
ATOM     28  C   UNL     1       0.091  -2.294  -0.599  0.00  0.00    +0.005 A 
ATOM     29  C   UNL     1       0.330  -1.946   0.716  0.00  0.00    -0.028 A 
ATOM     30  C   UNL     1      -0.266  -0.812   1.252  0.00  0.00    +0.057 A 
ATOM     31  C   UNL     1       1.242  -2.792   1.566  0.00  0.00    +0.046 C 
ENDBRANCH  23  30
BRANCH  23  32
ATOM     32  S   UNL     1       1.492   0.035   3.040  0.00  0.00    +0.043 S 
ATOM     33  O   UNL     1       1.624  -0.411   4.383  0.00  0.00    -0.155 OA
ATOM     34  O   UNL     1       2.356  -0.457   2.025  0.00  0.00    -0.155 OA
ATOM     35  C   UNL     1       1.433   1.847   2.987  0.00  0.00    +0.218 C 
ENDBRANCH  23  32
ENDBRANCH  22  23
ENDBRANCH   1  22
TORSDOF 7
