REMARK  Name = ZINC02225830
REMARK  10 active torsions:
REMARK  status: ('A' for Active; 'I' for Inactive)
REMARK    1  A    between atoms: C_1  and  C_2
REMARK    2  A    between atoms: C_4  and  C_32
REMARK    3  A    between atoms: N_15  and  C_28
REMARK    4  A    between atoms: C_16  and  C_18
REMARK    5  A    between atoms: C_20  and  O_26
REMARK    6  A    between atoms: C_21  and  O_25
REMARK    7  A    between atoms: O_26  and  C_27
REMARK    8  A    between atoms: C_28  and  C_29
REMARK    9  A    between atoms: C_29  and  C_30
REMARK   10  A    between atoms: C_30  and  O_31
REMARK                            x       y       z     vdW  Elec       q    Type
REMARK                         _______ _______ _______ _____ _____    ______ ____
ROOT
ATOM      1  C   UNL     1       4.969   1.506  -0.036  0.00  0.00    +0.044 C 
ATOM      2  C   UNL     1       3.613   2.164  -0.020  0.00  0.00    -0.049 A 
ATOM      3  C   UNL     1       3.518   3.548  -0.013  0.00  0.00    +0.010 A 
ATOM      4  C   UNL     1       2.289   4.171   0.002  0.00  0.00    -0.007 A 
ATOM      5  C   UNL     1       1.125   3.408   0.009  0.00  0.00    +0.142 A 
ATOM      6  C   UNL     1       1.231   2.006   0.001  0.00  0.00    +0.065 A 
ATOM      7  C   UNL     1       2.483   1.393  -0.015  0.00  0.00    +0.018 A 
ATOM      8  C   UNL     1      -0.014   1.214   0.009  0.00  0.00    +0.199 A 
ATOM      9  O   UNL     1       0.002  -0.004   0.002  0.00  0.00    -0.287 OA
ATOM     10  C   UNL     1      -1.272   1.967   0.018  0.00  0.00    +0.072 A 
ATOM     11  C   UNL     1      -1.248   3.322   0.032  0.00  0.00    +0.199 A 
ATOM     12  O   UNL     1      -0.083   4.000   0.024  0.00  0.00    -0.449 OA
ATOM     13  C   UNL     1      -2.648   3.814   0.047  0.00  0.00    +0.283 C 
ATOM     14  O   UNL     1      -2.973   4.985   0.056  0.00  0.00    -0.267 OA
ATOM     15  N   UNL     1      -3.505   2.778   0.050  0.00  0.00    -0.284 N 
ATOM     16  C   UNL     1      -2.717   1.540   0.036  0.00  0.00    +0.145 C 
ATOM     17  C   UNL     1       2.205   5.676   0.010  0.00  0.00    +0.047 C 
ENDROOT
BRANCH  16  18
ATOM     18  C   UNL     1      -3.008   0.726   1.271  0.00  0.00    -0.018 A 
ATOM     19  C   UNL     1      -3.123  -0.649   1.179  0.00  0.00    +0.055 A 
ATOM     20  C   UNL     1      -3.390  -1.399   2.313  0.00  0.00    +0.163 A 
ATOM     21  C   UNL     1      -3.543  -0.766   3.543  0.00  0.00    +0.173 A 
ATOM     22  C   UNL     1      -3.426   0.612   3.628  0.00  0.00    +0.063 A 
ATOM     23  C   UNL     1      -3.154   1.355   2.493  0.00  0.00    +0.025 A 
ATOM     24 BR   UNL     1      -3.632   1.477   5.297  0.00  0.00    -0.046 Br
BRANCH  21  25
ATOM     25  O   UNL     1      -3.805  -1.499   4.659  0.00  0.00    -0.503 OA
ATOM     26  H   UNL     1      -3.014  -1.792   5.131  0.00  0.00    +0.292 HD
ENDBRANCH  21  25
BRANCH  20  27
ATOM     27  O   UNL     1      -3.503  -2.752   2.224  0.00  0.00    -0.491 OA
ATOM     28  C   UNL     1      -3.334  -3.333   0.930  0.00  0.00    +0.277 C 
ENDBRANCH  20  27
ENDBRANCH  16  18
BRANCH  15  29
ATOM     29  C   UNL     1      -4.967   2.869   0.063  0.00  0.00    +0.111 C 
BRANCH  29  30
ATOM     30  C   UNL     1      -5.489   2.908  -1.374  0.00  0.00    +0.047 C 
BRANCH  30  31
ATOM     31  C   UNL     1      -7.016   3.003  -1.361  0.00  0.00    +0.157 C 
BRANCH  31  32
ATOM     32  O   UNL     1      -7.503   3.040  -2.703  0.00  0.00    -0.395 OA
ATOM     33  H   UNL     1      -8.465   3.100  -2.771  0.00  0.00    +0.209 HD
ENDBRANCH  31  32
ENDBRANCH  30  31
ENDBRANCH  29  30
ENDBRANCH  15  29
TORSDOF 7
