REMARK  Name = ZINC05383776
REMARK  7 active torsions:
REMARK  status: ('A' for Active; 'I' for Inactive)
REMARK    1  A    between atoms: C_1  and  C_2
REMARK    2  A    between atoms: C_2  and  C_3
REMARK    3  A    between atoms: C_2  and  C_4
REMARK    4  A    between atoms: C_2  and  C_5
REMARK    5  A    between atoms: C_14  and  O_26
REMARK    6  A    between atoms: C_16  and  C_19
REMARK    7  A    between atoms: C_24  and  O_25
REMARK                            x       y       z     vdW  Elec       q    Type
REMARK                         _______ _______ _______ _____ _____    ______ ____
ROOT
ATOM      1  C   UNL     1       1.022   6.726  -6.837  0.00  0.00    -0.000 C 
ATOM      2  C   UNL     1      -0.268   5.958  -6.532  0.00  0.00    +0.009 C 
ATOM      3  C   UNL     1      -0.792   6.349  -5.150  0.00  0.00    +0.037 C 
ATOM      4  C   UNL     1       0.331   6.180  -4.133  0.00  0.00    -0.023 A 
ATOM      5  C   UNL     1       1.622   6.115  -4.531  0.00  0.00    -0.004 A 
ATOM      6  S   UNL     1       2.553   5.927  -3.032  0.00  0.00    -0.078 S 
ATOM      7  C   UNL     1       1.259   5.939  -1.913  0.00  0.00    +0.080 A 
ATOM      8  C   UNL     1       0.109   6.077  -2.701  0.00  0.00    +0.068 A 
ATOM      9  C   UNL     1      -1.197   6.120  -1.996  0.00  0.00    +0.220 C 
ATOM     10  N   UNL     1      -1.214   5.818  -0.727  0.00  0.00    -0.223 NA
ATOM     11  C   UNL     1      -0.059   5.351   0.030  0.00  0.00    +0.227 C 
ATOM     12  N   UNL     1       1.205   5.849  -0.544  0.00  0.00    -0.313 N 
ATOM     13  C   UNL     1       2.141   6.189  -5.933  0.00  0.00    +0.046 C 
ATOM     14  H   UNL     1       2.039   6.124   0.118  0.00  0.00    +0.149 HD
ENDROOT
BRANCH  11  15
ATOM     15  C   UNL     1      -0.043   3.844   0.022  0.00  0.00    +0.036 A 
ATOM     16  C   UNL     1       1.161   3.165   0.008  0.00  0.00    +0.011 A 
ATOM     17  C   UNL     1       1.176   1.783   0.000  0.00  0.00    +0.001 A 
ATOM     18  C   UNL     1      -0.013   1.076   0.008  0.00  0.00    +0.004 A 
ATOM     19  C   UNL     1      -1.218   1.750   0.017  0.00  0.00    +0.046 A 
ATOM     20  C   UNL     1      -1.236   3.137   0.029  0.00  0.00    +0.124 A 
BRANCH  20  21
ATOM     21  O   UNL     1      -2.421   3.802   0.044  0.00  0.00    -0.506 OA
ATOM     22  H   UNL     1      -3.367   3.240   0.049  0.00  0.00    +0.292 HD
ENDBRANCH  20  21
ENDBRANCH  11  15
BRANCH   1  24
ATOM     23  C   UNL     1       1.608   5.031  -8.576  0.00  0.00    +0.011 C 
ATOM     24  C   UNL     1       1.405   6.523  -8.304  0.00  0.00    -0.035 C 
ATOM     25  C   UNL     1       0.289   7.058  -9.202  0.00  0.00    +0.011 C 
ATOM     26  C   UNL     1       2.704   7.276  -8.600  0.00  0.00    +0.011 C 
ENDBRANCH   1  24
BRANCH   9  27
ATOM     27  O   UNL     1      -2.333   6.460  -2.648  0.00  0.00    -0.492 OA
ATOM     28  H   UNL     1      -3.291   6.486  -2.108  0.00  0.00    +0.294 HD
ENDBRANCH   9  27
TORSDOF 4
