REMARK  Name = ZINC63372963
REMARK  5 active torsions:
REMARK  status: ('A' for Active; 'I' for Inactive)
REMARK    1  A    between atoms: C_1  and  C_2
REMARK    2  A    between atoms: C_13  and  C_32
REMARK    3  A    between atoms: N_20  and  C_23
REMARK    4  A    between atoms: C_23  and  C_24
REMARK    5  A    between atoms: C_24  and  C_25
REMARK                            x       y       z     vdW  Elec       q    Type
REMARK                         _______ _______ _______ _____ _____    ______ ____
ROOT
ATOM      1  C   UNL     1       0.127   1.565   0.554  0.00  0.00    +0.044 C 
ATOM      2  C   UNL     1       0.095   0.040   0.429  0.00  0.00    +0.135 C 
ATOM      3  C   UNL     1       0.409  -0.245  -1.006  0.00  0.00    +0.139 C 
ATOM      4  C   UNL     1       1.467  -1.333  -1.088  0.00  0.00    -0.027 C 
ATOM      5  C   UNL     1       1.011  -2.241  -1.939  0.00  0.00    -0.000 A 
ATOM      6  C   UNL     1       1.613  -3.468  -2.485  0.00  0.00    +0.010 A 
ATOM      7  C   UNL     1       0.842  -4.183  -3.345  0.00  0.00    +0.001 A 
ATOM      8  C   UNL     1      -0.454  -3.806  -3.712  0.00  0.00    +0.002 A 
ATOM      9  C   UNL     1      -1.084  -2.692  -3.264  0.00  0.00    +0.026 A 
ATOM     10  C   UNL     1      -0.372  -1.854  -2.358  0.00  0.00    +0.043 A 
ATOM     11  N   UNL     1      -0.718  -0.753  -1.788  0.00  0.00    -0.375 N 
ATOM     12  C   UNL     1       2.705  -1.279  -0.227  0.00  0.00    +0.065 C 
ATOM     13  C   UNL     1       2.214  -1.260   1.223  0.00  0.00    +0.121 C 
ATOM     14  N   UNL     1       1.033  -0.442   1.426  0.00  0.00    -0.283 N 
ATOM     15  C   UNL     1       0.720  -0.111   2.723  0.00  0.00    +0.234 C 
ATOM     16  O   UNL     1       1.472  -0.358   3.642  0.00  0.00    -0.274 OA
ATOM     17  C   UNL     1      -0.609   0.578   2.949  0.00  0.00    +0.203 C 
ATOM     18  N   UNL     1      -1.635  -0.094   2.129  0.00  0.00    -0.291 N 
ATOM     19  C   UNL     1      -1.304  -0.352   0.828  0.00  0.00    +0.242 C 
ATOM     20  O   UNL     1      -2.083  -0.861   0.049  0.00  0.00    -0.273 OA
ATOM     21  H   UNL     1      -1.586  -0.330  -1.873  0.00  0.00    +0.160 HD
ENDROOT
BRANCH  12  22
ATOM     22  C   UNL     1       3.490  -0.028  -0.527  0.00  0.00    -0.039 A 
ATOM     23  C   UNL     1       3.193   1.150   0.133  0.00  0.00    +0.006 A 
ATOM     24  C   UNL     1       3.913   2.297  -0.142  0.00  0.00    +0.020 A 
ATOM     25  C   UNL     1       4.932   2.266  -1.077  0.00  0.00    +0.041 A 
ATOM     26  C   UNL     1       5.229   1.087  -1.737  0.00  0.00    +0.020 A 
ATOM     27  C   UNL     1       4.512  -0.061  -1.458  0.00  0.00    +0.006 A 
ATOM     28 CL   UNL     1       5.837   3.707  -1.423  0.00  0.00    -0.084 Cl
ENDBRANCH  12  22
BRANCH  18  29
ATOM     29  C   UNL     1      -2.940  -0.465   2.681  0.00  0.00    +0.113 C 
BRANCH  29  30
ATOM     30  C   UNL     1      -3.924   0.691   2.483  0.00  0.00    +0.054 C 
BRANCH  30  31
ATOM     31  C   UNL     1      -5.267   0.309   3.050  0.00  0.00    -0.046 A 
ATOM     32  C   UNL     1      -6.200  -0.325   2.251  0.00  0.00    +0.005 A 
ATOM     33  C   UNL     1      -7.432  -0.675   2.771  0.00  0.00    +0.020 A 
ATOM     34  C   UNL     1      -7.731  -0.391   4.091  0.00  0.00    +0.041 A 
ATOM     35  C   UNL     1      -6.797   0.243   4.891  0.00  0.00    +0.020 A 
ATOM     36  C   UNL     1      -5.563   0.588   4.371  0.00  0.00    +0.005 A 
ATOM     37 CL   UNL     1      -9.279  -0.830   4.745  0.00  0.00    -0.084 Cl
ENDBRANCH  30  31
ENDBRANCH  29  30
ENDBRANCH  18  29
TORSDOF 4
