REMARK  Name = ZINC00781338
REMARK  11 active torsions:
REMARK  status: ('A' for Active; 'I' for Inactive)
REMARK    1  A    between atoms: C_1  and  C_2
REMARK    2  A    between atoms: C_2  and  O_3
REMARK    3  A    between atoms: O_3  and  C_4
REMARK    4  A    between atoms: C_4  and  C_6
REMARK    5  A    between atoms: C_7  and  C_37
REMARK    6  A    between atoms: C_11  and  C_13
REMARK    7  A    between atoms: C_24  and  C_27
REMARK    8  A    between atoms: C_30  and  O_35
REMARK    9  A    between atoms: C_31  and  O_33
REMARK   10  A    between atoms: O_33  and  C_34
REMARK   11  A    between atoms: O_35  and  C_36
REMARK                            x       y       z     vdW  Elec       q    Type
REMARK                         _______ _______ _______ _____ _____    ______ ____
ROOT
ATOM      1  C   UNL     1       1.667  -2.384   2.318  0.00  0.00    +0.065 C 
ATOM      2  C   UNL     1       1.490  -3.684   2.609  0.00  0.00    +0.016 C 
ATOM      3  N   UNL     1       1.944  -4.196   3.793  0.00  0.00    -0.321 N 
ATOM      4  C   UNL     1       2.905  -3.540   4.514  0.00  0.00    +0.016 C 
ATOM      5  C   UNL     1       3.141  -2.227   4.306  0.00  0.00    +0.024 C 
ATOM      6  C   UNL     1       2.357  -1.458   3.276  0.00  0.00    +0.092 C 
ATOM      7  C   UNL     1       4.123  -1.541   5.042  0.00  0.00    +0.162 C 
ATOM      8  O   UNL     1       4.321  -0.363   4.818  0.00  0.00    -0.292 OA
ATOM      9  C   UNL     1       4.932  -2.239   6.101  0.00  0.00    +0.088 C 
ATOM     10  C   UNL     1       4.105  -3.389   6.683  0.00  0.00    +0.032 C 
ATOM     11  C   UNL     1       3.693  -4.318   5.538  0.00  0.00    +0.059 C 
ATOM     12  C   UNL     1       0.789  -4.584   1.624  0.00  0.00    +0.061 C 
ATOM     13  H   UNL     1       1.580  -5.032   4.126  0.00  0.00    +0.152 HD
ENDROOT
BRANCH   6  14
ATOM     14  C   UNL     1       1.325  -0.612   3.977  0.00  0.00    -0.034 A 
ATOM     15  C   UNL     1       0.344  -1.213   4.742  0.00  0.00    +0.007 A 
ATOM     16  C   UNL     1      -0.603  -0.439   5.386  0.00  0.00    +0.040 A 
ATOM     17  C   UNL     1      -0.568   0.940   5.265  0.00  0.00    +0.137 A 
ATOM     18  C   UNL     1       0.416   1.542   4.497  0.00  0.00    +0.053 A 
ATOM     19  C   UNL     1       1.365   0.765   3.858  0.00  0.00    +0.022 A 
ATOM     20 BR   UNL     1       0.466   3.424   4.329  0.00  0.00    -0.047 Br
ATOM     21  F   UNL     1      -1.493   1.698   5.893  0.00  0.00    -0.204 F 
ENDBRANCH   6  14
BRANCH  10  22
ATOM     22  C   UNL     1       4.933  -4.151   7.686  0.00  0.00    -0.040 A 
ATOM     23  C   UNL     1       6.115  -4.751   7.291  0.00  0.00    +0.008 A 
ATOM     24  C   UNL     1       6.878  -5.451   8.207  0.00  0.00    +0.049 A 
ATOM     25  C   UNL     1       6.459  -5.552   9.524  0.00  0.00    +0.161 A 
ATOM     26  C   UNL     1       5.270  -4.948   9.921  0.00  0.00    +0.162 A 
ATOM     27  C   UNL     1       4.512  -4.244   8.999  0.00  0.00    +0.053 A 
BRANCH  26  28
ATOM     28  O   UNL     1       4.855  -5.045  11.213  0.00  0.00    -0.491 OA
ATOM     29  C   UNL     1       3.625  -4.399  11.549  0.00  0.00    +0.277 C 
ENDBRANCH  26  28
BRANCH  25  30
ATOM     30  O   UNL     1       7.208  -6.241  10.427  0.00  0.00    -0.491 OA
ATOM     31  C   UNL     1       8.416  -6.835   9.948  0.00  0.00    +0.277 C 
ENDBRANCH  25  30
ENDBRANCH  10  22
BRANCH   1  32
ATOM     32  C   UNL     1       1.197  -1.880   1.083  0.00  0.00    +0.338 C 
ATOM     33  O   UNL     1       0.751  -2.642   0.245  0.00  0.00    -0.245 OA
BRANCH  32  34
ATOM     34  O   UNL     1       1.244  -0.555   0.833  0.00  0.00    -0.462 OA
BRANCH  34  36
ATOM     35  C   UNL     1       0.886   1.405  -0.535  0.00  0.00    +0.048 C 
ATOM     36  C   UNL     1       0.752  -0.116  -0.435  0.00  0.00    +0.229 C 
ENDBRANCH  34  36
ENDBRANCH  32  34
ENDBRANCH   1  32
TORSDOF 7
