REMARK  Name = ZINC12885782
REMARK  16 active torsions:
REMARK  status: ('A' for Active; 'I' for Inactive)
REMARK    1  A    between atoms: C_1  and  O_2
REMARK    2  A    between atoms: O_2  and  C_3
REMARK    3  A    between atoms: C_6  and  C_13
REMARK    4  A    between atoms: C_7  and  O_11
REMARK    5  A    between atoms: C_8  and  O_9
REMARK    6  A    between atoms: O_9  and  C_10
REMARK    7  A    between atoms: O_11  and  C_12
REMARK    8  A    between atoms: C_20  and  O_24
REMARK    9  A    between atoms: O_24  and  C_25
REMARK   10  A    between atoms: C_25  and  C_26
REMARK   11  A    between atoms: N_28  and  CA_29
REMARK   12  A    between atoms: CA_29  and  CB_31
REMARK   13  A    between atoms: CA_29  and  C_35
REMARK   14  A    between atoms: CB_31  and  CG_32
REMARK   15  A    between atoms: CG_32  and  SD_33
REMARK   16  A    between atoms: SD_33  and  CE_34
REMARK                            x       y       z     vdW  Elec       q    Type
REMARK                         _______ _______ _______ _____ _____    ______ ____
ROOT
ATOM      1  C   UNK A   0       1.329  -2.146  -0.079  0.00  0.00    +0.062 C 
ATOM      2  C   UNK A   0       0.189  -2.880   0.024  0.00  0.00    +0.176 C 
ATOM      3  C   UNK A   0       0.105  -4.343   0.102  0.00  0.00    +0.231 C 
ATOM      4  O   UNK A   0       1.024  -5.145   0.088  0.00  0.00    -0.283 OA
ATOM      5  C   UNK A   0      -1.338  -4.627   0.203  0.00  0.00    +0.068 A 
ATOM      6  C   UNK A   0      -2.074  -5.807   0.307  0.00  0.00    +0.019 A 
ATOM      7  C   UNK A   0      -3.437  -5.756   0.379  0.00  0.00    +0.046 A 
ATOM      8  C   UNK A   0      -4.093  -4.528   0.349  0.00  0.00    +0.125 A 
ATOM      9  C   UNK A   0      -3.376  -3.348   0.246  0.00  0.00    +0.092 A 
ATOM     10  C   UNK A   0      -1.988  -3.383   0.171  0.00  0.00    +0.143 A 
ATOM     11  O   UNK A   0      -1.074  -2.394   0.067  0.00  0.00    -0.451 OA
ENDROOT
BRANCH   1  15
ATOM     12  C   UNK A   0       1.148   2.088   0.162  0.00  0.00    +0.165 A 
ATOM     13  C   UNK A   0      -0.007   1.354  -0.089  0.00  0.00    +0.050 A 
ATOM     14  C   UNK A   0       0.046  -0.018  -0.168  0.00  0.00    +0.015 A 
ATOM     15  C   UNK A   0       1.268  -0.684   0.005  0.00  0.00    +0.024 A 
ATOM     16  C   UNK A   0       2.435   0.058   0.259  0.00  0.00    +0.172 A 
ATOM     17  C   UNK A   0       2.367   1.441   0.336  0.00  0.00    +0.204 A 
BRANCH  12  19
ATOM     18  C   UNK A   0      -0.198   4.044   0.050  0.00  0.00    +0.277 C 
ATOM     19  O   UNK A   0       1.085   3.442   0.238  0.00  0.00    -0.491 OA
ENDBRANCH  12  19
BRANCH  17  20
ATOM     20  O   UNK A   0       3.493   2.165   0.581  0.00  0.00    -0.488 OA
ATOM     21  C   UNK A   0       3.857   2.355   1.950  0.00  0.00    +0.277 C 
ENDBRANCH  17  20
BRANCH  16  22
ATOM     22  O   UNK A   0       3.624  -0.577   0.428  0.00  0.00    -0.491 OA
ATOM     23  C   UNK A   0       4.459  -0.709  -0.724  0.00  0.00    +0.277 C 
ENDBRANCH  16  22
ENDBRANCH   1  15
BRANCH   8  24
ATOM     24  O   UNK A   0      -5.448  -4.487   0.422  0.00  0.00    -0.483 OA
BRANCH  24  25
ATOM     25  C   UNK A   0      -6.130  -5.738   0.527  0.00  0.00    +0.324 C 
BRANCH  25  26
ATOM     26  C   UNK A   0      -7.616  -5.496   0.597  0.00  0.00    +0.251 C 
ATOM     27  O   UNK A   0      -8.049  -4.364   0.559  0.00  0.00    -0.272 OA
ATOM     28  N   MET A   1      -8.464  -6.538   0.700  0.00  0.00    -0.299 N 
ATOM     29  H   MET A   1      -8.119  -7.444   0.730  0.00  0.00    +0.150 HD
BRANCH  28  30
ATOM     30  CA  MET A   1      -9.909  -6.303   0.767  0.00  0.00    +0.187 C 
BRANCH  30  31
ATOM     31  C   MET A   1     -10.463  -6.177  -0.628  0.00  0.00    +0.376 C 
ATOM     32  O   MET A   1      -9.726  -6.274  -1.582  0.00  0.00    -0.244 OA
ATOM     33  OXT MET A   1     -11.774  -5.957  -0.813  0.00  0.00    -0.244 OA
ENDBRANCH  30  31
BRANCH  30  34
ATOM     34  CB  MET A   1     -10.584  -7.476   1.480  0.00  0.00    +0.044 C 
BRANCH  34  35
ATOM     35  CG  MET A   1     -10.114  -7.528   2.935  0.00  0.00    +0.071 C 
BRANCH  35  36
ATOM     36  SD  MET A   1     -10.915  -8.919   3.780  0.00  0.00    -0.164 S 
ATOM     37  CE  MET A   1     -10.261  -8.841   5.470  0.00  0.00    +0.084 C 
ENDBRANCH  35  36
ENDBRANCH  34  35
ENDBRANCH  30  34
ENDBRANCH  28  30
ENDBRANCH  25  26
ENDBRANCH  24  25
ENDBRANCH   8  24
TORSDOF 12
