REMARK  Name = ZINC59364905
REMARK  12 active torsions:
REMARK  status: ('A' for Active; 'I' for Inactive)
REMARK    1  A    between atoms: C_1  and  C_2
REMARK    2  A    between atoms: C_2  and  C_3
REMARK    3  A    between atoms: C_6  and  N_9
REMARK    4  A    between atoms: C_11  and  C_28
REMARK    5  A    between atoms: C_15  and  C_16
REMARK    6  A    between atoms: C_19  and  O_24
REMARK    7  A    between atoms: C_21  and  O_22
REMARK    8  A    between atoms: O_22  and  C_23
REMARK    9  A    between atoms: O_24  and  C_25
REMARK   10  A    between atoms: C_28  and  O_30
REMARK   11  A    between atoms: O_30  and  C_31
REMARK   12  A    between atoms: C_31  and  C_32
REMARK                            x       y       z     vdW  Elec       q    Type
REMARK                         _______ _______ _______ _____ _____    ______ ____
ROOT
ATOM      1  N   UNL     1       3.115  -1.547   4.547  0.00  0.00    -0.240 NA
ATOM      2  C   UNL     1       2.769  -1.093   5.739  0.00  0.00    +0.120 C 
ATOM      3  C   UNL     1       3.321  -1.446   7.056  0.00  0.00    +0.139 C 
ATOM      4  C   UNL     1       2.770  -0.816   8.143  0.00  0.00    +0.209 C 
ATOM      5  O   UNL     1       3.216  -1.079   9.392  0.00  0.00    -0.286 OA
ATOM      6  C   UNL     1       1.726   0.114   7.931  0.00  0.00    +0.062 C 
ATOM      7  C   UNL     1       1.044   0.845   8.859  0.00  0.00    +0.030 C 
ATOM      8  S   UNL     1       1.520   0.109   6.159  0.00  0.00    -0.065 S 
ENDROOT
BRANCH   7   9
ATOM      9  C   UNL     1       0.110   1.887   8.429  0.00  0.00    +0.019 A 
ATOM     10  C   UNL     1       0.189   2.411   7.130  0.00  0.00    +0.030 A 
ATOM     11  C   UNL     1      -0.691   3.389   6.731  0.00  0.00    +0.060 A 
ATOM     12  C   UNL     1      -1.661   3.863   7.612  0.00  0.00    +0.137 A 
ATOM     13  C   UNL     1      -1.748   3.353   8.899  0.00  0.00    +0.093 A 
ATOM     14  C   UNL     1      -0.874   2.364   9.314  0.00  0.00    +0.131 A 
ATOM     15 BR   UNL     1      -0.585   4.095   4.980  0.00  0.00    -0.046 Br
BRANCH  14  16
ATOM     16  O   UNL     1      -0.963   1.860  10.570  0.00  0.00    -0.494 OA
ATOM     17  C   UNL     1      -1.987   2.392  11.412  0.00  0.00    +0.277 C 
ENDBRANCH  14  16
BRANCH  12  18
ATOM     18  O   UNL     1      -2.525   4.830   7.209  0.00  0.00    -0.494 OA
ATOM     19  C   UNL     1      -3.494   5.271   8.161  0.00  0.00    +0.277 C 
ENDBRANCH  12  18
ENDBRANCH   7   9
BRANCH   1  23
ATOM     20  C   UNL     1       1.189  -0.151   1.164  0.00  0.00    -0.047 A 
ATOM     21  C   UNL     1       2.569  -0.263   1.174  0.00  0.00    +0.006 A 
ATOM     22  C   UNL     1       3.218  -0.728   2.298  0.00  0.00    +0.028 A 
ATOM     23  C   UNL     1       2.479  -1.085   3.430  0.00  0.00    +0.065 A 
ATOM     24  C   UNL     1       1.086  -0.969   3.413  0.00  0.00    +0.028 A 
ATOM     25  C   UNL     1       0.452  -0.498   2.282  0.00  0.00    +0.006 A 
BRANCH  20  27
ATOM     26  C   UNL     1       0.363   1.881   0.007  0.00  0.00    +0.009 C 
ATOM     27  C   UNL     1       0.488   0.358  -0.069  0.00  0.00    +0.032 C 
ENDBRANCH  20  27
ENDBRANCH   1  23
BRANCH   3  28
ATOM     28  C   UNL     1       4.403  -2.420   7.199  0.00  0.00    +0.346 C 
ATOM     29  O   UNL     1       4.837  -2.689   8.304  0.00  0.00    -0.245 OA
BRANCH  28  30
ATOM     30  O   UNL     1       4.920  -3.019   6.107  0.00  0.00    -0.461 OA
BRANCH  30  31
ATOM     31  C   UNL     1       5.975  -3.960   6.322  0.00  0.00    +0.229 C 
ATOM     32  C   UNL     1       6.429  -4.531   4.977  0.00  0.00    +0.048 C 
ENDBRANCH  30  31
ENDBRANCH  28  30
ENDBRANCH   3  28
TORSDOF 8
