REMARK  Name = ZINC47303947
REMARK  6 active torsions:
REMARK  status: ('A' for Active; 'I' for Inactive)
REMARK    1  A    between atoms: C_4  and  O_25
REMARK    2  A    between atoms: C_5  and  C_7
REMARK    3  A    between atoms: N_9  and  N_10
REMARK    4  A    between atoms: C_11  and  C_13
REMARK    5  A    between atoms: C_13  and  C_14
REMARK    6  A    between atoms: C_17  and  C_19
REMARK                            x       y       z     vdW  Elec       q    Type
REMARK                         _______ _______ _______ _____ _____    ______ ____
ROOT
ATOM      1  N   UNL     1       0.121  -4.255  -0.024  0.00  0.00    -0.234 N 
ATOM      2  C   UNL     1      -1.033  -4.951  -0.017  0.00  0.00    +0.235 C 
ATOM      3  O   UNL     1      -2.095  -4.364  -0.003  0.00  0.00    -0.274 OA
ATOM      4  H   UNL     1       0.970  -4.725  -0.036  0.00  0.00    +0.173 HD
ENDROOT
BRANCH   1   7
ATOM      5  C   UNL     1       1.250  -2.159  -0.023  0.00  0.00    +0.264 C 
ATOM      6  O   UNL     1       2.314  -2.748  -0.037  0.00  0.00    -0.269 OA
ATOM      7  N   UNL     1       0.095  -2.855  -0.016  0.00  0.00    -0.230 N 
ATOM      8  H   UNL     1      -0.754  -2.385  -0.004  0.00  0.00    +0.173 HD
BRANCH   5  13
ATOM      9  C   UNL     1      -0.017   1.374   0.010  0.00  0.00    +0.001 A 
ATOM     10  C   UNL     1       1.170   2.089   0.002  0.00  0.00    +0.004 A 
ATOM     11  C   UNL     1       2.383   1.429  -0.013  0.00  0.00    +0.046 A 
ATOM     12  C   UNL     1       2.420   0.043  -0.021  0.00  0.00    +0.129 A 
ATOM     13  C   UNL     1       1.222  -0.684  -0.014  0.00  0.00    +0.079 A 
ATOM     14  C   UNL     1       0.002  -0.004   0.002  0.00  0.00    +0.017 A 
BRANCH  12  15
ATOM     15  O   UNL     1       3.611  -0.606  -0.037  0.00  0.00    -0.506 OA
ATOM     16  H   UNL     1       3.966  -0.799   0.842  0.00  0.00    +0.292 HD
ENDBRANCH  12  15
ENDBRANCH   5  13
ENDBRANCH   1   7
BRANCH   2  17
ATOM     17  C   UNL     1      -1.006  -6.457  -0.026  0.00  0.00    +0.153 C 
BRANCH  17  18
ATOM     18  C   UNL     1      -2.417  -6.986  -0.016  0.00  0.00    +0.058 A 
ATOM     19  C   UNL     1      -2.827  -7.857  -0.980  0.00  0.00    +0.071 A 
ATOM     20  S   UNL     1      -4.522  -8.129  -0.477  0.00  0.00    -0.072 S 
ATOM     21  C   UNL     1      -4.498  -7.058   0.955  0.00  0.00    +0.145 A 
ATOM     22  N   UNL     1      -3.250  -6.614   0.924  0.00  0.00    -0.240 NA
BRANCH  21  23
ATOM     23  C   UNL     1      -5.579  -6.755   1.917  0.00  0.00    +0.185 A 
ATOM     24  N   UNL     1      -5.339  -5.915   2.917  0.00  0.00    -0.234 NA
ATOM     25  C   UNL     1      -6.284  -5.623   3.794  0.00  0.00    +0.115 A 
ATOM     26  C   UNL     1      -7.536  -6.206   3.660  0.00  0.00    +0.039 A 
ATOM     27  C   UNL     1      -7.752  -7.079   2.604  0.00  0.00    +0.115 A 
ATOM     28  N   UNL     1      -6.767  -7.325   1.758  0.00  0.00    -0.234 NA
ENDBRANCH  21  23
ENDBRANCH  17  18
ENDBRANCH   2  17
TORSDOF 6
