REMARK  Name = ZINC64645072
REMARK  8 active torsions:
REMARK  status: ('A' for Active; 'I' for Inactive)
REMARK    1  A    between atoms: C_1  and  C_2
REMARK    2  A    between atoms: C_2  and  C_3
REMARK    3  A    between atoms: C_2  and  N_10
REMARK    4  A    between atoms: N_10  and  C_11
REMARK    5  A    between atoms: N_14  and  C_15
REMARK    6  A    between atoms: C_15  and  C_16
REMARK    7  A    between atoms: C_15  and  C_17
REMARK    8  A    between atoms: C_19  and  C_22
REMARK                            x       y       z     vdW  Elec       q    Type
REMARK                         _______ _______ _______ _____ _____    ______ ____
ROOT
ATOM      1  N   UNL     1       0.690  -0.554   1.103  0.00  0.00    -0.282 N 
ATOM      2  C   UNL     1       0.090  -0.430   2.434  0.00  0.00    +0.134 C 
ATOM      3  C   UNL     1       1.870  -1.186   0.951  0.00  0.00    +0.303 C 
ATOM      4  O   UNL     1       2.367  -1.289  -0.154  0.00  0.00    -0.253 OA
ATOM      5  N   UNL     1       2.500  -1.704   2.025  0.00  0.00    -0.288 N 
ATOM      6  H   UNL     1       2.103  -1.621   2.906  0.00  0.00    +0.151 HD
ENDROOT
BRANCH   1   8
ATOM      7  C   UNL     1      -0.052   1.533   0.064  0.00  0.00    +0.033 C 
ATOM      8  C   UNL     1       0.005   0.009  -0.064  0.00  0.00    +0.107 C 
BRANCH   8   9
ATOM      9  C   UNL     1      -1.395  -0.542  -0.139  0.00  0.00    +0.008 A 
ATOM     10  C   UNL     1      -2.468   0.243   0.241  0.00  0.00    +0.008 A 
ATOM     11  C   UNL     1      -3.753  -0.262   0.172  0.00  0.00    +0.000 A 
ATOM     12  C   UNL     1      -3.967  -1.552  -0.277  0.00  0.00    +0.003 A 
ATOM     13  C   UNL     1      -2.896  -2.338  -0.657  0.00  0.00    +0.039 A 
ATOM     14  C   UNL     1      -1.609  -1.831  -0.594  0.00  0.00    +0.128 A 
ATOM     15  F   UNL     1      -0.562  -2.598  -0.971  0.00  0.00    -0.205 F 
ENDBRANCH   8   9
ENDBRANCH   1   8
BRANCH   5  16
ATOM     16  C   UNL     1       3.783  -2.391   1.860  0.00  0.00    +0.160 C 
ATOM     17  C   UNL     1       4.917  -1.364   1.874  0.00  0.00    +0.038 C 
BRANCH  16  18
ATOM     18  C   UNL     1       3.978  -3.369   2.990  0.00  0.00    +0.248 A 
ATOM     19  N   UNL     1       4.404  -4.594   2.871  0.00  0.00    -0.190 NA
ATOM     20  C   UNL     1       4.458  -5.182   4.079  0.00  0.00    +0.202 A 
ATOM     21  N   UNL     1       4.060  -4.321   4.982  0.00  0.00    -0.056 NA
ATOM     22  O   UNL     1       3.746  -3.124   4.286  0.00  0.00    -0.336 OA
BRANCH  20  23
ATOM     23  C   UNL     1       4.896  -6.575   4.345  0.00  0.00    +0.023 A 
ATOM     24  C   UNL     1       5.303  -7.392   3.293  0.00  0.00    +0.014 A 
ATOM     25  C   UNL     1       5.710  -8.686   3.544  0.00  0.00    +0.039 A 
ATOM     26  C   UNL     1       5.713  -9.174   4.841  0.00  0.00    +0.123 A 
ATOM     27  C   UNL     1       5.308  -8.365   5.891  0.00  0.00    +0.039 A 
ATOM     28  C   UNL     1       4.905  -7.067   5.649  0.00  0.00    +0.014 A 
ATOM     29  F   UNL     1       6.112 -10.442   5.084  0.00  0.00    -0.205 F 
ENDBRANCH  20  23
ENDBRANCH  16  18
ENDBRANCH   5  16
TORSDOF 5
