REMARK  Name = ZINC41584177
REMARK  15 active torsions:
REMARK  status: ('A' for Active; 'I' for Inactive)
REMARK    1  A    between atoms: C_1  and  C_2
REMARK    2  A    between atoms: C_2  and  C_3
REMARK    3  A    between atoms: C_3  and  C_4
REMARK    4  A    between atoms: C_4  and  N_5
REMARK    5  A    between atoms: N_5  and  C_6
REMARK    6  A    between atoms: N_5  and  C_10
REMARK    7  A    between atoms: C_6  and  C_7
REMARK    8  A    between atoms: C_7  and  C_8
REMARK    9  A    between atoms: C_8  and  C_9
REMARK   10  A    between atoms: C_10  and  C_11
REMARK   11  A    between atoms: C_12  and  O_31
REMARK   12  A    between atoms: C_14  and  C_30
REMARK   13  A    between atoms: C_19  and  C_20
REMARK   14  A    between atoms: C_23  and  C_26
REMARK   15  A    between atoms: C_26  and  C_27
REMARK                            x       y       z     vdW  Elec       q    Type
REMARK                         _______ _______ _______ _____ _____    ______ ____
ROOT
ATOM      1  C   UNL     1      -2.020  -4.550   1.986  0.00  0.00    +0.020 A 
ATOM      2  C   UNL     1      -0.695  -4.951   2.048  0.00  0.00    +0.122 A 
ATOM      3  C   UNL     1      -0.118  -5.303   3.265  0.00  0.00    +0.050 A 
ATOM      4  C   UNL     1      -0.856  -5.256   4.414  0.00  0.00    -0.033 A 
ATOM      5  C   UNL     1      -2.191  -4.854   4.367  0.00  0.00    +0.071 A 
ATOM      6  C   UNL     1      -2.783  -4.492   3.146  0.00  0.00    +0.145 A 
ATOM      7  O   UNL     1      -4.070  -4.135   3.350  0.00  0.00    -0.451 OA
ATOM      8  C   UNL     1      -4.415  -4.223   4.656  0.00  0.00    +0.176 C 
ATOM      9  C   UNL     1      -5.630  -3.936   5.185  0.00  0.00    +0.058 C 
ATOM     10  C   UNL     1      -3.235  -4.700   5.396  0.00  0.00    +0.232 C 
ATOM     11  O   UNL     1      -3.138  -4.907   6.593  0.00  0.00    -0.283 OA
ATOM     12  C   UNL     1      -0.229  -5.639   5.730  0.00  0.00    +0.045 C 
ENDROOT
BRANCH   9  13
ATOM     13  C   UNL     1      -5.809  -3.910   6.644  0.00  0.00    -0.021 A 
ATOM     14  C   UNL     1      -4.811  -3.375   7.465  0.00  0.00    +0.008 A 
ATOM     15  C   UNL     1      -4.986  -3.354   8.832  0.00  0.00    +0.004 A 
ATOM     16  C   UNL     1      -6.147  -3.860   9.393  0.00  0.00    -0.048 A 
ATOM     17  C   UNL     1      -7.139  -4.390   8.587  0.00  0.00    +0.004 A 
ATOM     18  C   UNL     1      -6.982  -4.413   7.218  0.00  0.00    +0.008 A 
BRANCH  16  19
ATOM     19  C   UNL     1      -6.330  -3.833  10.889  0.00  0.00    +0.032 C 
ATOM     20  C   UNL     1      -7.007  -2.522  11.296  0.00  0.00    +0.009 C 
ENDBRANCH  16  19
ENDBRANCH   9  13
BRANCH   2  21
ATOM     21  O   UNL     1       0.047  -5.000   0.913  0.00  0.00    -0.506 OA
ATOM     22  H   UNL     1       0.510  -4.176   0.709  0.00  0.00    +0.292 HD
ENDBRANCH   2  21
BRANCH   1  23
ATOM     23  C   UNL     1      -2.631  -4.172   0.662  0.00  0.00    -0.036 C 
BRANCH  23  24
ATOM     24  N   UNL     1      -2.436  -2.736   0.424  0.00  0.00    +0.383 N 
ATOM     25  H   UNL     1      -2.808  -2.212   1.203  0.00  0.00    -0.081 HD
BRANCH  24  26
ATOM     26  C   UNL     1      -1.001  -2.453   0.285  0.00  0.00    -0.078 C 
BRANCH  26  27
ATOM     27  C   UNL     1      -0.790  -0.944   0.146  0.00  0.00    -0.019 C 
BRANCH  27  29
ATOM     28  C   UNL     1       0.921   0.871  -0.002  0.00  0.00    +0.004 C 
ATOM     29  C   UNL     1       0.709  -0.638   0.137  0.00  0.00    -0.005 C 
ENDBRANCH  27  29
ENDBRANCH  26  27
ENDBRANCH  24  26
BRANCH  24  30
ATOM     30  C   UNL     1      -3.134  -2.343  -0.807  0.00  0.00    -0.078 C 
BRANCH  30  31
ATOM     31  C   UNL     1      -4.644  -2.500  -0.609  0.00  0.00    -0.019 C 
BRANCH  31  32
ATOM     32  C   UNL     1      -5.377  -1.965  -1.841  0.00  0.00    -0.005 C 
ATOM     33  C   UNL     1      -6.886  -2.122  -1.643  0.00  0.00    +0.004 C 
ENDBRANCH  31  32
ENDBRANCH  30  31
ENDBRANCH  24  30
ENDBRANCH  23  24
ENDBRANCH   1  23
TORSDOF 11
