REMARK  Name = ZINC27551566
REMARK  6 active torsions:
REMARK  status: ('A' for Active; 'I' for Inactive)
REMARK    1  A    between atoms: C_1  and  C_2
REMARK    2  A    between atoms: C_6  and  C_8
REMARK    3  A    between atoms: C_8  and  N_9
REMARK    4  A    between atoms: C_10  and  C_34
REMARK    5  A    between atoms: C_11  and  C_18
REMARK    6  A    between atoms: C_28  and  C_30
REMARK                            x       y       z     vdW  Elec       q    Type
REMARK                         _______ _______ _______ _____ _____    ______ ____
ROOT
ATOM      1  N   UNL     1       1.436  -3.077   2.984  0.00  0.00    -0.339 N 
ATOM      2  C   UNL     1       2.142  -4.186   2.687  0.00  0.00    +0.024 A 
ATOM      3  C   UNL     1       3.447  -4.032   3.114  0.00  0.00    +0.004 A 
ATOM      4  C   UNL     1       3.522  -2.691   3.729  0.00  0.00    +0.007 A 
ATOM      5  C   UNL     1       2.236  -2.143   3.612  0.00  0.00    +0.050 A 
ATOM      6  C   UNL     1       1.993  -0.865   4.104  0.00  0.00    +0.026 A 
ATOM      7  C   UNL     1       3.012  -0.150   4.696  0.00  0.00    +0.002 A 
ATOM      8  C   UNL     1       4.283  -0.693   4.807  0.00  0.00    +0.001 A 
ATOM      9  C   UNL     1       4.541  -1.961   4.333  0.00  0.00    +0.010 A 
ATOM     10  C   UNL     1       1.593  -5.407   1.995  0.00  0.00    +0.064 C 
ENDROOT
BRANCH   3  11
ATOM     11  C   UNL     1       4.498  -4.968   2.988  0.00  0.00    +0.027 C 
ATOM     12  C   UNL     1       5.165  -5.415   4.114  0.00  0.00    +0.081 C 
ATOM     13  C   UNL     1       4.723  -5.042   5.486  0.00  0.00    +0.153 C 
ATOM     14  N   UNL     1       3.471  -4.852   5.810  0.00  0.00    -0.283 NA
ATOM     15  N   UNL     1       5.789  -4.914   6.402  0.00  0.00    -0.152 N 
ATOM     16  C   UNL     1       6.957  -5.588   6.117  0.00  0.00    +0.181 C 
ATOM     17  N   UNL     1       7.241  -6.270   5.036  0.00  0.00    -0.152 NA
ATOM     18  C   UNL     1       6.352  -6.296   4.020  0.00  0.00    +0.273 C 
ATOM     19  O   UNL     1       6.523  -7.019   3.051  0.00  0.00    -0.268 OA
ATOM     20  S   UNL     1       7.935  -5.263   7.560  0.00  0.00    -0.029 S 
ATOM     21  C   UNL     1       6.777  -4.182   8.389  0.00  0.00    +0.202 C 
ATOM     22  N   UNL     1       5.765  -4.181   7.569  0.00  0.00    -0.160 NA
ATOM     23  H   UNL     1       3.237  -4.610   6.720  0.00  0.00    +0.188 HD
BRANCH  21  24
ATOM     24  C   UNL     1       6.932  -3.457   9.701  0.00  0.00    +0.442 C 
ATOM     25  F   UNL     1       5.773  -2.721   9.967  0.00  0.00    -0.164 F 
ATOM     26  F   UNL     1       7.140  -4.387  10.726  0.00  0.00    -0.164 F 
ATOM     27  F   UNL     1       8.028  -2.591   9.628  0.00  0.00    -0.164 F 
ENDBRANCH  21  24
ENDBRANCH   3  11
BRANCH   1  28
ATOM     28  C   UNL     1       0.017  -2.887   2.677  0.00  0.00    +0.157 C 
BRANCH  28  34
ATOM     29  C   UNL     1      -0.305   1.171  -0.233  0.00  0.00    +0.044 C 
ATOM     30  C   UNL     1      -0.278  -0.328  -0.083  0.00  0.00    -0.050 A 
ATOM     31  C   UNL     1      -0.382  -1.137  -1.199  0.00  0.00    +0.003 A 
ATOM     32  C   UNL     1      -0.357  -2.512  -1.061  0.00  0.00    +0.001 A 
ATOM     33  C   UNL     1      -0.228  -3.078   0.194  0.00  0.00    +0.005 A 
ATOM     34  C   UNL     1      -0.124  -2.270   1.310  0.00  0.00    -0.028 A 
ATOM     35  C   UNL     1      -0.144  -0.894   1.171  0.00  0.00    +0.008 A 
ENDBRANCH  28  34
ENDBRANCH   1  28
TORSDOF 4
