REMARK  Name = ZINC39716841
REMARK  10 active torsions:
REMARK  status: ('A' for Active; 'I' for Inactive)
REMARK    1  A    between atoms: C_1  and  C_2
REMARK    2  A    between atoms: C_5  and  S_8
REMARK    3  A    between atoms: S_8  and  N_11
REMARK    4  A    between atoms: N_11  and  C_12
REMARK    5  A    between atoms: C_17  and  C_18
REMARK    6  A    between atoms: C_18  and  N_20
REMARK    7  A    between atoms: N_22  and  C_32
REMARK    8  A    between atoms: C_26  and  S_30
REMARK    9  A    between atoms: S_30  and  C_31
REMARK   10  A    between atoms: C_32  and  C_33
REMARK                            x       y       z     vdW  Elec       q    Type
REMARK                         _______ _______ _______ _____ _____    ______ ____
ROOT
ATOM      1  C   UNL     1       2.493  -4.625   1.006  0.00  0.00    +0.060 A 
ATOM      2  C   UNL     1       2.034  -4.641   2.317  0.00  0.00    +0.025 A 
ATOM      3  C   UNL     1       2.872  -4.268   3.348  0.00  0.00    +0.002 A 
ATOM      4  C   UNL     1       4.175  -3.875   3.085  0.00  0.00    +0.001 A 
ATOM      5  C   UNL     1       4.647  -3.853   1.790  0.00  0.00    +0.015 A 
ATOM      6  C   UNL     1       3.813  -4.233   0.738  0.00  0.00    +0.061 A 
ENDROOT
BRANCH   1   7
ATOM      7  N   UNL     1       1.651  -4.999  -0.034  0.00  0.00    -0.216 N 
ATOM      8  H   UNL     1       2.007  -5.479  -0.798  0.00  0.00    +0.174 HD
BRANCH   7   9
ATOM      9  S   UNL     1       0.038  -4.628   0.031  0.00  0.00    +0.072 S 
ATOM     10  O   UNL     1      -0.444  -5.128   1.271  0.00  0.00    -0.150 OA
ATOM     11  O   UNL     1      -0.519  -5.017  -1.216  0.00  0.00    -0.150 OA
BRANCH   9  16
ATOM     12  C   UNL     1      -0.400   1.384   0.312  0.00  0.00    +0.044 C 
ATOM     13  C   UNL     1      -0.290  -0.118   0.242  0.00  0.00    -0.050 A 
ATOM     14  C   UNL     1      -0.275  -0.753  -0.986  0.00  0.00    +0.005 A 
ATOM     15  C   UNL     1      -0.174  -2.130  -1.050  0.00  0.00    +0.029 A 
ATOM     16  C   UNL     1      -0.088  -2.872   0.113  0.00  0.00    +0.109 A 
ATOM     17  C   UNL     1      -0.102  -2.237   1.341  0.00  0.00    +0.029 A 
ATOM     18  C   UNL     1      -0.199  -0.859   1.405  0.00  0.00    +0.005 A 
ENDBRANCH   9  16
ENDBRANCH   7   9
ENDBRANCH   1   7
BRANCH   6  19
ATOM     19  C   UNL     1       4.316  -4.218  -0.652  0.00  0.00    +0.271 C 
ATOM     20  O   UNL     1       3.583  -4.546  -1.569  0.00  0.00    -0.268 OA
BRANCH  19  21
ATOM     21  N   UNL     1       5.575  -3.844  -0.903  0.00  0.00    -0.152 NA
ATOM     22  C   UNL     1       6.027  -3.830  -2.152  0.00  0.00    +0.167 A 
ATOM     23  N   UNL     1       7.265  -3.490  -2.608  0.00  0.00    -0.317 N 
ATOM     24  C   UNL     1       7.549  -3.540  -3.963  0.00  0.00    +0.058 A 
ATOM     25  C   UNL     1       8.765  -3.225  -4.595  0.00  0.00    +0.028 A 
ATOM     26  C   UNL     1       8.900  -3.321  -5.957  0.00  0.00    +0.017 A 
ATOM     27  C   UNL     1       7.840  -3.734  -6.759  0.00  0.00    +0.009 A 
ATOM     28  C   UNL     1       6.627  -4.052  -6.160  0.00  0.00    +0.032 A 
ATOM     29  C   UNL     1       6.498  -3.953  -4.795  0.00  0.00    +0.040 A 
ATOM     30  S   UNL     1       5.168  -4.260  -3.657  0.00  0.00    -0.052 S 
BRANCH  27  31
ATOM     31  S   UNL     1       8.033  -3.850  -8.507  0.00  0.00    -0.129 S 
ATOM     32  C   UNL     1       9.751  -3.343  -8.794  0.00  0.00    +0.090 C 
ENDBRANCH  27  31
BRANCH  23  33
ATOM     33  C   UNL     1       8.301  -3.070  -1.661  0.00  0.00    +0.151 C 
BRANCH  33  34
ATOM     34  C   UNL     1       9.078  -4.275  -1.198  0.00  0.00    -0.013 C 
ATOM     35  C   UNL     1      10.382  -4.303  -1.325  0.00  0.00    +0.005 C 
ENDBRANCH  33  34
ENDBRANCH  23  33
ENDBRANCH  19  21
ENDBRANCH   6  19
TORSDOF 8
