REMARK  Name = ZINC08766278
REMARK  7 active torsions:
REMARK  status: ('A' for Active; 'I' for Inactive)
REMARK    1  A    between atoms: C_1  and  C_2
REMARK    2  A    between atoms: N_13  and  C_16
REMARK    3  A    between atoms: C_16  and  C_17
REMARK    4  A    between atoms: N_19  and  N_20
REMARK    5  A    between atoms: C_21  and  C_22
REMARK    6  A    between atoms: N_24  and  C_31
REMARK    7  A    between atoms: C_31  and  C_32
REMARK                            x       y       z     vdW  Elec       q    Type
REMARK                         _______ _______ _______ _____ _____    ______ ____
ROOT
ATOM      1  C   UNL     1      -4.207   6.986   0.078  0.00  0.00    +0.252 C 
ATOM      2  O   UNL     1      -4.613   5.843   0.076  0.00  0.00    -0.272 OA
ATOM      3  N   UNL     1      -2.882   7.231   0.067  0.00  0.00    -0.206 N 
ATOM      4  H   UNL     1      -2.557   8.145   0.069  0.00  0.00    +0.177 HD
ENDROOT
BRANCH   3   5
ATOM      5  N   UNL     1      -1.973   6.164   0.053  0.00  0.00    -0.188 NA
ATOM      6  C   UNL     1      -0.695   6.400   0.043  0.00  0.00    +0.140 C 
BRANCH   6   7
ATOM      7  C   UNL     1       0.259   5.280   0.028  0.00  0.00    +0.020 A 
ATOM      8  C   UNL     1       1.617   5.368   0.015  0.00  0.00    +0.096 A 
ATOM      9  N   UNL     1       2.159   4.118   0.004  0.00  0.00    -0.342 N 
ATOM     10  C   UNL     1       1.162   3.165   0.008  0.00  0.00    +0.050 A 
ATOM     11  C   UNL     1      -0.068   3.843   0.023  0.00  0.00    +0.009 A 
ATOM     12  C   UNL     1      -1.261   3.123   0.031  0.00  0.00    +0.010 A 
ATOM     13  C   UNL     1      -1.227   1.746   0.017  0.00  0.00    +0.001 A 
ATOM     14  C   UNL     1      -0.013   1.076   0.008  0.00  0.00    +0.002 A 
ATOM     15  C   UNL     1       1.175   1.774   0.000  0.00  0.00    +0.026 A 
BRANCH   9  16
ATOM     16  C   UNL     1       3.595   3.828  -0.011  0.00  0.00    +0.157 C 
BRANCH  16  17
ATOM     17  C   UNL     1       4.049   3.614  -1.432  0.00  0.00    -0.028 A 
ATOM     18  C   UNL     1       4.028   2.346  -1.981  0.00  0.00    +0.005 A 
ATOM     19  C   UNL     1       4.440   2.151  -3.286  0.00  0.00    +0.000 A 
ATOM     20  C   UNL     1       4.884   3.222  -4.038  0.00  0.00    +0.000 A 
ATOM     21  C   UNL     1       4.911   4.490  -3.487  0.00  0.00    +0.000 A 
ATOM     22  C   UNL     1       4.493   4.686  -2.184  0.00  0.00    +0.005 A 
ENDBRANCH  16  17
ENDBRANCH   9  16
ENDBRANCH   6   7
ENDBRANCH   3   5
BRANCH   1  23
ATOM     23  C   UNL     1      -5.184   8.133   0.093  0.00  0.00    +0.223 C 
BRANCH  23  35
ATOM     24  C   UNL     1     -12.036   5.368   5.602  0.00  0.00    +0.008 C 
ATOM     25  C   UNL     1     -10.961   5.480   4.519  0.00  0.00    -0.009 C 
ATOM     26  C   UNL     1     -10.089   6.710   4.786  0.00  0.00    +0.008 C 
ATOM     27  C   UNL     1      -8.868   6.691   3.866  0.00  0.00    +0.037 C 
ATOM     28  C   UNL     1      -9.341   6.520   2.425  0.00  0.00    -0.023 A 
ATOM     29  C   UNL     1     -10.577   6.048   2.156  0.00  0.00    -0.004 A 
ATOM     30  S   UNL     1     -10.684   6.021   0.387  0.00  0.00    -0.073 S 
ATOM     31  C   UNL     1      -9.066   6.646   0.013  0.00  0.00    +0.116 A 
ATOM     32  C   UNL     1      -8.496   6.853   1.279  0.00  0.00    +0.076 A 
ATOM     33  C   UNL     1      -7.157   7.366   1.281  0.00  0.00    +0.263 A 
ATOM     34  O   UNL     1      -6.577   7.580   2.331  0.00  0.00    -0.267 OA
ATOM     35  N   UNL     1      -6.552   7.609   0.103  0.00  0.00    -0.290 N 
ATOM     36  C   UNL     1      -7.186   7.382  -1.076  0.00  0.00    +0.203 A 
ATOM     37  N   UNL     1      -8.404   6.910  -1.110  0.00  0.00    -0.230 NA
ATOM     38  C   UNL     1     -11.626   5.636   3.144  0.00  0.00    +0.046 C 
ENDBRANCH  23  35
ENDBRANCH   1  23
TORSDOF 6
