REMARK  Name = ZINC16692165
REMARK  10 active torsions:
REMARK  status: ('A' for Active; 'I' for Inactive)
REMARK    1  A    between atoms: C_1  and  C_2
REMARK    2  A    between atoms: C_2  and  O_3
REMARK    3  A    between atoms: O_3  and  C_4
REMARK    4  A    between atoms: C_7  and  C_11
REMARK    5  A    between atoms: C_15  and  C_19
REMARK    6  A    between atoms: C_15  and  C_20
REMARK    7  A    between atoms: N_21  and  C_31
REMARK    8  A    between atoms: C_27  and  C_29
REMARK    9  A    between atoms: C_27  and  C_30
REMARK   10  A    between atoms: C_31  and  C_32
REMARK                            x       y       z     vdW  Elec       q    Type
REMARK                         _______ _______ _______ _____ _____    ______ ____
ROOT
ATOM      1  C   UNL     1       1.070  -6.033  -1.865  0.00  0.00    +0.089 C 
ATOM      2  C   UNL     1       0.236  -6.308  -3.089  0.00  0.00    +0.024 C 
ATOM      3  C   UNL     1       0.825  -6.559  -4.277  0.00  0.00    +0.019 C 
ATOM      4  C   UNL     1       0.003  -6.825  -5.513  0.00  0.00    +0.058 C 
ATOM      5  C   UNL     1      -1.313  -7.499  -5.117  0.00  0.00    -0.023 C 
ATOM      6  C   UNL     1      -2.055  -6.582  -4.140  0.00  0.00    +0.086 C 
ATOM      7  C   UNL     1      -1.165  -6.299  -2.961  0.00  0.00    +0.162 C 
ATOM      8  O   UNL     1      -1.664  -6.059  -1.879  0.00  0.00    -0.292 OA
ATOM      9  C   UNL     1      -2.171  -7.723  -6.365  0.00  0.00    +0.011 C 
ATOM     10  C   UNL     1      -1.021  -8.841  -4.443  0.00  0.00    +0.011 C 
ATOM     11  N   UNL     1       2.189  -6.577  -4.377  0.00  0.00    -0.295 N 
ATOM     12  C   UNL     1       2.970  -6.780  -3.273  0.00  0.00    +0.019 C 
ATOM     13  C   UNL     1       2.477  -6.541  -2.039  0.00  0.00    +0.024 C 
ATOM     14  C   UNL     1       3.257  -6.761  -0.890  0.00  0.00    +0.162 C 
ATOM     15  O   UNL     1       2.785  -6.529   0.205  0.00  0.00    -0.292 OA
ATOM     16  C   UNL     1       4.666  -7.279  -0.993  0.00  0.00    +0.086 C 
ATOM     17  C   UNL     1       4.795  -8.127  -2.263  0.00  0.00    -0.023 C 
ATOM     18  C   UNL     1       4.384  -7.270  -3.463  0.00  0.00    +0.058 C 
ATOM     19  C   UNL     1       3.877  -9.346  -2.162  0.00  0.00    +0.011 C 
ATOM     20  C   UNL     1       6.246  -8.583  -2.430  0.00  0.00    +0.011 C 
ENDROOT
BRANCH   1  24
ATOM     21  C   UNL     1       1.178  -1.819  -1.160  0.00  0.00    +0.134 A 
ATOM     22  C   UNL     1       0.644  -2.671  -0.204  0.00  0.00    +0.047 A 
ATOM     23  C   UNL     1       0.610  -4.032  -0.434  0.00  0.00    +0.008 A 
ATOM     24  C   UNL     1       1.108  -4.548  -1.617  0.00  0.00    -0.034 A 
ATOM     25  C   UNL     1       1.641  -3.702  -2.572  0.00  0.00    +0.023 A 
ATOM     26  C   UNL     1       1.672  -2.338  -2.349  0.00  0.00    +0.060 A 
ATOM     27 BR   UNL     1       2.394  -1.181  -3.659  0.00  0.00    -0.047 Br
BRANCH  21  28
ATOM     28  O   UNL     1       1.213  -0.479  -0.935  0.00  0.00    -0.491 OA
BRANCH  28  30
ATOM     29  C   UNL     1       0.811   1.507   0.382  0.00  0.00    +0.048 C 
ATOM     30  C   UNL     1       0.687  -0.016   0.310  0.00  0.00    +0.226 C 
ENDBRANCH  28  30
ENDBRANCH  21  28
ENDBRANCH   1  24
BRANCH  11  31
ATOM     31  C   UNL     1       2.821  -6.377  -5.683  0.00  0.00    +0.235 C 
BRANCH  31  32
ATOM     32  C   UNL     1       3.019  -7.712  -6.356  0.00  0.00    +0.373 C 
ATOM     33  O   UNL     1       2.618  -8.730  -5.819  0.00  0.00    -0.245 OA
ATOM     34  O   UNL     1       3.579  -7.772  -7.437  0.00  0.00    -0.245 OA
ENDBRANCH  31  32
ENDBRANCH  11  31
TORSDOF 5
