REMARK  Name = ZINC22418236
REMARK  9 active torsions:
REMARK  status: ('A' for Active; 'I' for Inactive)
REMARK    1  A    between atoms: C_1  and  N_2
REMARK    2  A    between atoms: N_2  and  C_3
REMARK    3  A    between atoms: N_2  and  C_4
REMARK    4  A    between atoms: C_7  and  C_10
REMARK    5  A    between atoms: C_10  and  C_12
REMARK    6  A    between atoms: C_10  and  N_26
REMARK    7  A    between atoms: C_12  and  N_13
REMARK    8  A    between atoms: C_14  and  C_16
REMARK    9  A    between atoms: C_19  and  N_23
REMARK                            x       y       z     vdW  Elec       q    Type
REMARK                         _______ _______ _______ _____ _____    ______ ____
ROOT
ATOM      1  C   UNL     1       3.530  -2.491  -0.047  0.00  0.00    -0.020 C 
ENDROOT
BRANCH   1   2
ATOM      2  N   UNL     1       2.484  -3.342  -0.631  0.00  0.00    +0.388 N 
ATOM      3  C   UNL     1       2.842  -4.765  -0.524  0.00  0.00    -0.073 C 
ATOM      4  C   UNL     1       1.592  -5.602  -0.799  0.00  0.00    +0.017 C 
ATOM      5  C   UNL     1       0.939  -5.146  -2.079  0.00  0.00    -0.048 A 
ATOM      6  C   UNL     1       0.015  -5.983  -2.685  0.00  0.00    +0.004 A 
ATOM      7  C   UNL     1      -0.613  -5.600  -3.853  0.00  0.00    +0.000 A 
ATOM      8  C   UNL     1      -0.318  -4.375  -4.422  0.00  0.00    +0.000 A 
ATOM      9  C   UNL     1       0.603  -3.542  -3.821  0.00  0.00    +0.002 A 
ATOM     10  C   UNL     1       1.235  -3.925  -2.647  0.00  0.00    -0.061 A 
ATOM     11  C   UNL     1       2.236  -2.983  -2.031  0.00  0.00    -0.042 C 
ATOM     12  H   UNL     1       1.558  -3.170  -0.062  0.00  0.00    -0.080 HD
ENDBRANCH   1   2
BRANCH   1  16
ATOM     13  C   UNL     1       7.140  -2.928  -2.292  0.00  0.00    +0.029 A 
ATOM     14  C   UNL     1       7.012  -3.544  -1.054  0.00  0.00    +0.023 A 
ATOM     15  C   UNL     1       5.844  -3.401  -0.331  0.00  0.00    +0.004 A 
ATOM     16  C   UNL     1       4.803  -2.645  -0.839  0.00  0.00    -0.059 A 
ATOM     17  C   UNL     1       4.925  -2.035  -2.074  0.00  0.00    +0.004 A 
ATOM     18  C   UNL     1       6.093  -2.170  -2.799  0.00  0.00    +0.023 A 
BRANCH  13  20
ATOM     19  C   UNL     1       9.424  -3.872  -2.490  0.00  0.00    +0.129 C 
ATOM     20  N   UNL     1       8.320  -3.071  -3.026  0.00  0.00    -0.336 N 
ATOM     21  C   UNL     1       8.454  -2.421  -4.332  0.00  0.00    +0.129 C 
ENDBRANCH  13  20
ENDBRANCH   1  16
BRANCH   1  22
ATOM     22  C   UNL     1       3.079  -1.030  -0.086  0.00  0.00    +0.094 C 
BRANCH  22  23
ATOM     23  N   UNL     1       1.781  -0.901   0.582  0.00  0.00    -0.313 N 
ATOM     24  C   UNL     1       1.185   0.304   0.669  0.00  0.00    +0.245 C 
ATOM     25  O   UNL     1       1.724   1.285   0.195  0.00  0.00    -0.270 OA
ATOM     26  H   UNL     1       1.294  -1.788   1.011  0.00  0.00    +0.149 HD
BRANCH  24  27
ATOM     27  C   UNL     1      -0.124   0.434   1.343  0.00  0.00    +0.055 A 
ATOM     28  C   UNL     1      -0.746  -0.690   1.889  0.00  0.00    +0.017 A 
ATOM     29  C   UNL     1      -1.970  -0.563   2.510  0.00  0.00    +0.033 A 
ATOM     30  C   UNL     1      -2.579   0.677   2.604  0.00  0.00    +0.128 A 
ATOM     31  C   UNL     1      -1.969   1.795   2.066  0.00  0.00    +0.053 A 
ATOM     32  C   UNL     1      -0.745   1.682   1.435  0.00  0.00    +0.055 A 
ATOM     33 CL   UNL     1       0.019   3.087   0.759  0.00  0.00    -0.083 Cl
BRANCH  30  34
ATOM     34  N   UNL     1      -3.890   0.805   3.277  0.00  0.00    +0.056 N 
ATOM     35  O   UNL     1      -4.430   1.894   3.356  0.00  0.00    -0.126 OA
ATOM     36  O   UNL     1      -4.430  -0.178   3.752  0.00  0.00    -0.126 OA
ENDBRANCH  30  34
ENDBRANCH  24  27
ENDBRANCH  22  23
ENDBRANCH   1  22
TORSDOF 7
