REMARK  Name = ZINC39970682
REMARK  8 active torsions:
REMARK  status: ('A' for Active; 'I' for Inactive)
REMARK    1  A    between atoms: C_1  and  C_2
REMARK    2  A    between atoms: C_7  and  C_33
REMARK    3  A    between atoms: N_9  and  S_10
REMARK    4  A    between atoms: S_10  and  C_13
REMARK    5  A    between atoms: C_16  and  N_19
REMARK    6  A    between atoms: N_19  and  C_20
REMARK    7  A    between atoms: C_20  and  N_22
REMARK    8  A    between atoms: C_30  and  C_32
REMARK                            x       y       z     vdW  Elec       q    Type
REMARK                         _______ _______ _______ _____ _____    ______ ____
ROOT
ATOM      1  C   UNL     1      -0.657  -3.020   0.727  0.00  0.00    +0.106 A 
ATOM      2  C   UNL     1      -1.417  -3.236  -0.408  0.00  0.00    +0.030 A 
ATOM      3  C   UNL     1      -1.337  -4.443  -1.074  0.00  0.00    +0.025 A 
ATOM      4  C   UNL     1      -0.493  -5.440  -0.603  0.00  0.00    +0.033 A 
ATOM      5  C   UNL     1       0.269  -5.220   0.537  0.00  0.00    +0.025 A 
ATOM      6  C   UNL     1       0.188  -4.008   1.196  0.00  0.00    +0.030 A 
ENDROOT
BRANCH   1   7
ATOM      7  S   UNL     1      -0.762  -1.478   1.575  0.00  0.00    +0.061 S 
ATOM      8  O   UNL     1      -0.508  -1.750   2.946  0.00  0.00    -0.153 OA
ATOM      9  O   UNL     1      -1.958  -0.852   1.132  0.00  0.00    -0.153 OA
BRANCH   7  16
ATOM     10  C   UNL     1       2.890  -1.037   1.103  0.00  0.00    +0.026 C 
ATOM     11  C   UNL     1       1.714  -0.392   1.839  0.00  0.00    +0.077 C 
ATOM     12  C   UNL     1       1.994   1.099   2.048  0.00  0.00    +0.020 C 
ATOM     13  C   UNL     1       2.050   1.799   0.688  0.00  0.00    +0.003 C 
ATOM     14  C   UNL     1       0.700   1.656  -0.017  0.00  0.00    +0.020 C 
ATOM     15  C   UNL     1       0.404   0.171  -0.249  0.00  0.00    +0.077 C 
ATOM     16  N   UNL     1       0.491  -0.538   1.038  0.00  0.00    -0.171 NA
ATOM     17  C   UNL     1      -1.002   0.012  -0.830  0.00  0.00    +0.026 C 
ENDBRANCH   7  16
ENDBRANCH   1   7
BRANCH   4  18
ATOM     18  N   UNL     1      -0.411  -6.664  -1.275  0.00  0.00    -0.296 N 
ATOM     19  H   UNL     1      -0.986  -6.840  -2.036  0.00  0.00    +0.154 HD
BRANCH  18  20
ATOM     20  C   UNL     1       0.469  -7.600  -0.865  0.00  0.00    +0.142 C 
ATOM     21  S   UNL     1       1.939  -7.822  -1.713  0.00  0.00    -0.018 S 
BRANCH  20  22
ATOM     22  N   UNL     1       0.190  -8.361   0.212  0.00  0.00    -0.279 N 
ATOM     23  C   UNL     1       1.060  -9.297   0.778  0.00  0.00    +0.039 A 
ATOM     24  C   UNL     1       2.353  -9.652   0.389  0.00  0.00    +0.024 A 
ATOM     25  C   UNL     1       3.051 -10.612   1.090  0.00  0.00    +0.002 A 
ATOM     26  C   UNL     1       2.475 -11.232   2.184  0.00  0.00    +0.000 A 
ATOM     27  C   UNL     1       1.195 -10.885   2.576  0.00  0.00    +0.005 A 
ATOM     28  C   UNL     1       0.492  -9.923   1.876  0.00  0.00    -0.024 A 
ATOM     29  C   UNL     1      -0.898  -9.364   2.083  0.00  0.00    +0.059 C 
ATOM     30  C   UNL     1      -1.067  -8.323   0.964  0.00  0.00    +0.082 C 
ATOM     31  C   UNL     1      -2.239  -8.707   0.059  0.00  0.00    +0.029 C 
ENDBRANCH  20  22
ENDBRANCH  18  20
ENDBRANCH   4  18
TORSDOF 5
