REMARK  Name = ZINC28293706
REMARK  7 active torsions:
REMARK  status: ('A' for Active; 'I' for Inactive)
REMARK    1  A    between atoms: C_1  and  C_2
REMARK    2  A    between atoms: C_2  and  N_3
REMARK    3  A    between atoms: N_6  and  C_9
REMARK    4  A    between atoms: C_9  and  C_15
REMARK    5  A    between atoms: C_15  and  N_16
REMARK    6  A    between atoms: C_17  and  C_19
REMARK    7  A    between atoms: C_20  and  C_29
REMARK                            x       y       z     vdW  Elec       q    Type
REMARK                         _______ _______ _______ _____ _____    ______ ____
ROOT
ATOM      1  C   UNL     1       4.581   8.828  -0.105  0.00  0.00    +0.092 C 
ENDROOT
BRANCH   1   2
ATOM      2  C   UNL     1       5.987   8.268   0.115  0.00  0.00    -0.050 C 
ATOM      3  C   UNL     1       5.975   7.314   1.312  0.00  0.00    -0.010 C 
ATOM      4  C   UNL     1       5.526   8.072   2.563  0.00  0.00    -0.001 C 
ATOM      5  C   UNL     1       6.496   9.222   2.838  0.00  0.00    -0.000 C 
ATOM      6  C   UNL     1       6.508  10.176   1.641  0.00  0.00    -0.001 C 
ATOM      7  C   UNL     1       6.957   9.419   0.390  0.00  0.00    -0.010 C 
BRANCH   2  11
ATOM      8  N   UNL     1       6.100   6.450  -3.697  0.00  0.00    -0.306 NA
ATOM      9  C   UNL     1       6.121   5.576  -2.516  0.00  0.00    +0.066 C 
ATOM     10  C   UNL     1       5.591   6.346  -1.304  0.00  0.00    -0.062 C 
ATOM     11  N   UNL     1       6.418   7.540  -1.086  0.00  0.00    +0.386 N 
ATOM     12  C   UNL     1       6.398   8.415  -2.267  0.00  0.00    -0.062 C 
ATOM     13  C   UNL     1       6.928   7.644  -3.479  0.00  0.00    +0.066 C 
ATOM     14  H   UNL     1       7.455   7.210  -0.926  0.00  0.00    -0.081 HD
BRANCH   8  16
ATOM     15  C   UNL     1       6.262   6.579  -6.137  0.00  0.00    +0.020 C 
ATOM     16  C   UNL     1       6.531   5.723  -4.898  0.00  0.00    +0.081 C 
ENDBRANCH   8  16
ENDBRANCH   2  11
ENDBRANCH   1   2
BRANCH   1  17
ATOM     17  N   UNL     1       3.622   7.723  -0.184  0.00  0.00    -0.310 N 
ATOM     18  C   UNL     1       2.338   7.967  -0.515  0.00  0.00    +0.280 C 
ATOM     19  O   UNL     1       1.976   9.105  -0.749  0.00  0.00    -0.267 OA
ATOM     20  H   UNL     1       3.950   6.694   0.027  0.00  0.00    +0.149 HD
BRANCH  18  21
ATOM     21  C   UNL     1       1.377   6.859  -0.594  0.00  0.00    +0.193 A 
ATOM     22  C   UNL     1       0.063   6.985  -0.917  0.00  0.00    +0.008 A 
ATOM     23  C   UNL     1      -0.497   5.635  -0.871  0.00  0.00    +0.024 A 
ATOM     24  C   UNL     1      -1.768   5.100  -1.097  0.00  0.00    +0.013 A 
ATOM     25  C   UNL     1      -1.968   3.755  -0.974  0.00  0.00    +0.016 A 
ATOM     26  C   UNL     1      -0.919   2.917  -0.614  0.00  0.00    +0.021 A 
ATOM     27  C   UNL     1       0.342   3.426  -0.386  0.00  0.00    +0.062 A 
ATOM     28  C   UNL     1       0.571   4.791  -0.512  0.00  0.00    +0.137 A 
ATOM     29  O   UNL     1       1.665   5.562  -0.358  0.00  0.00    -0.450 OA
ATOM     30 BR   UNL     1      -1.223   1.059  -0.442  0.00  0.00    -0.050 Br
ATOM     31  C   UNL     1      -0.668   8.259  -1.254  0.00  0.00    +0.048 C 
ENDBRANCH  18  21
ENDBRANCH   1  17
TORSDOF 5
