REMARK  Name = ZINC40344093
REMARK  12 active torsions:
REMARK  status: ('A' for Active; 'I' for Inactive)
REMARK    1  A    between atoms: C_1  and  O_2
REMARK    2  A    between atoms: O_2  and  C_3
REMARK    3  A    between atoms: C_6  and  C_9
REMARK    4  A    between atoms: N_17  and  C_27
REMARK    5  A    between atoms: C_18  and  C_20
REMARK    6  A    between atoms: C_23  and  O_26
REMARK    7  A    between atoms: C_27  and  C_28
REMARK    8  A    between atoms: C_28  and  C_29
REMARK    9  A    between atoms: C_32  and  O_37
REMARK   10  A    between atoms: C_33  and  O_35
REMARK   11  A    between atoms: O_35  and  C_36
REMARK   12  A    between atoms: O_37  and  C_38
REMARK                            x       y       z     vdW  Elec       q    Type
REMARK                         _______ _______ _______ _____ _____    ______ ____
ROOT
ATOM      1  C   UNL     1       2.578  -2.541   4.295  0.00  0.00    +0.099 A 
ATOM      2  C   UNL     1       2.206  -3.754   4.885  0.00  0.00    +0.035 A 
ATOM      3  C   UNL     1       3.123  -3.980   5.894  0.00  0.00    +0.126 A 
ATOM      4  N   UNL     1       3.985  -2.920   5.867  0.00  0.00    -0.272 N 
ATOM      5  H   UNL     1       4.740  -2.801   6.464  0.00  0.00    +0.189 HD
ATOM      6  N   UNL     1       3.650  -2.107   4.930  0.00  0.00    -0.173 NA
ATOM      7  C   UNL     1       2.787  -5.245   6.556  0.00  0.00    +0.265 C 
ATOM      8  O   UNL     1       3.403  -5.726   7.487  0.00  0.00    -0.268 OA
ATOM      9  N   UNL     1       1.700  -5.796   5.987  0.00  0.00    -0.285 N 
ATOM     10  C   UNL     1       1.249  -4.915   4.903  0.00  0.00    +0.141 C 
ENDROOT
BRANCH   1  14
ATOM     11  C   UNL     1       0.626  -0.618   1.041  0.00  0.00    +0.120 A 
ATOM     12  C   UNL     1       1.202   0.141   2.050  0.00  0.00    +0.046 A 
ATOM     13  C   UNL     1       1.835  -0.479   3.107  0.00  0.00    +0.013 A 
ATOM     14  C   UNL     1       1.897  -1.870   3.160  0.00  0.00    +0.003 A 
ATOM     15  C   UNL     1       1.317  -2.630   2.146  0.00  0.00    +0.013 A 
ATOM     16  C   UNL     1       0.681  -2.004   1.095  0.00  0.00    +0.046 A 
BRANCH  11  18
ATOM     17  C   UNL     1      -0.017   1.425   0.010  0.00  0.00    +0.277 C 
ATOM     18  O   UNL     1       0.002  -0.004   0.002  0.00  0.00    -0.495 OA
ENDBRANCH  11  18
ENDBRANCH   1  14
BRANCH  10  19
ATOM     19  C   UNL     1       1.298  -5.646   3.586  0.00  0.00    -0.022 A 
ATOM     20  C   UNL     1       2.331  -6.527   3.324  0.00  0.00    +0.009 A 
ATOM     21  C   UNL     1       2.377  -7.199   2.117  0.00  0.00    +0.046 A 
ATOM     22  C   UNL     1       1.387  -6.989   1.169  0.00  0.00    +0.117 A 
ATOM     23  C   UNL     1       0.351  -6.106   1.435  0.00  0.00    +0.046 A 
ATOM     24  C   UNL     1       0.306  -5.440   2.645  0.00  0.00    +0.009 A 
BRANCH  22  25
ATOM     25  O   UNL     1       1.431  -7.649  -0.018  0.00  0.00    -0.507 OA
ATOM     26  H   UNL     1       0.970  -8.499  -0.013  0.00  0.00    +0.292 HD
ENDBRANCH  22  25
ENDBRANCH  10  19
BRANCH   9  27
ATOM     27  C   UNL     1       1.072  -7.060   6.383  0.00  0.00    +0.114 C 
BRANCH  27  28
ATOM     28  C   UNL     1       0.007  -6.789   7.448  0.00  0.00    +0.054 C 
BRANCH  28  29
ATOM     29  C   UNL     1      -0.638  -8.089   7.854  0.00  0.00    -0.042 A 
ATOM     30  C   UNL     1      -1.754  -8.546   7.178  0.00  0.00    +0.007 A 
ATOM     31  C   UNL     1      -2.350  -9.737   7.547  0.00  0.00    +0.049 A 
ATOM     32  C   UNL     1      -1.829 -10.476   8.597  0.00  0.00    +0.161 A 
ATOM     33  C   UNL     1      -0.705 -10.017   9.278  0.00  0.00    +0.162 A 
ATOM     34  C   UNL     1      -0.110  -8.824   8.899  0.00  0.00    +0.053 A 
BRANCH  33  35
ATOM     35  O   UNL     1      -0.190 -10.738  10.309  0.00  0.00    -0.491 OA
ATOM     36  C   UNL     1       0.964 -10.205  10.961  0.00  0.00    +0.277 C 
ENDBRANCH  33  35
BRANCH  32  37
ATOM     37  O   UNL     1      -2.414 -11.649   8.962  0.00  0.00    -0.491 OA
ATOM     38  C   UNL     1      -3.564 -12.059   8.219  0.00  0.00    +0.277 C 
ENDBRANCH  32  37
ENDBRANCH  28  29
ENDBRANCH  27  28
ENDBRANCH   9  27
TORSDOF 9
