REMARK  Name = ZINC22418021
REMARK  10 active torsions:
REMARK  status: ('A' for Active; 'I' for Inactive)
REMARK    1  A    between atoms: C_1  and  C_2
REMARK    2  A    between atoms: C_3  and  C_11
REMARK    3  A    between atoms: C_7  and  N_8
REMARK    4  A    between atoms: N_13  and  C_14
REMARK    5  A    between atoms: C_14  and  C_15
REMARK    6  A    between atoms: C_15  and  C_17
REMARK    7  A    between atoms: C_15  and  N_26
REMARK    8  A    between atoms: C_20  and  N_23
REMARK    9  A    between atoms: N_23  and  C_24
REMARK   10  A    between atoms: N_23  and  C_25
REMARK                            x       y       z     vdW  Elec       q    Type
REMARK                         _______ _______ _______ _____ _____    ______ ____
ROOT
ATOM      1  C   UNL     1       1.799  -3.490   0.580  0.00  0.00    +0.121 C 
ENDROOT
BRANCH   1   2
ATOM      2  N   UNL     1       0.688  -3.266  -0.355  0.00  0.00    -0.321 N 
ATOM      3  C   UNL     1       0.484  -1.821  -0.599  0.00  0.00    +0.110 C 
ATOM      4  C   UNL     1      -0.049  -1.796  -2.050  0.00  0.00    +0.056 C 
ATOM      5  C   UNL     1       0.517  -3.073  -2.639  0.00  0.00    -0.025 A 
ATOM      6  C   UNL     1       0.938  -3.879  -1.589  0.00  0.00    +0.033 A 
ATOM      7  C   UNL     1       1.515  -5.116  -1.873  0.00  0.00    +0.023 A 
ATOM      8  C   UNL     1       1.659  -5.530  -3.181  0.00  0.00    +0.002 A 
ATOM      9  C   UNL     1       1.232  -4.722  -4.219  0.00  0.00    +0.000 A 
ATOM     10  C   UNL     1       0.661  -3.493  -3.945  0.00  0.00    +0.005 A 
ENDBRANCH   1   2
BRANCH   1  11
ATOM     11  C   UNL     1       1.792  -4.927   1.032  0.00  0.00    -0.025 A 
ATOM     12  C   UNL     1       0.591  -5.571   1.267  0.00  0.00    +0.007 A 
ATOM     13  C   UNL     1       0.581  -6.890   1.677  0.00  0.00    +0.023 A 
ATOM     14  C   UNL     1       1.780  -7.566   1.864  0.00  0.00    +0.029 A 
ATOM     15  C   UNL     1       2.985  -6.915   1.633  0.00  0.00    +0.023 A 
ATOM     16  C   UNL     1       2.987  -5.598   1.218  0.00  0.00    +0.007 A 
BRANCH  14  17
ATOM     17  N   UNL     1       1.773  -8.898   2.284  0.00  0.00    -0.336 N 
ATOM     18  C   UNL     1       3.038  -9.610   2.482  0.00  0.00    +0.129 C 
ATOM     19  C   UNL     1       0.501  -9.584   2.527  0.00  0.00    +0.129 C 
ENDBRANCH  14  17
ENDBRANCH   1  11
BRANCH   1  20
ATOM     20  C   UNL     1       1.638  -2.572   1.793  0.00  0.00    +0.131 C 
BRANCH  20  23
ATOM     21  C   UNL     1       2.903  -1.968   3.786  0.00  0.00    +0.244 C 
ATOM     22  O   UNL     1       2.025  -1.179   4.071  0.00  0.00    -0.270 OA
ATOM     23  N   UNL     1       2.780  -2.748   2.693  0.00  0.00    -0.309 N 
ATOM     24  H   UNL     1       3.538  -3.516   2.477  0.00  0.00    +0.149 HD
BRANCH  21  27
ATOM     25  C   UNL     1       3.128  -0.324   6.156  0.00  0.00    +0.047 C 
ATOM     26  C   UNL     1       4.227  -1.286   5.783  0.00  0.00    -0.008 A 
ATOM     27  C   UNL     1       4.107  -2.074   4.637  0.00  0.00    +0.042 A 
ATOM     28  C   UNL     1       5.132  -2.958   4.296  0.00  0.00    +0.013 A 
ATOM     29  C   UNL     1       6.253  -3.051   5.095  0.00  0.00    +0.003 A 
ATOM     30  C   UNL     1       6.362  -2.272   6.232  0.00  0.00    +0.033 A 
ATOM     31  C   UNL     1       5.350  -1.393   6.576  0.00  0.00    +0.130 A 
BRANCH  31  32
ATOM     32  N   UNL     1       5.476  -0.562   7.795  0.00  0.00    +0.057 N 
ATOM     33  O   UNL     1       6.515  -0.567   8.431  0.00  0.00    -0.126 OA
ATOM     34  O   UNL     1       4.540   0.126   8.162  0.00  0.00    -0.126 OA
ENDBRANCH  31  32
ENDBRANCH  21  27
ENDBRANCH  20  23
ENDBRANCH   1  20
TORSDOF 7
