REMARK  Name = ZINC17665842
REMARK  9 active torsions:
REMARK  status: ('A' for Active; 'I' for Inactive)
REMARK    1  A    between atoms: C_1  and  C_2
REMARK    2  A    between atoms: C_2  and  N_3
REMARK    3  A    between atoms: C_4  and  C_6
REMARK    4  A    between atoms: C_6  and  C_8
REMARK    5  A    between atoms: C_6  and  S_9
REMARK    6  A    between atoms: S_9  and  C_10
REMARK    7  A    between atoms: N_23  and  C_24
REMARK    8  A    between atoms: C_27  and  C_31
REMARK    9  A    between atoms: C_28  and  C_30
REMARK                            x       y       z     vdW  Elec       q    Type
REMARK                         _______ _______ _______ _____ _____    ______ ____
ROOT
ATOM      1  C   UNL     1       0.177   4.018   0.706  0.00  0.00    +0.178 A 
ATOM      2  N   UNL     1       1.236   3.233   0.711  0.00  0.00    -0.215 NA
ATOM      3  C   UNL     1       1.227   2.076   0.060  0.00  0.00    +0.117 A 
ATOM      4  C   UNL     1       0.105   1.631  -0.659  0.00  0.00    +0.076 A 
ATOM      5  C   UNL     1       0.246   0.334  -1.325  0.00  0.00    -0.023 A 
ATOM      6  C   UNL     1       1.427  -0.301  -1.184  0.00  0.00    -0.004 A 
ATOM      7  S   UNL     1       2.410   0.773  -0.172  0.00  0.00    -0.073 S 
ATOM      8  C   UNL     1       1.819  -1.627  -1.761  0.00  0.00    +0.043 C 
ATOM      9  C   UNL     1       0.547  -2.343  -2.238  0.00  0.00    +0.005 C 
ATOM     10  C   UNL     1      -0.290  -1.360  -3.061  0.00  0.00    +0.005 C 
ATOM     11  C   UNL     1      -0.881  -0.287  -2.145  0.00  0.00    +0.037 C 
ATOM     12  C   UNL     1      -1.027   2.505  -0.652  0.00  0.00    +0.268 A 
ATOM     13  O   UNL     1      -2.044   2.203  -1.254  0.00  0.00    -0.267 OA
ATOM     14  N   UNL     1      -0.957   3.662   0.031  0.00  0.00    -0.255 N 
ENDROOT
BRANCH  14  15
ATOM     15  C   UNL     1      -2.064   4.520   0.046  0.00  0.00    +0.052 A 
ATOM     16  C   UNL     1      -3.030   4.392   1.035  0.00  0.00    +0.026 A 
ATOM     17  C   UNL     1      -4.117   5.244   1.051  0.00  0.00    +0.005 A 
ATOM     18  C   UNL     1      -4.251   6.215   0.076  0.00  0.00    -0.047 A 
ATOM     19  C   UNL     1      -3.294   6.341  -0.914  0.00  0.00    -0.046 A 
ATOM     20  C   UNL     1      -2.201   5.496  -0.932  0.00  0.00    +0.030 A 
ATOM     21  C   UNL     1      -3.443   7.401  -1.975  0.00  0.00    +0.044 C 
ATOM     22  C   UNL     1      -5.442   7.138   0.092  0.00  0.00    +0.044 C 
ENDBRANCH  14  15
BRANCH   1  23
ATOM     23  S   UNL     1       0.224   5.547   1.581  0.00  0.00    -0.075 S 
BRANCH  23  24
ATOM     24  C   UNL     1       1.906   5.477   2.247  0.00  0.00    +0.137 C 
ATOM     25  C   UNL     1       2.912   5.515   1.095  0.00  0.00    +0.029 C 
BRANCH  24  27
ATOM     26  N   UNL     1       3.129   6.623   4.065  0.00  0.00    -0.315 N 
ATOM     27  C   UNL     1       2.136   6.657   3.155  0.00  0.00    +0.226 C 
ATOM     28  O   UNL     1       1.429   7.638   3.065  0.00  0.00    -0.275 OA
ATOM     29  H   UNL     1       3.695   5.838   4.137  0.00  0.00    +0.149 HD
BRANCH  26  31
ATOM     30  C   UNL     1       4.531   7.475   5.879  0.00  0.00    +0.024 C 
ATOM     31  C   UNL     1       3.353   7.771   4.948  0.00  0.00    +0.101 C 
ENDBRANCH  26  31
ENDBRANCH  24  27
ENDBRANCH  23  24
ENDBRANCH   1  23
TORSDOF 5
