REMARK  Name = ZINC19973320
REMARK  13 active torsions:
REMARK  status: ('A' for Active; 'I' for Inactive)
REMARK    1  A    between atoms: C_1  and  C_2
REMARK    2  A    between atoms: C_2  and  O_3
REMARK    3  A    between atoms: O_3  and  C_4
REMARK    4  A    between atoms: C_11  and  C_16
REMARK    5  A    between atoms: C_16  and  C_18
REMARK    6  A    between atoms: C_16  and  N_27
REMARK    7  A    between atoms: N_22  and  C_23
REMARK    8  A    between atoms: C_23  and  C_24
REMARK    9  A    between atoms: C_24  and  O_25
REMARK   10  A    between atoms: O_25  and  C_26
REMARK   11  A    between atoms: N_30  and  C_33
REMARK   12  A    between atoms: C_35  and  C_40
REMARK   13  A    between atoms: C_38  and  C_39
REMARK                            x       y       z     vdW  Elec       q    Type
REMARK                         _______ _______ _______ _____ _____    ______ ____
ROOT
ATOM      1  C   UNL     1       5.213   6.997   0.031  0.00  0.00    +0.162 C 
ENDROOT
BRANCH   1   9
ATOM      2  C   UNL     1       7.527   9.604   5.158  0.00  0.00    +0.121 A 
ATOM      3  C   UNL     1       6.421  10.405   5.430  0.00  0.00    +0.047 A 
ATOM      4  C   UNL     1       5.317  10.382   4.607  0.00  0.00    +0.030 A 
ATOM      5  C   UNL     1       5.300   9.552   3.491  0.00  0.00    +0.049 A 
ATOM      6  C   UNL     1       6.416   8.740   3.212  0.00  0.00    +0.002 A 
ATOM      7  C   UNL     1       7.531   8.773   4.055  0.00  0.00    +0.055 A 
ATOM      8  C   UNL     1       6.382   7.867   2.037  0.00  0.00    +0.021 A 
ATOM      9  C   UNL     1       5.277   7.880   1.251  0.00  0.00    +0.042 A 
ATOM     10  C   UNL     1       4.185   8.713   1.574  0.00  0.00    +0.254 A 
ATOM     11  O   UNL     1       3.199   8.706   0.857  0.00  0.00    -0.268 OA
ATOM     12  N   UNL     1       4.204   9.514   2.654  0.00  0.00    -0.322 N 
ATOM     13  H   UNL     1       3.328  10.146   2.865  0.00  0.00    +0.169 HD
BRANCH   2  14
ATOM     14  O   UNL     1       8.608   9.639   5.982  0.00  0.00    -0.492 OA
BRANCH  14  16
ATOM     15  C   UNL     1       9.837  10.424   7.909  0.00  0.00    +0.048 C 
ATOM     16  C   UNL     1       8.539  10.520   7.104  0.00  0.00    +0.225 C 
ENDBRANCH  14  16
ENDBRANCH   2  14
ENDBRANCH   1   9
BRANCH   1  17
ATOM     17  N   UNL     1       4.075   6.076   0.153  0.00  0.00    -0.286 NA
ATOM     18  C   UNL     1       4.037   5.134  -0.974  0.00  0.00    +0.104 C 
ATOM     19  C   UNL     1       2.796   4.247  -0.852  0.00  0.00    +0.120 C 
ATOM     20  N   UNL     1       2.834   3.529   0.429  0.00  0.00    -0.327 N 
ATOM     21  C   UNL     1       2.872   4.471   1.556  0.00  0.00    +0.120 C 
ATOM     22  C   UNL     1       4.113   5.359   1.435  0.00  0.00    +0.104 C 
BRANCH  20  23
ATOM     23  C   UNL     1       1.752   2.654   0.545  0.00  0.00    +0.033 A 
ATOM     24  C   UNL     1       0.452   3.143   0.501  0.00  0.00    +0.026 A 
ATOM     25  C   UNL     1      -0.615   2.275   0.616  0.00  0.00    -0.049 A 
ATOM     26  C   UNL     1      -0.392   0.918   0.770  0.00  0.00    +0.004 A 
ATOM     27  C   UNL     1       0.900   0.429   0.820  0.00  0.00    +0.005 A 
ATOM     28  C   UNL     1       1.972   1.292   0.705  0.00  0.00    -0.029 A 
ATOM     29  C   UNL     1       3.380   0.756   0.753  0.00  0.00    +0.045 C 
ATOM     30  C   UNL     1      -2.025   2.805   0.568  0.00  0.00    +0.044 C 
ENDBRANCH  20  23
ENDBRANCH   1  17
BRANCH   1  31
ATOM     31  C   UNL     1       6.490   6.205  -0.083  0.00  0.00    +0.173 A 
ATOM     32  N   UNL     1       6.837   5.170   0.642  0.00  0.00    -0.111 NA
ATOM     33  N   UNL     1       7.995   4.773   0.241  0.00  0.00    -0.023 NA
ATOM     34  N   UNL     1       8.396   5.528  -0.722  0.00  0.00    -0.044 NA
ATOM     35  N   UNL     1       7.493   6.420  -0.955  0.00  0.00    -0.225 N 
BRANCH  35  36
ATOM     36  C   UNL     1       7.551   7.471  -1.973  0.00  0.00    +0.175 C 
BRANCH  36  37
ATOM     37  C   UNL     1       8.205   8.721  -1.380  0.00  0.00    +0.183 C 
BRANCH  37  38
ATOM     38  O   UNL     1       8.261   9.746  -2.374  0.00  0.00    -0.381 OA
ATOM     39  C   UNL     1       8.857  10.963  -1.921  0.00  0.00    +0.194 C 
ENDBRANCH  37  38
ENDBRANCH  36  37
ENDBRANCH  35  36
ENDBRANCH   1  31
TORSDOF 9
