REMARK  Name = ZINC35543695
REMARK  6 active torsions:
REMARK  status: ('A' for Active; 'I' for Inactive)
REMARK    1  A    between atoms: C_4  and  C_7
REMARK    2  A    between atoms: C_7  and  N_8
REMARK    3  A    between atoms: C_15  and  N_33
REMARK    4  A    between atoms: C_19  and  C_24
REMARK    5  A    between atoms: N_26  and  C_27
REMARK    6  A    between atoms: C_27  and  C_28
REMARK                            x       y       z     vdW  Elec       q    Type
REMARK                         _______ _______ _______ _____ _____    ______ ____
ROOT
ATOM      1  N   UNL     1       4.153  -0.953   1.342  0.00  0.00    +0.385 N 
ATOM      2  C   UNL     1       4.448   0.328   2.000  0.00  0.00    -0.059 C 
ATOM      3  C   UNL     1       4.687   0.064   3.485  0.00  0.00    +0.087 C 
ATOM      4  N   UNL     1       5.698  -0.981   3.665  0.00  0.00    -0.329 N 
ATOM      5  C   UNL     1       6.514  -0.901   4.805  0.00  0.00    +0.033 A 
ATOM      6  C   UNL     1       6.289   0.127   5.716  0.00  0.00    +0.025 A 
ATOM      7  C   UNL     1       7.072   0.229   6.848  0.00  0.00    +0.034 A 
ATOM      8  C   UNL     1       8.079  -0.691   7.078  0.00  0.00    +0.127 A 
ATOM      9  C   UNL     1       8.305  -1.712   6.174  0.00  0.00    +0.038 A 
ATOM     10  C   UNL     1       7.525  -1.818   5.036  0.00  0.00    -0.023 A 
ATOM     11  C   UNL     1       7.796  -2.931   4.058  0.00  0.00    +0.051 C 
ATOM     12  C   UNL     1       7.323  -2.513   2.666  0.00  0.00    +0.098 C 
ATOM     13  C   UNL     1       5.851  -2.088   2.734  0.00  0.00    +0.069 C 
ATOM     14  C   UNL     1       5.366  -1.769   1.329  0.00  0.00    -0.055 C 
ATOM     15  H   UNL     1       3.426  -1.436   1.848  0.00  0.00    -0.081 HD
ENDROOT
BRANCH  12  16
ATOM     16  C   UNL     1       8.158  -1.358   2.177  0.00  0.00    +0.218 C 
ATOM     17  O   UNL     1       7.630  -0.299   1.909  0.00  0.00    -0.275 OA
ATOM     18  N   UNL     1       9.491  -1.501   2.038  0.00  0.00    -0.308 N 
ATOM     19  H   UNL     1       9.912  -2.348   2.253  0.00  0.00    +0.149 HD
BRANCH  18  20
ATOM     20  C   UNL     1      10.302  -0.378   1.563  0.00  0.00    +0.178 C 
BRANCH  20  21
ATOM     21  C   UNL     1      11.749  -0.796   1.497  0.00  0.00    +0.122 A 
ATOM     22  C   UNL     1      12.362  -1.342   0.431  0.00  0.00    +0.046 A 
ATOM     23  C   UNL     1      13.705  -1.575   0.806  0.00  0.00    +0.041 A 
ATOM     24  C   UNL     1      13.832  -1.158   2.079  0.00  0.00    +0.195 A 
ATOM     25  O   UNL     1      12.646  -0.682   2.490  0.00  0.00    -0.466 OA
ENDBRANCH  20  21
ENDBRANCH  18  20
ENDBRANCH  12  16
BRANCH   8  26
ATOM     26  N   UNL     1       8.915  -0.582   8.294  0.00  0.00    +0.056 N 
ATOM     27  O   UNL     1       8.719   0.310   9.085  0.00  0.00    -0.126 OA
ATOM     28  O   UNL     1       9.796  -1.386   8.496  0.00  0.00    -0.126 OA
ENDBRANCH   8  26
BRANCH   1  29
ATOM     29  C   UNL     1       3.711  -0.707  -0.038  0.00  0.00    -0.043 C 
BRANCH  29  33
ATOM     30  C   UNL     1      -0.017   1.378   0.010  0.00  0.00    +0.000 A 
ATOM     31  C   UNL     1       1.171   2.086   0.002  0.00  0.00    +0.000 A 
ATOM     32  C   UNL     1       2.377   1.411  -0.013  0.00  0.00    +0.002 A 
ATOM     33  C   UNL     1       2.396   0.029  -0.020  0.00  0.00    -0.064 A 
ATOM     34  C   UNL     1       1.208  -0.679  -0.012  0.00  0.00    +0.002 A 
ATOM     35  C   UNL     1       0.002  -0.004   0.002  0.00  0.00    +0.000 A 
ENDBRANCH  29  33
ENDBRANCH   1  29
TORSDOF 6
