REMARK  Name = ZINC63350364
REMARK  5 active torsions:
REMARK  status: ('A' for Active; 'I' for Inactive)
REMARK    1  A    between atoms: C_7  and  C_10
REMARK    2  A    between atoms: C_10  and  C_11
REMARK    3  A    between atoms: N_15  and  C_19
REMARK    4  A    between atoms: C_22  and  O_25
REMARK    5  A    between atoms: O_25  and  C_26
REMARK                            x       y       z     vdW  Elec       q    Type
REMARK                         _______ _______ _______ _____ _____    ______ ____
ROOT
ATOM      1  C   UNL     1       0.451  -3.650  -1.452  0.00  0.00    +0.165 C 
ATOM      2  C   UNL     1      -0.441  -4.875  -1.467  0.00  0.00    +0.248 C 
ATOM      3  O   UNL     1      -0.220  -5.949  -0.949  0.00  0.00    -0.273 OA
ATOM      4  N   UNL     1      -1.531  -4.523  -2.176  0.00  0.00    -0.193 N 
ATOM      5  C   UNL     1      -1.453  -3.258  -2.607  0.00  0.00    +0.314 C 
ATOM      6  O   UNL     1      -2.317  -2.715  -3.267  0.00  0.00    -0.252 OA
ATOM      7  N   UNL     1      -0.308  -2.654  -2.228  0.00  0.00    -0.287 N 
ATOM      8  H   UNL     1      -0.038  -1.744  -2.425  0.00  0.00    +0.151 HD
ENDROOT
BRANCH   4   9
ATOM      9  C   UNL     1      -2.615  -5.377  -2.433  0.00  0.00    +0.046 A 
ATOM     10  C   UNL     1      -3.748  -4.889  -3.070  0.00  0.00    +0.027 A 
ATOM     11  C   UNL     1      -4.814  -5.730  -3.322  0.00  0.00    +0.048 A 
ATOM     12  C   UNL     1      -4.753  -7.062  -2.939  0.00  0.00    +0.129 A 
ATOM     13  C   UNL     1      -3.620  -7.550  -2.302  0.00  0.00    +0.048 A 
ATOM     14  C   UNL     1      -2.552  -6.711  -2.054  0.00  0.00    +0.027 A 
BRANCH  12  15
ATOM     15  O   UNL     1      -5.802  -7.890  -3.187  0.00  0.00    -0.450 OA
BRANCH  15  16
ATOM     16  C   UNL     1      -5.699  -9.188  -2.794  0.00  0.00    +0.204 A 
ATOM     17  C   UNL     1      -5.165 -10.135  -3.657  0.00  0.00    +0.206 A 
ATOM     18  C   UNL     1      -5.059 -11.456  -3.255  0.00  0.00    +0.200 A 
ATOM     19  C   UNL     1      -5.488 -11.833  -1.992  0.00  0.00    +0.199 A 
ATOM     20  C   UNL     1      -6.022 -10.889  -1.130  0.00  0.00    +0.200 A 
ATOM     21  C   UNL     1      -6.123  -9.566  -1.527  0.00  0.00    +0.206 A 
ATOM     22  F   UNL     1      -6.638  -8.645  -0.684  0.00  0.00    -0.198 F 
ATOM     23  F   UNL     1      -6.439 -11.258   0.101  0.00  0.00    -0.199 F 
ATOM     24  F   UNL     1      -5.385 -13.123  -1.602  0.00  0.00    -0.199 F 
ATOM     25  F   UNL     1      -4.540 -12.378  -4.095  0.00  0.00    -0.199 F 
ATOM     26  F   UNL     1      -4.747  -9.767  -4.888  0.00  0.00    -0.198 F 
ENDBRANCH  15  16
ENDBRANCH  12  15
ENDBRANCH   4   9
BRANCH   1  27
ATOM     27  C   UNL     1       0.670  -3.162  -0.018  0.00  0.00    +0.065 C 
BRANCH  27  34
ATOM     28  C   UNL     1      -0.021   1.374  -0.059  0.00  0.00    +0.001 A 
ATOM     29  C   UNL     1       1.164   2.123  -0.064  0.00  0.00    +0.002 A 
ATOM     30  C   UNL     1       2.388   1.553  -0.056  0.00  0.00    +0.026 A 
ATOM     31  C   UNL     1       2.520   0.137  -0.043  0.00  0.00    +0.043 A 
ATOM     32  N   UNL     1       3.575  -0.641  -0.035  0.00  0.00    -0.380 N 
ATOM     33  C   UNL     1       3.127  -2.038  -0.023  0.00  0.00    +0.144 C 
ATOM     34  C   UNL     1       1.615  -1.988  -0.026  0.00  0.00    -0.039 C 
ATOM     35  C   UNL     1       1.284  -0.677  -0.038  0.00  0.00    -0.001 A 
ATOM     36  C   UNL     1      -0.007   0.022  -0.046  0.00  0.00    +0.010 A 
ATOM     37  H   UNL     1       4.498  -0.343  -0.036  0.00  0.00    +0.160 HD
ENDBRANCH  27  34
ENDBRANCH   1  27
TORSDOF 5
