REMARK  Name = ZINC63141708
REMARK  12 active torsions:
REMARK  status: ('A' for Active; 'I' for Inactive)
REMARK    1  A    between atoms: C_1  and  C_2
REMARK    2  A    between atoms: C_2  and  C_3
REMARK    3  A    between atoms: C_3  and  C_4
REMARK    4  A    between atoms: C_4  and  C_5
REMARK    5  A    between atoms: C_5  and  C_6
REMARK    6  A    between atoms: C_6  and  N_7
REMARK    7  A    between atoms: C_27  and  C_29
REMARK    8  A    between atoms: C_32  and  O_37
REMARK    9  A    between atoms: C_33  and  O_35
REMARK   10  A    between atoms: O_35  and  C_36
REMARK   11  A    between atoms: O_37  and  C_38
REMARK   12  A    between atoms: C_38  and  C_39
REMARK                            x       y       z     vdW  Elec       q    Type
REMARK                         _______ _______ _______ _____ _____    ______ ____
ROOT
ATOM      1  N   UNL     1       2.156  -4.561  -3.726  0.00  0.00    -0.291 N 
ATOM      2  C   UNL     1       1.363  -4.786  -4.923  0.00  0.00    +0.203 C 
ATOM      3  C   UNL     1       2.193  -5.263  -6.068  0.00  0.00    +0.234 C 
ATOM      4  O   UNL     1       1.629  -5.485  -7.119  0.00  0.00    -0.274 OA
ATOM      5  N   UNL     1       3.515  -5.464  -6.018  0.00  0.00    -0.279 N 
ATOM      6  C   UNL     1       4.305  -5.215  -4.817  0.00  0.00    +0.167 C 
ATOM      7  C   UNL     1       3.474  -4.744  -3.670  0.00  0.00    +0.237 C 
ATOM      8  O   UNL     1       4.034  -4.518  -2.618  0.00  0.00    -0.274 OA
ATOM      9  C   UNL     1       5.403  -4.178  -5.116  0.00  0.00    +0.065 C 
ATOM     10  C   UNL     1       6.043  -4.593  -6.417  0.00  0.00    -0.034 C 
ATOM     11  C   UNL     1       7.314  -4.778  -6.753  0.00  0.00    -0.001 A 
ATOM     12  C   UNL     1       8.567  -4.542  -6.018  0.00  0.00    +0.010 A 
ATOM     13  C   UNL     1       9.714  -4.870  -6.668  0.00  0.00    +0.001 A 
ATOM     14  C   UNL     1       9.741  -5.403  -7.961  0.00  0.00    +0.002 A 
ATOM     15  C   UNL     1       8.638  -5.644  -8.714  0.00  0.00    +0.026 A 
ATOM     16  C   UNL     1       7.371  -5.332  -8.140  0.00  0.00    +0.043 A 
ATOM     17  N   UNL     1       6.174  -5.437  -8.637  0.00  0.00    -0.375 N 
ATOM     18  C   UNL     1       5.221  -4.912  -7.660  0.00  0.00    +0.131 C 
ATOM     19  C   UNL     1       4.186  -5.960  -7.241  0.00  0.00    +0.134 C 
ATOM     20  H   UNL     1       5.951  -5.802  -9.508  0.00  0.00    +0.160 HD
ENDROOT
BRANCH  19  21
ATOM     21  C   UNL     1       3.172  -6.145  -8.341  0.00  0.00    -0.021 A 
ATOM     22  C   UNL     1       2.590  -7.383  -8.540  0.00  0.00    +0.009 A 
ATOM     23  C   UNL     1       1.659  -7.558  -9.547  0.00  0.00    +0.050 A 
ATOM     24  C   UNL     1       1.308  -6.491 -10.359  0.00  0.00    +0.162 A 
ATOM     25  C   UNL     1       1.893  -5.245 -10.158  0.00  0.00    +0.162 A 
ATOM     26  C   UNL     1       2.822  -5.075  -9.143  0.00  0.00    +0.055 A 
BRANCH  25  27
ATOM     27  O   UNL     1       1.552  -4.195 -10.951  0.00  0.00    -0.491 OA
ATOM     28  C   UNL     1       2.193  -2.946 -10.687  0.00  0.00    +0.277 C 
ENDBRANCH  25  27
BRANCH  24  29
ATOM     29  O   UNL     1       0.393  -6.662 -11.351  0.00  0.00    -0.489 OA
BRANCH  29  30
ATOM     30  C   UNL     1      -0.167  -7.968 -11.499  0.00  0.00    +0.226 C 
ATOM     31  C   UNL     1      -1.168  -7.965 -12.656  0.00  0.00    +0.048 C 
ENDBRANCH  29  30
ENDBRANCH  24  29
ENDBRANCH  19  21
BRANCH   1  32
ATOM     32  C   UNL     1       1.468  -4.101  -2.517  0.00  0.00    +0.108 C 
BRANCH  32  33
ATOM     33  C   UNL     1       1.437  -2.571  -2.498  0.00  0.00    +0.019 C 
BRANCH  33  34
ATOM     34  C   UNL     1       0.718  -2.091  -1.235  0.00  0.00    +0.002 C 
BRANCH  34  35
ATOM     35  C   UNL     1       0.687  -0.562  -1.217  0.00  0.00    -0.000 C 
BRANCH  35  37
ATOM     36  C   UNL     1      -0.063   1.448   0.064  0.00  0.00    +0.004 C 
ATOM     37  C   UNL     1      -0.031  -0.082   0.046  0.00  0.00    -0.003 C 
ENDBRANCH  35  37
ENDBRANCH  34  35
ENDBRANCH  33  34
ENDBRANCH  32  33
ENDBRANCH   1  32
TORSDOF 9
