REMARK  Name = ZINC07061046
REMARK  6 active torsions:
REMARK  status: ('A' for Active; 'I' for Inactive)
REMARK    1  A    between atoms: C_4  and  C_7
REMARK    2  A    between atoms: C_7  and  C_24
REMARK    3  A    between atoms: N_10  and  C_14
REMARK    4  A    between atoms: C_14  and  C_15
REMARK    5  A    between atoms: C_15  and  O_16
REMARK    6  A    between atoms: O_16  and  C_17
REMARK                            x       y       z     vdW  Elec       q    Type
REMARK                         _______ _______ _______ _____ _____    ______ ____
ROOT
ATOM      1  C   UNL     1      -1.235   2.107   0.018  0.00  0.00    +0.164 C 
ATOM      2  C   UNL     1      -0.243   1.246  -0.738  0.00  0.00    +0.256 C 
ATOM      3  O   UNL     1      -0.473   0.213  -1.331  0.00  0.00    -0.272 OA
ATOM      4  N   UNL     1       0.946   1.869  -0.620  0.00  0.00    -0.220 N 
ATOM      5  C   UNL     1       0.845   2.991   0.103  0.00  0.00    +0.310 C 
ATOM      6  O   UNL     1       1.783   3.724   0.347  0.00  0.00    -0.252 OA
ATOM      7  N   UNL     1      -0.411   3.216   0.530  0.00  0.00    -0.278 N 
ATOM      8  H   UNL     1      -0.715   3.965   1.066  0.00  0.00    +0.152 HD
ENDROOT
BRANCH   1  12
ATOM      9  C   UNL     1      -4.268   3.568  -2.611  0.00  0.00    +0.000 A 
ATOM     10  C   UNL     1      -3.612   4.439  -1.760  0.00  0.00    +0.000 A 
ATOM     11  C   UNL     1      -2.631   3.966  -0.910  0.00  0.00    +0.006 A 
ATOM     12  C   UNL     1      -2.305   2.623  -0.909  0.00  0.00    -0.011 A 
ATOM     13  C   UNL     1      -2.957   1.753  -1.763  0.00  0.00    +0.006 A 
ATOM     14  C   UNL     1      -3.942   2.224  -2.610  0.00  0.00    +0.000 A 
ENDBRANCH   1  12
BRANCH   1  15
ATOM     15  C   UNL     1      -1.846   1.335   1.159  0.00  0.00    -0.011 A 
ATOM     16  C   UNL     1      -2.405   0.091   0.930  0.00  0.00    +0.006 A 
ATOM     17  C   UNL     1      -2.962  -0.620   1.977  0.00  0.00    +0.000 A 
ATOM     18  C   UNL     1      -2.968  -0.082   3.251  0.00  0.00    +0.000 A 
ATOM     19  C   UNL     1      -2.415   1.164   3.478  0.00  0.00    +0.000 A 
ATOM     20  C   UNL     1      -1.854   1.872   2.432  0.00  0.00    +0.006 A 
ENDBRANCH   1  15
BRANCH   4  21
ATOM     21  C   UNL     1       2.194   1.379  -1.209  0.00  0.00    +0.159 C 
BRANCH  21  22
ATOM     22  C   UNL     1       2.356   1.958  -2.616  0.00  0.00    +0.248 C 
BRANCH  22  23
ATOM     23  O   UNL     1       2.508   3.377  -2.533  0.00  0.00    -0.489 OA
BRANCH  23  24
ATOM     24  C   UNL     1       2.664   4.050  -3.704  0.00  0.00    +0.139 A 
ATOM     25  C   UNL     1       2.675   3.359  -4.906  0.00  0.00    +0.047 A 
ATOM     26  C   UNL     1       2.828   4.046  -6.095  0.00  0.00    +0.004 A 
ATOM     27  C   UNL     1       2.980   5.420  -6.087  0.00  0.00    +0.002 A 
ATOM     28  C   UNL     1       2.975   6.112  -4.889  0.00  0.00    +0.023 A 
ATOM     29  C   UNL     1       2.817   5.429  -3.697  0.00  0.00    +0.083 A 
ATOM     30 CL   UNL     1       2.810   6.298  -2.194  0.00  0.00    -0.080 Cl
ENDBRANCH  23  24
ENDBRANCH  22  23
ENDBRANCH  21  22
ENDBRANCH   4  21
TORSDOF 6
