REMARK  Name = ZINC39325223
REMARK  10 active torsions:
REMARK  status: ('A' for Active; 'I' for Inactive)
REMARK    1  A    between atoms: C_1  and  O_2
REMARK    2  A    between atoms: O_2  and  C_3
REMARK    3  A    between atoms: C_7  and  C_17
REMARK    4  A    between atoms: C_14  and  O_15
REMARK    5  A    between atoms: O_15  and  C_16
REMARK    6  A    between atoms: C_17  and  N_18
REMARK    7  A    between atoms: N_18  and  C_19
REMARK    8  A    between atoms: N_18  and  S_25
REMARK    9  A    between atoms: C_19  and  C_20
REMARK   10  A    between atoms: S_25  and  C_28
REMARK                            x       y       z     vdW  Elec       q    Type
REMARK                         _______ _______ _______ _____ _____    ______ ____
ROOT
ATOM      1  C   UNL     1       4.494  -0.058  -5.432  0.00  0.00    +0.126 C 
ENDROOT
BRANCH   1   6
ATOM      2  C   UNL     1       0.494  -0.453  -1.200  0.00  0.00    +0.162 A 
ATOM      3  C   UNL     1       1.105   0.298  -2.152  0.00  0.00    +0.059 A 
ATOM      4  C   UNL     1       1.747  -0.373  -3.284  0.00  0.00    -0.003 A 
ATOM      5  C   UNL     1       2.369   0.347  -4.256  0.00  0.00    -0.003 C 
ATOM      6  C   UNL     1       3.009  -0.424  -5.394  0.00  0.00    +0.114 C 
ATOM      7  C   UNL     1       2.905  -1.932  -5.358  0.00  0.00    +0.225 C 
ATOM      8  O   UNL     1       3.401  -2.600  -6.245  0.00  0.00    -0.275 OA
ATOM      9  N   UNL     1       2.273  -2.521  -4.358  0.00  0.00    -0.284 N 
ATOM     10  C   UNL     1       1.708  -1.846  -3.354  0.00  0.00    +0.044 A 
ATOM     11  C   UNL     1       1.055  -2.541  -2.326  0.00  0.00    +0.073 A 
ATOM     12  C   UNL     1       0.474  -1.859  -1.282  0.00  0.00    +0.163 A 
ATOM     13  H   UNL     1       2.217  -3.490  -4.353  0.00  0.00    +0.155 HD
BRANCH   2  15
ATOM     14  C   UNL     1      -0.052   1.590  -0.113  0.00  0.00    +0.277 C 
ATOM     15  O   UNL     1      -0.103   0.162  -0.145  0.00  0.00    -0.491 OA
ENDBRANCH   2  15
BRANCH  12  16
ATOM     16  O   UNL     1      -0.144  -2.563  -0.304  0.00  0.00    -0.491 OA
ATOM     17  C   UNL     1      -0.140  -3.986  -0.428  0.00  0.00    +0.277 C 
ENDBRANCH  12  16
ENDBRANCH   1   6
BRANCH   1  18
ATOM     18  N   UNL     1       5.153  -0.804  -6.507  0.00  0.00    -0.171 NA
BRANCH  18  19
ATOM     19  S   UNL     1       6.372  -1.866  -6.150  0.00  0.00    +0.061 S 
ATOM     20  O   UNL     1       7.245  -1.874  -7.272  0.00  0.00    -0.153 OA
ATOM     21  O   UNL     1       6.819  -1.546  -4.840  0.00  0.00    -0.153 OA
BRANCH  19  22
ATOM     22  C   UNL     1       5.654  -3.472  -6.059  0.00  0.00    +0.106 A 
ATOM     23  C   UNL     1       5.275  -3.991  -4.835  0.00  0.00    +0.030 A 
ATOM     24  C   UNL     1       4.711  -5.251  -4.763  0.00  0.00    +0.022 A 
ATOM     25  C   UNL     1       4.526  -5.993  -5.916  0.00  0.00    +0.041 A 
ATOM     26  C   UNL     1       4.905  -5.473  -7.141  0.00  0.00    +0.022 A 
ATOM     27  C   UNL     1       5.463  -4.210  -7.212  0.00  0.00    +0.030 A 
ATOM     28 CL   UNL     1       3.818  -7.575  -5.826  0.00  0.00    -0.084 Cl
ENDBRANCH  19  22
ENDBRANCH  18  19
BRANCH  18  29
ATOM     29  C   UNL     1       4.734  -0.610  -7.897  0.00  0.00    +0.151 C 
BRANCH  29  30
ATOM     30  C   UNL     1       5.454   0.580  -8.478  0.00  0.00    +0.005 A 
ATOM     31  C   UNL     1       6.639   0.624  -9.134  0.00  0.00    +0.012 A 
ATOM     32  C   UNL     1       7.111   1.843  -9.584  0.00  0.00    +0.008 A 
ATOM     33  C   UNL     1       6.375   2.958  -9.356  0.00  0.00    +0.045 A 
ATOM     34  S   UNL     1       4.963   2.297  -8.486  0.00  0.00    -0.100 S 
ENDBRANCH  29  30
ENDBRANCH  18  29
ENDBRANCH   1  18
TORSDOF 8
