REMARK  Name = ZINC20467048
REMARK  11 active torsions:
REMARK  status: ('A' for Active; 'I' for Inactive)
REMARK    1  A    between atoms: C_1  and  C_2
REMARK    2  A    between atoms: C_4  and  N_32
REMARK    3  A    between atoms: C_8  and  C_31
REMARK    4  A    between atoms: C_11  and  O_30
REMARK    5  A    between atoms: C_13  and  C_17
REMARK    6  A    between atoms: C_17  and  C_19
REMARK    7  A    between atoms: C_17  and  C_20
REMARK    8  A    between atoms: N_22  and  C_23
REMARK    9  A    between atoms: C_23  and  C_24
REMARK   10  A    between atoms: C_24  and  N_25
REMARK   11  A    between atoms: C_33  and  C_35
REMARK                            x       y       z     vdW  Elec       q    Type
REMARK                         _______ _______ _______ _____ _____    ______ ____
ROOT
ATOM      1  C   UNL     1      -1.476   2.936   0.482  0.00  0.00    +0.010 C 
ATOM      2  C   UNL     1      -0.096   3.541   0.746  0.00  0.00    +0.012 C 
ATOM      3  C   UNL     1      -0.096   5.013   0.330  0.00  0.00    +0.076 C 
ATOM      4  C   UNL     1       1.284   5.618   0.594  0.00  0.00    +0.023 C 
ATOM      5  C   UNL     1       2.337   4.859  -0.217  0.00  0.00    +0.009 C 
ATOM      6  C   UNL     1       2.337   3.387   0.199  0.00  0.00    -0.027 C 
ATOM      7  C   UNL     1       0.957   2.782  -0.065  0.00  0.00    +0.028 C 
ATOM      8  C   UNL     1       0.957   1.310   0.351  0.00  0.00    +0.122 C 
ATOM      9  C   UNL     1       2.010   0.551  -0.460  0.00  0.00    +0.029 C 
ATOM     10  C   UNL     1       3.390   1.156  -0.196  0.00  0.00    +0.007 C 
ATOM     11  C   UNL     1       3.390   2.628  -0.612  0.00  0.00    +0.007 C 
ATOM     12  C   UNL     1       2.665   3.278   1.689  0.00  0.00    +0.011 C 
ENDROOT
BRANCH   3  13
ATOM     13  N   UNL     1      -1.104   5.740   1.106  0.00  0.00    -0.308 N 
ATOM     14  C   UNL     1      -1.648   6.870   0.613  0.00  0.00    +0.244 C 
ATOM     15  O   UNL     1      -1.302   7.287  -0.475  0.00  0.00    -0.270 OA
ATOM     16  H   UNL     1      -1.417   5.363   2.090  0.00  0.00    +0.149 HD
BRANCH  14  17
ATOM     17  C   UNL     1      -2.667   7.605   1.398  0.00  0.00    +0.040 A 
ATOM     18  C   UNL     1      -3.083   7.140   2.649  0.00  0.00    +0.033 A 
ATOM     19  C   UNL     1      -4.032   7.859   3.349  0.00  0.00    +0.111 A 
ATOM     20  N   UNL     1      -4.551   8.963   2.848  0.00  0.00    -0.263 NA
ATOM     21  C   UNL     1      -4.191   9.433   1.670  0.00  0.00    +0.111 A 
ATOM     22  C   UNL     1      -3.244   8.780   0.905  0.00  0.00    +0.033 A 
ENDBRANCH  14  17
ENDBRANCH   3  13
BRANCH   9  23
ATOM     23  C   UNL     1       2.010  -0.921  -0.043  0.00  0.00    +0.077 C 
ATOM     24  C   UNL     1       2.499  -1.043   1.401  0.00  0.00    +0.017 C 
BRANCH  23  25
ATOM     25  C   UNL     1       2.927  -1.700  -0.951  0.00  0.00    +0.216 C 
ATOM     26  O   UNL     1       3.583  -1.121  -1.792  0.00  0.00    -0.276 OA
ATOM     27  N   UNL     1       3.019  -3.039  -0.830  0.00  0.00    -0.317 N 
ATOM     28  H   UNL     1       2.424  -3.564  -0.067  0.00  0.00    +0.149 HD
BRANCH  27  29
ATOM     29  C   UNL     1       3.910  -3.796  -1.712  0.00  0.00    +0.085 C 
BRANCH  29  30
ATOM     30  C   UNL     1       3.827  -5.284  -1.367  0.00  0.00    -0.060 C 
BRANCH  30  31
ATOM     31  N   UNL     1       4.721  -6.043  -2.252  0.00  0.00    +0.381 N 
ATOM     32  C   UNL     1       6.095  -5.481  -2.229  0.00  0.00    -0.079 C 
ATOM     33  C   UNL     1       6.966  -6.652  -2.748  0.00  0.00    -0.020 C 
ATOM     34  C   UNL     1       6.289  -7.891  -2.119  0.00  0.00    -0.020 C 
ATOM     35  C   UNL     1       4.851  -7.444  -1.799  0.00  0.00    -0.079 C 
ATOM     36  H   UNL     1       4.271  -5.983  -3.254  0.00  0.00    -0.082 HD
ENDBRANCH  30  31
ENDBRANCH  29  30
ENDBRANCH  27  29
ENDBRANCH  23  25
ENDBRANCH   9  23
BRANCH   8  37
ATOM     37  O   UNL     1      -0.332   0.745   0.104  0.00  0.00    -0.391 OA
ATOM     38  H   UNL     1      -0.524  -0.312   0.342  0.00  0.00    +0.210 HD
ENDBRANCH   8  37
TORSDOF 8
