REMARK  Name = ZINC61697829
REMARK  7 active torsions:
REMARK  status: ('A' for Active; 'I' for Inactive)
REMARK    1  A    between atoms: C_1  and  C_2
REMARK    2  A    between atoms: C_3  and  N_20
REMARK    3  A    between atoms: C_7  and  O_8
REMARK    4  A    between atoms: O_8  and  C_9
REMARK    5  A    between atoms: C_12  and  C_16
REMARK    6  A    between atoms: C_16  and  C_18
REMARK    7  A    between atoms: C_16  and  O_19
REMARK                            x       y       z     vdW  Elec       q    Type
REMARK                         _______ _______ _______ _____ _____    ______ ____
ROOT
ATOM      1  O   UNL     1       0.275  -0.001   2.500  0.00  0.00    -0.455 OA
ENDROOT
BRANCH   1   8
ATOM      2  C   UNL     1       0.127   1.359   0.028  0.00  0.00    +0.050 C 
ATOM      3  C   UNL     1       1.433   1.082   0.727  0.00  0.00    +0.022 A 
ATOM      4  C   UNL     1       2.622   1.503   0.163  0.00  0.00    +0.133 A 
ATOM      5  C   UNL     1       3.821   1.250   0.803  0.00  0.00    +0.033 A 
ATOM      6  C   UNL     1       3.833   0.574   2.010  0.00  0.00    +0.006 A 
ATOM      7  C   UNL     1       2.648   0.151   2.578  0.00  0.00    +0.046 A 
ATOM      8  C   UNL     1       1.443   0.409   1.940  0.00  0.00    +0.134 A 
BRANCH   4   9
ATOM      9  N   UNL     1       2.612   2.227  -1.129  0.00  0.00    +0.057 N 
ATOM     10  O   UNL     1       3.482   2.021  -1.943  0.00  0.00    -0.126 OA
ATOM     11  O   UNL     1       1.735   3.023  -1.369  0.00  0.00    -0.126 OA
ENDBRANCH   4   9
ENDBRANCH   1   8
BRANCH   1  12
ATOM     12  C   UNL     1       0.322  -0.555   3.740  0.00  0.00    +0.142 A 
ATOM     13  C   UNL     1       0.311  -1.935   3.886  0.00  0.00    +0.048 A 
ATOM     14  C   UNL     1       0.359  -2.495   5.147  0.00  0.00    +0.010 A 
ATOM     15  C   UNL     1       0.417  -1.683   6.265  0.00  0.00    -0.018 A 
ATOM     16  C   UNL     1       0.427  -0.308   6.124  0.00  0.00    +0.025 A 
ATOM     17  C   UNL     1       0.385   0.258   4.863  0.00  0.00    +0.060 A 
ATOM     18 BR   UNL     1       0.408   2.139   4.670  0.00  0.00    -0.046 Br
BRANCH  15  19
ATOM     19  C   UNL     1       0.469  -2.298   7.640  0.00  0.00    +0.141 C 
ATOM     20  C   UNL     1       1.912  -2.295   8.146  0.00  0.00    +0.043 C 
BRANCH  19  21
ATOM     21  O   UNL     1      -0.351  -1.540   8.532  0.00  0.00    -0.387 OA
ATOM     22  H   UNL     1      -0.365  -1.880   9.437  0.00  0.00    +0.210 HD
ENDBRANCH  19  21
ENDBRANCH  15  19
ENDBRANCH   1  12
TORSDOF 5
