REMARK  Name = ZINC13456085
REMARK  5 active torsions:
REMARK  status: ('A' for Active; 'I' for Inactive)
REMARK    1  A    between atoms: C_8  and  C_28
REMARK    2  A    between atoms: C_9  and  C_16
REMARK    3  A    between atoms: C_10  and  C_12
REMARK    4  A    between atoms: C_17  and  C_18
REMARK    5  A    between atoms: C_21  and  O_27
REMARK                            x       y       z     vdW  Elec       q    Type
REMARK                         _______ _______ _______ _____ _____    ______ ____
ROOT
ATOM      1  C   UNL     1       4.924   1.428   9.094  0.00  0.00    +0.005 A 
ATOM      2  C   UNL     1       6.036   2.013   8.504  0.00  0.00    +0.020 A 
ATOM      3  C   UNL     1       5.986   2.366   7.170  0.00  0.00    +0.113 A 
ATOM      4  N   UNL     1       4.899   2.150   6.453  0.00  0.00    -0.236 NA
ATOM      5  C   UNL     1       3.818   1.600   6.981  0.00  0.00    +0.155 A 
ATOM      6  C   UNL     1       3.798   1.219   8.318  0.00  0.00    +0.048 A 
ATOM      7  N   UNL     1       2.688   1.395   6.186  0.00  0.00    -0.213 N 
ATOM      8  C   UNL     1       2.361   2.097   5.061  0.00  0.00    +0.084 A 
ATOM      9  C   UNL     1       1.164   1.570   4.588  0.00  0.00    +0.033 A 
ATOM     10  C   UNL     1       0.794   0.528   5.462  0.00  0.00    +0.173 A 
ATOM     11  N   UNL     1       1.696   0.431   6.401  0.00  0.00    -0.160 NA
ENDROOT
BRANCH   8  12
ATOM     12  C   UNL     1       3.130   3.206   4.462  0.00  0.00    +0.001 A 
ATOM     13  C   UNL     1       3.350   3.242   3.083  0.00  0.00    +0.013 A 
ATOM     14  C   UNL     1       4.065   4.282   2.528  0.00  0.00    +0.039 A 
ATOM     15  C   UNL     1       4.575   5.285   3.338  0.00  0.00    +0.123 A 
ATOM     16  C   UNL     1       4.364   5.252   4.707  0.00  0.00    +0.039 A 
ATOM     17  C   UNL     1       3.646   4.219   5.272  0.00  0.00    +0.013 A 
ATOM     18  F   UNL     1       5.279   6.299   2.790  0.00  0.00    -0.205 F 
ENDBRANCH   8  12
BRANCH  10  19
ATOM     19  C   UNL     1      -0.438  -0.331   5.334  0.00  0.00    +0.437 C 
ATOM     20  F   UNL     1      -0.144  -1.456   4.556  0.00  0.00    -0.164 F 
ATOM     21  F   UNL     1      -0.856  -0.739   6.605  0.00  0.00    -0.164 F 
ATOM     22  F   UNL     1      -1.458   0.406   4.722  0.00  0.00    -0.164 F 
ENDBRANCH  10  19
BRANCH   9  23
ATOM     23  C   UNL     1       0.423   2.014   3.392  0.00  0.00    +0.011 C 
ATOM     24  C   UNL     1       0.026   1.126   2.489  0.00  0.00    +0.018 C 
BRANCH  24  25
ATOM     25  C   UNL     1      -0.730   1.580   1.267  0.00  0.00    +0.202 C 
ATOM     26  C   UNL     1      -0.013   1.086   0.008  0.00  0.00    +0.080 C 
ATOM     27  C   UNL     1      -0.754   1.594  -1.232  0.00  0.00    +0.129 C 
ATOM     28  C   UNL     1      -0.770   3.127  -1.210  0.00  0.00    +0.152 C 
ATOM     29  C   UNL     1      -1.314   3.580   0.127  0.00  0.00    +0.310 C 
ATOM     30  O   UNL     1      -2.194   4.406   0.192  0.00  0.00    -0.251 OA
ATOM     31  O   UNL     1      -0.790   3.034   1.244  0.00  0.00    -0.457 OA
BRANCH  27  32
ATOM     32  O   UNL     1      -2.096   1.101  -1.222  0.00  0.00    -0.391 OA
ATOM     33  H   UNL     1      -2.625   1.385  -1.981  0.00  0.00    +0.210 HD
ENDBRANCH  27  32
ENDBRANCH  24  25
ENDBRANCH   9  23
TORSDOF 5
