REMARK  Name = ZINC15391754
REMARK  9 active torsions:
REMARK  status: ('A' for Active; 'I' for Inactive)
REMARK    1  A    between atoms: C_1  and  C_2
REMARK    2  A    between atoms: C_2  and  C_3
REMARK    3  A    between atoms: C_8  and  O_32
REMARK    4  A    between atoms: C_9  and  C_11
REMARK    5  A    between atoms: C_11  and  C_13
REMARK    6  A    between atoms: C_11  and  N_22
REMARK    7  A    between atoms: C_16  and  N_19
REMARK    8  A    between atoms: C_24  and  C_31
REMARK    9  A    between atoms: C_27  and  C_30
REMARK                            x       y       z     vdW  Elec       q    Type
REMARK                         _______ _______ _______ _____ _____    ______ ____
ROOT
ATOM      1  C   UNL     1       4.172  -2.393  -5.702  0.00  0.00    +0.005 C 
ENDROOT
BRANCH   1   2
ATOM      2  N   UNL     1       4.112  -1.541  -6.898  0.00  0.00    +0.388 N 
ATOM      3  C   UNL     1       5.104  -2.002  -7.876  0.00  0.00    -0.074 C 
ATOM      4  C   UNL     1       4.990  -1.170  -9.155  0.00  0.00    -0.031 C 
ATOM      5  C   UNL     1       5.245   0.303  -8.823  0.00  0.00    +0.003 C 
ATOM      6  C   UNL     1       4.252   0.753  -7.748  0.00  0.00    -0.031 C 
ATOM      7  C   UNL     1       4.393  -0.150  -6.521  0.00  0.00    -0.074 C 
ATOM      8  C   UNL     1       2.826   0.654  -8.295  0.00  0.00    +0.005 C 
ATOM      9  C   UNL     1       6.027  -1.652 -10.172  0.00  0.00    +0.005 C 
ATOM     10  H   UNL     1       3.190  -1.598  -7.304  0.00  0.00    -0.080 HD
ENDBRANCH   1   2
BRANCH   1  17
ATOM     11  C   UNL     1       0.707  -0.490  -1.238  0.00  0.00    +0.152 A 
ATOM     12  N   UNL     1       0.124  -0.743  -2.408  0.00  0.00    -0.205 NA
ATOM     13  C   UNL     1       1.025  -1.146  -3.261  0.00  0.00    +0.199 A 
ATOM     14  N   UNL     1       2.247  -1.167  -2.660  0.00  0.00    -0.173 N 
ATOM     15  N   UNL     1       1.988  -0.724  -1.336  0.00  0.00    -0.147 NA
ATOM     16  C   UNL     1       3.316  -1.572  -3.422  0.00  0.00    +0.225 A 
ATOM     17  C   UNL     1       3.147  -1.926  -4.701  0.00  0.00    +0.045 A 
ATOM     18  S   UNL     1       1.388  -1.698  -4.910  0.00  0.00    -0.050 S 
BRANCH  11  20
ATOM     19  C   UNL     1      -0.019   1.526   0.010  0.00  0.00    +0.012 C 
ATOM     20  C   UNL     1       0.002  -0.004   0.002  0.00  0.00    +0.075 C 
ENDBRANCH  11  20
BRANCH  16  21
ATOM     21  O   UNL     1       4.559  -1.612  -2.870  0.00  0.00    -0.492 OA
ATOM     22  H   UNL     1       4.587  -1.339  -1.943  0.00  0.00    +0.294 HD
ENDBRANCH  16  21
ENDBRANCH   1  17
BRANCH   1  23
ATOM     23  C   UNL     1       3.884  -3.821  -6.088  0.00  0.00    -0.056 A 
ATOM     24  C   UNL     1       2.903  -4.100  -7.021  0.00  0.00    +0.004 A 
ATOM     25  C   UNL     1       2.638  -5.410  -7.375  0.00  0.00    +0.033 A 
ATOM     26  C   UNL     1       3.355  -6.440  -6.795  0.00  0.00    +0.126 A 
ATOM     27  C   UNL     1       4.336  -6.161  -5.863  0.00  0.00    +0.033 A 
ATOM     28  C   UNL     1       4.604  -4.851  -5.512  0.00  0.00    +0.004 A 
BRANCH  26  29
ATOM     29  N   UNL     1       3.071  -7.843  -7.173  0.00  0.00    +0.056 N 
ATOM     30  O   UNL     1       2.212  -8.088  -7.988  0.00  0.00    -0.126 OA
ATOM     31  O   UNL     1       3.697  -8.744  -6.666  0.00  0.00    -0.126 OA
ENDBRANCH  26  29
ENDBRANCH   1  23
TORSDOF 6
