REMARK  Name = ZINC35229227
REMARK  17 active torsions:
REMARK  status: ('A' for Active; 'I' for Inactive)
REMARK    1  A    between atoms: C_1  and  C_2
REMARK    2  A    between atoms: C_2  and  C_3
REMARK    3  A    between atoms: C_3  and  C_4
REMARK    4  A    between atoms: C_4  and  N_5
REMARK    5  A    between atoms: N_5  and  C_6
REMARK    6  A    between atoms: C_6  and  C_7
REMARK    7  A    between atoms: C_21  and  C_23
REMARK    8  A    between atoms: C_26  and  O_29
REMARK    9  A    between atoms: O_29  and  C_30
REMARK   10  A    between atoms: C_31  and  C_33
REMARK   11  A    between atoms: C_33  and  C_34
REMARK   12  A    between atoms: C_34  and  C_36
REMARK   13  A    between atoms: C_34  and  C_37
REMARK   14  A    between atoms: C_37  and  C_38
REMARK   15  A    between atoms: C_38  and  C_39
REMARK   16  A    between atoms: C_38  and  C_40
REMARK   17  A    between atoms: C_38  and  C_41
REMARK                            x       y       z     vdW  Elec       q    Type
REMARK                         _______ _______ _______ _____ _____    ______ ____
ROOT
ATOM      1  C   UNL     1       2.461  -4.187  -2.682  0.00  0.00    +0.238 C 
ATOM      2  O   UNL     1       1.597  -5.037  -2.666  0.00  0.00    -0.273 OA
ATOM      3  N   UNL     1       3.759  -4.547  -2.727  0.00  0.00    -0.255 N 
ATOM      4  C   UNL     1       4.107  -5.899  -2.849  0.00  0.00    +0.061 A 
ATOM      5  C   UNL     1       3.279  -6.887  -2.340  0.00  0.00    +0.025 A 
ATOM      6  C   UNL     1       3.629  -8.218  -2.476  0.00  0.00    +0.002 A 
ATOM      7  C   UNL     1       4.802  -8.571  -3.118  0.00  0.00    +0.002 A 
ATOM      8  C   UNL     1       5.638  -7.593  -3.626  0.00  0.00    +0.028 A 
ATOM      9  C   UNL     1       5.297  -6.261  -3.489  0.00  0.00    +0.068 A 
ATOM     10  N   UNL     1       6.124  -5.233  -3.963  0.00  0.00    -0.316 N 
ATOM     11  C   UNL     1       7.188  -5.283  -4.800  0.00  0.00    +0.092 A 
ATOM     12  C   UNL     1       7.655  -4.025  -4.964  0.00  0.00    +0.020 A 
ATOM     13  C   UNL     1       6.843  -3.165  -4.193  0.00  0.00    +0.025 A 
ATOM     14  C   UNL     1       5.919  -3.922  -3.590  0.00  0.00    +0.049 A 
ATOM     15  C   UNL     1       4.810  -3.518  -2.655  0.00  0.00    +0.159 C 
ENDROOT
BRANCH  15  16
ATOM     16  C   UNL     1       5.342  -3.429  -1.248  0.00  0.00    -0.021 A 
ATOM     17  C   UNL     1       5.543  -4.582  -0.512  0.00  0.00    +0.009 A 
ATOM     18  C   UNL     1       6.030  -4.503   0.779  0.00  0.00    +0.046 A 
ATOM     19  C   UNL     1       6.317  -3.266   1.336  0.00  0.00    +0.120 A 
ATOM     20  C   UNL     1       6.115  -2.110   0.595  0.00  0.00    +0.046 A 
ATOM     21  C   UNL     1       5.633  -2.195  -0.697  0.00  0.00    +0.009 A 
BRANCH  19  22
ATOM     22  O   UNL     1       6.796  -3.186   2.605  0.00  0.00    -0.495 OA
ATOM     23  C   UNL     1       7.070  -1.879   3.114  0.00  0.00    +0.277 C 
ENDBRANCH  19  22
ENDBRANCH  15  16
BRANCH   1  24
ATOM     24  C   UNL     1       2.084  -2.728  -2.653  0.00  0.00    +0.204 C 
BRANCH  24  25
ATOM     25  N   UNL     1       0.626  -2.599  -2.722  0.00  0.00    -0.293 N 
ATOM     26  C   UNL     1       0.014  -2.502  -3.919  0.00  0.00    +0.216 C 
ATOM     27  O   UNL     1       0.670  -2.520  -4.939  0.00  0.00    -0.276 OA
BRANCH  25  28
ATOM     28  C   UNL     1      -0.166  -2.577  -1.490  0.00  0.00    +0.108 C 
BRANCH  28  29
ATOM     29  C   UNL     1      -0.317  -1.133  -1.007  0.00  0.00    +0.019 C 
BRANCH  29  31
ATOM     30  C   UNL     1      -1.296   0.335   0.762  0.00  0.00    +0.004 C 
ATOM     31  C   UNL     1      -1.145  -1.109   0.280  0.00  0.00    -0.002 C 
ENDBRANCH  29  31
ENDBRANCH  28  29
ENDBRANCH  25  28
BRANCH  26  32
ATOM     32  C   UNL     1      -1.485  -2.369  -3.989  0.00  0.00    +0.099 C 
BRANCH  32  33
ATOM     33  C   UNL     1      -1.921  -2.276  -5.453  0.00  0.00    -0.005 C 
ATOM     34  C   UNL     1      -1.371  -0.988  -6.068  0.00  0.00    +0.008 C 
BRANCH  33  35
ATOM     35  C   UNL     1      -3.449  -2.267  -5.531  0.00  0.00    +0.010 C 
BRANCH  35  36
ATOM     36  C   UNL     1      -3.891  -2.731  -6.920  0.00  0.00    -0.037 C 
ATOM     37  C   UNL     1      -3.392  -4.157  -7.165  0.00  0.00    +0.010 C 
ATOM     38  C   UNL     1      -5.419  -2.704  -7.005  0.00  0.00    +0.010 C 
ATOM     39  C   UNL     1      -3.305  -1.797  -7.981  0.00  0.00    +0.010 C 
ENDBRANCH  35  36
ENDBRANCH  33  35
ENDBRANCH  32  33
ENDBRANCH  26  32
ENDBRANCH  24  25
ENDBRANCH   1  24
TORSDOF 11
