REMARK  Name = ZINC22504443
REMARK  5 active torsions:
REMARK  status: ('A' for Active; 'I' for Inactive)
REMARK    1  A    between atoms: C_1  and  C_2
REMARK    2  A    between atoms: C_2  and  C_3
REMARK    3  A    between atoms: C_2  and  C_4
REMARK    4  A    between atoms: C_6  and  C_10
REMARK    5  A    between atoms: C_13  and  C_18
REMARK                            x       y       z     vdW  Elec       q    Type
REMARK                         _______ _______ _______ _____ _____    ______ ____
ROOT
ATOM      1  C   UNL     1       3.391  -1.539  -0.039  0.00  0.00    +0.150 A 
ATOM      2  N   UNL     1       2.081  -1.577  -0.027  0.00  0.00    -0.154 NA
ATOM      3  N   UNL     1       1.329  -0.409  -0.013  0.00  0.00    -0.185 N 
ATOM      4  C   UNL     1       0.002  -0.004   0.002  0.00  0.00    +0.186 A 
ATOM      5  N   UNL     1      -0.016   1.309   0.009  0.00  0.00    -0.126 NA
ATOM      6  N   UNL     1       1.189   1.764   0.000  0.00  0.00    -0.120 NA
ATOM      7  C   UNL     1       2.030   0.772  -0.013  0.00  0.00    +0.219 A 
ATOM      8  S   UNL     1       3.716   0.217  -0.032  0.00  0.00    -0.025 S 
ENDROOT
BRANCH   4   9
ATOM      9  C   UNL     1      -1.179  -0.891   0.009  0.00  0.00    +0.022 A 
ATOM     10  C   UNL     1      -2.444  -0.378  -0.288  0.00  0.00    +0.012 A 
ATOM     11  C   UNL     1      -3.543  -1.212  -0.280  0.00  0.00    +0.002 A 
ATOM     12  C   UNL     1      -3.395  -2.554   0.022  0.00  0.00    +0.015 A 
ATOM     13  C   UNL     1      -2.145  -3.070   0.318  0.00  0.00    +0.019 A 
ATOM     14  C   UNL     1      -1.036  -2.247   0.308  0.00  0.00    +0.027 A 
ATOM     15 BR   UNL     1      -1.955  -4.905   0.729  0.00  0.00    -0.050 Br
ENDBRANCH   4   9
BRANCH   1  18
ATOM     16  C   UNL     1       6.242  -3.854  -0.079  0.00  0.00    +0.066 A 
ATOM     17  C   UNL     1       5.724  -2.560  -0.067  0.00  0.00    +0.055 A 
ATOM     18  C   UNL     1       4.350  -2.659  -0.054  0.00  0.00    +0.093 A 
ATOM     19  N   UNL     1       4.044  -3.989  -0.053  0.00  0.00    -0.275 N 
ATOM     20  H   UNL     1       2.992  -4.311  -0.037  0.00  0.00    +0.189 HD
ATOM     21  N   UNL     1       5.247  -4.705  -0.074  0.00  0.00    -0.178 NA
BRANCH  16  23
ATOM     22  C   UNL     1       8.217  -4.207  -1.537  0.00  0.00    +0.014 C 
ATOM     23  C   UNL     1       7.705  -4.215  -0.095  0.00  0.00    +0.033 C 
ATOM     24  C   UNL     1       8.491  -3.194   0.731  0.00  0.00    +0.014 C 
ENDBRANCH  16  23
ENDBRANCH   1  18
TORSDOF 3
