REMARK  Name = ZINC47882023
REMARK  11 active torsions:
REMARK  status: ('A' for Active; 'I' for Inactive)
REMARK    1  A    between atoms: C_1  and  C_2
REMARK    2  A    between atoms: C_5  and  C_7
REMARK    3  A    between atoms: C_12  and  N_13
REMARK    4  A    between atoms: N_16  and  C_17
REMARK    5  A    between atoms: C_17  and  C_18
REMARK    6  A    between atoms: C_23  and  C_24
REMARK    7  A    between atoms: C_24  and  N_25
REMARK    8  A    between atoms: N_25  and  C_26
REMARK    9  A    between atoms: N_25  and  C_27
REMARK   10  A    between atoms: C_27  and  C_28
REMARK   11  A    between atoms: C_27  and  C_29
REMARK                            x       y       z     vdW  Elec       q    Type
REMARK                         _______ _______ _______ _____ _____    ______ ____
ROOT
ATOM      1  N   UNL     1       0.001  -5.672  -0.053  0.00  0.00    -0.269 N 
ATOM      2  C   UNL     1       0.348  -6.721  -0.824  0.00  0.00    +0.304 C 
ATOM      3  O   UNL     1       0.712  -7.761  -0.309  0.00  0.00    -0.252 OA
ATOM      4  N   UNL     1       0.293  -6.618  -2.167  0.00  0.00    -0.295 N 
ATOM      5  H   UNL     1      -0.351  -4.866  -0.461  0.00  0.00    +0.156 HD
ATOM      6  H   UNL     1       0.004  -5.789  -2.578  0.00  0.00    +0.151 HD
ENDROOT
BRANCH   1  12
ATOM      7  C   UNL     1       0.438  -4.593   2.074  0.00  0.00    +0.060 A 
ATOM      8  C   UNL     1       0.576  -4.678   3.460  0.00  0.00    +0.015 A 
ATOM      9  C   UNL     1       0.430  -5.895   4.092  0.00  0.00    +0.001 A 
ATOM     10  C   UNL     1       0.148  -7.035   3.357  0.00  0.00    +0.002 A 
ATOM     11  C   UNL     1       0.010  -6.964   1.984  0.00  0.00    +0.024 A 
ATOM     12  C   UNL     1       0.147  -5.747   1.334  0.00  0.00    +0.047 A 
BRANCH   7  17
ATOM     13  C   UNL     1       1.203   0.272   1.145  0.00  0.00    +0.111 C 
ATOM     14  C   UNL     1       0.921  -1.200   0.987  0.00  0.00    +0.215 A 
ATOM     15  N   UNL     1       0.681  -1.822  -0.133  0.00  0.00    -0.112 NA
ATOM     16  N   UNL     1       0.484  -3.071   0.101  0.00  0.00    -0.107 NA
ATOM     17  C   UNL     1       0.593  -3.292   1.391  0.00  0.00    +0.250 A 
ATOM     18  O   UNL     1       0.877  -2.111   1.976  0.00  0.00    -0.420 OA
ENDBRANCH   7  17
ENDBRANCH   1  12
BRANCH   4  19
ATOM     19  C   UNL     1       0.671  -7.758  -3.005  0.00  0.00    +0.141 C 
BRANCH  19  20
ATOM     20  C   UNL     1       0.642  -7.348  -4.455  0.00  0.00    -0.029 A 
ATOM     21  C   UNL     1      -0.466  -7.630  -5.232  0.00  0.00    +0.005 A 
ATOM     22  C   UNL     1      -0.492  -7.253  -6.561  0.00  0.00    +0.000 A 
ATOM     23  C   UNL     1       0.590  -6.593  -7.114  0.00  0.00    +0.000 A 
ATOM     24  C   UNL     1       1.697  -6.309  -6.338  0.00  0.00    +0.002 A 
ATOM     25  C   UNL     1       1.722  -6.683  -5.006  0.00  0.00    -0.059 A 
BRANCH  25  26
ATOM     26  C   UNL     1       2.927  -6.369  -4.158  0.00  0.00    -0.043 C 
BRANCH  26  27
ATOM     27  N   UNL     1       2.673  -5.150  -3.379  0.00  0.00    +0.382 N 
ATOM     28  C   UNL     1       2.526  -4.007  -4.291  0.00  0.00    -0.095 C 
ATOM     29  H   UNL     1       1.826  -5.263  -2.843  0.00  0.00    -0.081 HD
BRANCH  27  30
ATOM     30  C   UNL     1       3.800  -4.907  -2.468  0.00  0.00    -0.075 C 
ATOM     31  C   UNL     1       3.536  -3.637  -1.657  0.00  0.00    -0.014 C 
ATOM     32  C   UNL     1       3.953  -6.097  -1.518  0.00  0.00    -0.014 C 
ENDBRANCH  27  30
ENDBRANCH  26  27
ENDBRANCH  25  26
ENDBRANCH  19  20
ENDBRANCH   4  19
TORSDOF 7
