REMARK  Name = ZINC11463374
REMARK  10 active torsions:
REMARK  status: ('A' for Active; 'I' for Inactive)
REMARK    1  A    between atoms: C_1  and  C_2
REMARK    2  A    between atoms: C_2  and  C_3
REMARK    3  A    between atoms: C_3  and  C_4
REMARK    4  A    between atoms: C_8  and  S_10
REMARK    5  A    between atoms: S_10  and  C_11
REMARK    6  A    between atoms: C_11  and  C_12
REMARK    7  A    between atoms: C_15  and  C_30
REMARK    8  A    between atoms: C_18  and  C_20
REMARK    9  A    between atoms: C_33  and  O_36
REMARK   10  A    between atoms: O_36  and  C_37
REMARK                            x       y       z     vdW  Elec       q    Type
REMARK                         _______ _______ _______ _____ _____    ______ ____
ROOT
ATOM      1  C   UNL     1       4.714  -5.725  -1.059  0.00  0.00    +0.246 C 
ATOM      2  O   UNL     1       4.434  -6.894  -0.893  0.00  0.00    -0.273 OA
ATOM      3  N   UNL     1       5.841  -5.388  -1.716  0.00  0.00    -0.184 N 
ATOM      4  C   UNL     1       6.814  -6.333  -2.287  0.00  0.00    +0.137 C 
ATOM      5  C   UNL     1       7.885  -5.417  -2.910  0.00  0.00    +0.087 C 
ATOM      6  C   UNL     1       7.386  -4.020  -2.615  0.00  0.00    +0.069 C 
ATOM      7  N   UNL     1       6.272  -4.088  -1.972  0.00  0.00    -0.181 NA
ENDROOT
BRANCH   6   8
ATOM      8  C   UNL     1       8.067  -2.773  -3.009  0.00  0.00    -0.002 A 
ATOM      9  C   UNL     1       9.278  -2.833  -3.723  0.00  0.00    +0.010 A 
ATOM     10  C   UNL     1       9.923  -1.699  -4.096  0.00  0.00    +0.009 A 
ATOM     11  C   UNL     1       9.381  -0.442  -3.771  0.00  0.00    -0.018 A 
ATOM     12  C   UNL     1      10.031   0.746  -4.148  0.00  0.00    +0.008 A 
ATOM     13  C   UNL     1       9.483   1.948  -3.819  0.00  0.00    +0.001 A 
ATOM     14  C   UNL     1       8.284   2.022  -3.112  0.00  0.00    +0.001 A 
ATOM     15  C   UNL     1       7.626   0.894  -2.730  0.00  0.00    +0.008 A 
ATOM     16  C   UNL     1       8.162  -0.367  -3.052  0.00  0.00    -0.017 A 
ATOM     17  C   UNL     1       7.506  -1.549  -2.678  0.00  0.00    +0.018 A 
ENDBRANCH   6   8
BRANCH   4  18
ATOM     18  C   UNL     1       6.164  -7.190  -3.343  0.00  0.00    -0.024 A 
ATOM     19  C   UNL     1       5.240  -6.635  -4.210  0.00  0.00    +0.009 A 
ATOM     20  C   UNL     1       4.643  -7.418  -5.178  0.00  0.00    +0.046 A 
ATOM     21  C   UNL     1       4.972  -8.762  -5.282  0.00  0.00    +0.120 A 
ATOM     22  C   UNL     1       5.899  -9.316  -4.411  0.00  0.00    +0.046 A 
ATOM     23  C   UNL     1       6.497  -8.527  -3.448  0.00  0.00    +0.009 A 
BRANCH  21  24
ATOM     24  O   UNL     1       4.385  -9.535  -6.234  0.00  0.00    -0.495 OA
ATOM     25  C   UNL     1       4.771 -10.910  -6.281  0.00  0.00    +0.277 C 
ENDBRANCH  21  24
ENDBRANCH   4  18
BRANCH   1  26
ATOM     26  C   UNL     1       3.800  -4.650  -0.529  0.00  0.00    +0.175 C 
BRANCH  26  27
ATOM     27  S   UNL     1       2.380  -5.416   0.299  0.00  0.00    -0.077 S 
BRANCH  27  32
ATOM     28  C   UNL     1       0.762  -2.018   1.233  0.00  0.00    +0.152 A 
ATOM     29  N   UNL     1      -0.146  -2.790   1.765  0.00  0.00    -0.157 NA
ATOM     30  H   UNL     1      -0.212  -4.921   1.808  0.00  0.00    +0.191 HD
ATOM     31  N   UNL     1       0.255  -4.116   1.534  0.00  0.00    -0.254 N 
ATOM     32  C   UNL     1       1.420  -4.047   0.855  0.00  0.00    +0.185 A 
ATOM     33  N   UNL     1       1.709  -2.775   0.677  0.00  0.00    -0.206 NA
BRANCH  28  34
ATOM     34  C   UNL     1       0.742  -0.511   1.242  0.00  0.00    +0.078 C 
BRANCH  34  36
ATOM     35  C   UNL     1      -0.019   1.526   0.010  0.00  0.00    +0.004 C 
ATOM     36  C   UNL     1       0.002  -0.004   0.002  0.00  0.00    +0.004 C 
ENDBRANCH  34  36
ENDBRANCH  28  34
ENDBRANCH  27  32
ENDBRANCH  26  27
ENDBRANCH   1  26
TORSDOF 8
