REMARK  Name = ZINC02049694
REMARK  8 active torsions:
REMARK  status: ('A' for Active; 'I' for Inactive)
REMARK    1  A    between atoms: C_1  and  C_2
REMARK    2  A    between atoms: C_2  and  O_3
REMARK    3  A    between atoms: O_3  and  C_4
REMARK    4  A    between atoms: C_7  and  C_10
REMARK    5  A    between atoms: C_12  and  C_28
REMARK    6  A    between atoms: C_13  and  C_27
REMARK    7  A    between atoms: C_20  and  C_21
REMARK    8  A    between atoms: N_30  and  C_31
REMARK                            x       y       z     vdW  Elec       q    Type
REMARK                         _______ _______ _______ _____ _____    ______ ____
ROOT
ATOM      1  C   UNL     1       6.121   3.750  -0.069  0.00  0.00    +0.160 C 
ATOM      2  C   UNL     1       4.654   4.110  -0.009  0.00  0.00    +0.063 C 
ATOM      3  C   UNL     1       4.314   5.433  -0.021  0.00  0.00    +0.051 C 
ATOM      4  N   UNL     1       5.253   6.371  -0.073  0.00  0.00    -0.228 NA
ATOM      5  C   UNL     1       6.538   6.135  -0.127  0.00  0.00    +0.178 A 
ATOM      6  N   UNL     1       7.094   4.875  -0.131  0.00  0.00    -0.275 N 
ATOM      7  C   UNL     1       8.427   4.773  -0.190  0.00  0.00    +0.268 A 
ATOM      8  O   UNL     1       8.960   3.677  -0.196  0.00  0.00    -0.266 OA
ATOM      9  C   UNL     1       9.214   5.954  -0.244  0.00  0.00    +0.081 A 
ATOM     10  C   UNL     1      10.571   6.088  -0.307  0.00  0.00    +0.035 C 
ATOM     11  S   UNL     1       7.951   7.217  -0.208  0.00  0.00    -0.046 S 
ATOM     12  C   UNL     1       2.862   5.832   0.031  0.00  0.00    +0.066 C 
ENDROOT
BRANCH   1  16
ATOM     13  C   UNL     1       6.731   1.292  -3.511  0.00  0.00    +0.121 A 
ATOM     14  C   UNL     1       6.536   0.709  -2.267  0.00  0.00    +0.046 A 
ATOM     15  C   UNL     1       6.339   1.506  -1.155  0.00  0.00    +0.009 A 
ATOM     16  C   UNL     1       6.336   2.883  -1.282  0.00  0.00    -0.020 A 
ATOM     17  C   UNL     1       6.524   3.466  -2.522  0.00  0.00    +0.009 A 
ATOM     18  C   UNL     1       6.727   2.673  -3.635  0.00  0.00    +0.046 A 
BRANCH  13  19
ATOM     19  O   UNL     1       6.926   0.510  -4.605  0.00  0.00    -0.492 OA
BRANCH  19  21
ATOM     20  C   UNL     1       7.321   0.141  -6.961  0.00  0.00    +0.048 C 
ATOM     21  C   UNL     1       7.120   1.178  -5.853  0.00  0.00    +0.225 C 
ENDBRANCH  19  21
ENDBRANCH  13  19
ENDBRANCH   1  16
BRANCH  10  22
ATOM     22  C   UNL     1      11.152   7.376  -0.354  0.00  0.00    +0.013 A 
ATOM     23  C   UNL     1      12.496   7.729  -0.420  0.00  0.00    +0.015 A 
ATOM     24  C   UNL     1      12.786   9.070  -0.455  0.00  0.00    +0.008 A 
ATOM     25  C   UNL     1      11.768   9.971  -0.426  0.00  0.00    +0.046 A 
ATOM     26  S   UNL     1      10.354   8.971  -0.353  0.00  0.00    -0.097 S 
ENDBRANCH  10  22
BRANCH   2  27
ATOM     27  C   UNL     1       3.666   3.111   0.052  0.00  0.00    +0.248 C 
ATOM     28  O   UNL     1       3.497   2.483   1.083  0.00  0.00    -0.270 OA
ATOM     29  N   UNL     1       2.906   2.847  -1.029  0.00  0.00    -0.282 N 
ATOM     30  H   UNL     1       3.096   3.285  -1.874  0.00  0.00    +0.155 HD
BRANCH  29  31
ATOM     31  C   UNL     1       1.845   1.942  -0.934  0.00  0.00    +0.034 A 
ATOM     32  C   UNL     1       1.949   0.832  -0.106  0.00  0.00    +0.023 A 
ATOM     33  C   UNL     1       0.898  -0.060  -0.014  0.00  0.00    +0.002 A 
ATOM     34  C   UNL     1      -0.256   0.151  -0.746  0.00  0.00    +0.000 A 
ATOM     35  C   UNL     1      -0.362   1.255  -1.572  0.00  0.00    +0.002 A 
ATOM     36  C   UNL     1       0.684   2.151  -1.669  0.00  0.00    +0.023 A 
ENDBRANCH  29  31
ENDBRANCH   2  27
TORSDOF 6
