REMARK  Name = ZINC41584148
REMARK  13 active torsions:
REMARK  status: ('A' for Active; 'I' for Inactive)
REMARK    1  A    between atoms: C_1  and  C_2
REMARK    2  A    between atoms: C_2  and  C_3
REMARK    3  A    between atoms: C_3  and  C_4
REMARK    4  A    between atoms: C_4  and  N_5
REMARK    5  A    between atoms: N_5  and  C_6
REMARK    6  A    between atoms: N_5  and  C_10
REMARK    7  A    between atoms: C_6  and  C_7
REMARK    8  A    between atoms: C_7  and  C_8
REMARK    9  A    between atoms: C_8  and  C_9
REMARK   10  A    between atoms: C_10  and  C_11
REMARK   11  A    between atoms: C_12  and  O_30
REMARK   12  A    between atoms: C_14  and  C_29
REMARK   13  A    between atoms: C_19  and  C_20
REMARK                            x       y       z     vdW  Elec       q    Type
REMARK                         _______ _______ _______ _____ _____    ______ ____
ROOT
ATOM      1  C   UNL     1      -2.231  -3.656   1.760  0.00  0.00    +0.020 A 
ATOM      2  C   UNL     1      -0.877  -3.374   1.847  0.00  0.00    +0.122 A 
ATOM      3  C   UNL     1      -0.293  -3.079   3.076  0.00  0.00    +0.050 A 
ATOM      4  C   UNL     1      -1.053  -3.064   4.211  0.00  0.00    -0.033 A 
ATOM      5  C   UNL     1      -2.417  -3.346   4.138  0.00  0.00    +0.071 A 
ATOM      6  C   UNL     1      -3.019  -3.640   2.904  0.00  0.00    +0.145 A 
ATOM      7  O   UNL     1      -4.338  -3.869   3.083  0.00  0.00    -0.451 OA
ATOM      8  C   UNL     1      -4.699  -3.747   4.382  0.00  0.00    +0.176 C 
ATOM      9  C   UNL     1      -5.947  -3.914   4.886  0.00  0.00    +0.059 C 
ATOM     10  C   UNL     1      -3.489  -3.412   5.149  0.00  0.00    +0.232 C 
ATOM     11  O   UNL     1      -3.396  -3.219   6.349  0.00  0.00    -0.283 OA
ATOM     12  C   UNL     1      -0.418  -2.745   5.540  0.00  0.00    +0.045 C 
ENDROOT
BRANCH   9  13
ATOM     13  C   UNL     1      -6.158  -3.916   6.341  0.00  0.00    -0.003 A 
ATOM     14  C   UNL     1      -5.265  -4.592   7.180  0.00  0.00    +0.009 A 
ATOM     15  C   UNL     1      -5.470  -4.588   8.543  0.00  0.00    +0.001 A 
ATOM     16  C   UNL     1      -6.554  -3.918   9.084  0.00  0.00    +0.001 A 
ATOM     17  C   UNL     1      -7.442  -3.246   8.262  0.00  0.00    +0.020 A 
ATOM     18  C   UNL     1      -7.249  -3.235   6.895  0.00  0.00    +0.048 A 
ATOM     19 CL   UNL     1      -8.360  -2.385   5.866  0.00  0.00    -0.083 Cl
ENDBRANCH   9  13
BRANCH   2  20
ATOM     20  O   UNL     1      -0.114  -3.387   0.725  0.00  0.00    -0.506 OA
ATOM     21  H   UNL     1      -0.063  -2.533   0.274  0.00  0.00    +0.292 HD
ENDBRANCH   2  20
BRANCH   1  22
ATOM     22  C   UNL     1      -2.850  -3.974   0.423  0.00  0.00    -0.036 C 
BRANCH  22  23
ATOM     23  N   UNL     1      -3.312  -2.731  -0.210  0.00  0.00    +0.383 N 
ATOM     24  H   UNL     1      -3.936  -2.246   0.417  0.00  0.00    -0.081 HD
BRANCH  23  25
ATOM     25  C   UNL     1      -2.157  -1.875  -0.510  0.00  0.00    -0.078 C 
BRANCH  25  26
ATOM     26  C   UNL     1      -2.644  -0.540  -1.077  0.00  0.00    -0.019 C 
BRANCH  26  28
ATOM     27  C   UNL     1      -1.940   1.735  -1.830  0.00  0.00    +0.004 C 
ATOM     28  C   UNL     1      -1.452   0.400  -1.263  0.00  0.00    -0.005 C 
ENDBRANCH  26  28
ENDBRANCH  25  26
ENDBRANCH  23  25
BRANCH  23  29
ATOM     29  C   UNL     1      -4.022  -3.051  -1.456  0.00  0.00    -0.078 C 
BRANCH  29  30
ATOM     30  C   UNL     1      -5.303  -3.820  -1.130  0.00  0.00    -0.019 C 
BRANCH  30  31
ATOM     31  C   UNL     1      -6.108  -4.037  -2.413  0.00  0.00    -0.005 C 
ATOM     32  C   UNL     1      -7.390  -4.807  -2.087  0.00  0.00    +0.004 C 
ENDBRANCH  30  31
ENDBRANCH  29  30
ENDBRANCH  23  29
ENDBRANCH  22  23
ENDBRANCH   1  22
TORSDOF 10
