REMARK  Name = ZINC08921382
REMARK  13 active torsions:
REMARK  status: ('A' for Active; 'I' for Inactive)
REMARK    1  A    between atoms: C_1  and  C_2
REMARK    2  A    between atoms: C_4  and  C_16
REMARK    3  A    between atoms: C_7  and  O_8
REMARK    4  A    between atoms: O_8  and  C_9
REMARK    5  A    between atoms: C_9  and  C_10
REMARK    6  A    between atoms: C_16  and  C_18
REMARK    7  A    between atoms: N_22  and  C_34
REMARK    8  A    between atoms: C_23  and  C_25
REMARK    9  A    between atoms: C_29  and  N_31
REMARK   10  A    between atoms: C_34  and  C_35
REMARK   11  A    between atoms: C_35  and  N_36
REMARK   12  A    between atoms: N_36  and  C_37
REMARK   13  A    between atoms: N_36  and  C_38
REMARK                            x       y       z     vdW  Elec       q    Type
REMARK                         _______ _______ _______ _____ _____    ______ ____
ROOT
ATOM      1  C   UNL     1       9.624  -3.818  -0.887  0.00  0.00    +0.076 C 
ATOM      2  C   UNL     1      10.811  -4.452  -1.027  0.00  0.00    +0.249 C 
ATOM      3  C   UNL     1      11.332  -4.807   0.310  0.00  0.00    +0.288 C 
ATOM      4  O   UNL     1      12.382  -5.382   0.519  0.00  0.00    -0.266 OA
ATOM      5  N   UNL     1      10.471  -4.402   1.261  0.00  0.00    -0.285 N 
ATOM      6  C   UNL     1       9.336  -3.753   0.594  0.00  0.00    +0.145 C 
ATOM      7  O   UNL     1      11.424  -4.718  -2.203  0.00  0.00    -0.282 OA
ENDROOT
BRANCH   6   8
ATOM      8  C   UNL     1       9.225  -2.317   1.038  0.00  0.00    -0.020 A 
ATOM      9  C   UNL     1      10.362  -1.539   1.153  0.00  0.00    +0.006 A 
ATOM     10  C   UNL     1      10.260  -0.221   1.556  0.00  0.00    +0.003 A 
ATOM     11  C   UNL     1       9.021   0.317   1.853  0.00  0.00    +0.033 A 
ATOM     12  C   UNL     1       7.885  -0.462   1.742  0.00  0.00    +0.127 A 
ATOM     13  C   UNL     1       7.987  -1.779   1.335  0.00  0.00    +0.038 A 
BRANCH  12  14
ATOM     14  N   UNL     1       6.559   0.114   2.059  0.00  0.00    +0.056 N 
ATOM     15  O   UNL     1       5.569  -0.596   2.052  0.00  0.00    -0.126 OA
ATOM     16  O   UNL     1       6.457   1.298   2.328  0.00  0.00    -0.126 OA
ENDBRANCH  12  14
ENDBRANCH   6   8
BRANCH   1  17
ATOM     17  C   UNL     1       8.777  -3.300  -1.966  0.00  0.00    +0.195 C 
ATOM     18  O   UNL     1       9.161  -2.367  -2.647  0.00  0.00    -0.287 OA
BRANCH  17  22
ATOM     19  C   UNL     1       4.621  -3.574  -4.710  0.00  0.00    +0.047 C 
ATOM     20  C   UNL     1       5.455  -4.044  -3.546  0.00  0.00    -0.008 A 
ATOM     21  C   UNL     1       6.685  -3.473  -3.307  0.00  0.00    +0.018 A 
ATOM     22  C   UNL     1       7.458  -3.910  -2.227  0.00  0.00    +0.023 A 
ATOM     23  C   UNL     1       6.978  -4.926  -1.395  0.00  0.00    +0.015 A 
ATOM     24  C   UNL     1       5.745  -5.487  -1.638  0.00  0.00    +0.046 A 
ATOM     25  C   UNL     1       4.982  -5.053  -2.716  0.00  0.00    +0.124 A 
BRANCH  25  26
ATOM     26  O   UNL     1       3.769  -5.613  -2.955  0.00  0.00    -0.487 OA
BRANCH  26  27
ATOM     27  C   UNL     1       3.292  -6.561  -1.998  0.00  0.00    +0.264 C 
BRANCH  27  28
ATOM     28  C   UNL     1       1.891  -6.981  -2.362  0.00  0.00    -0.010 A 
ATOM     29  C   UNL     1       1.690  -8.067  -3.194  0.00  0.00    +0.007 A 
ATOM     30  C   UNL     1       0.405  -8.452  -3.528  0.00  0.00    +0.000 A 
ATOM     31  C   UNL     1      -0.678  -7.752  -3.030  0.00  0.00    +0.000 A 
ATOM     32  C   UNL     1      -0.476  -6.667  -2.197  0.00  0.00    +0.000 A 
ATOM     33  C   UNL     1       0.808  -6.282  -1.864  0.00  0.00    +0.007 A 
ENDBRANCH  27  28
ENDBRANCH  26  27
ENDBRANCH  25  26
ENDBRANCH  17  22
ENDBRANCH   1  17
BRANCH   5  34
ATOM     34  C   UNL     1      10.637  -4.578   2.706  0.00  0.00    +0.090 C 
BRANCH  34  35
ATOM     35  C   UNL     1      10.014  -5.909   3.132  0.00  0.00    -0.060 C 
BRANCH  35  36
ATOM     36  N   UNL     1      10.180  -6.085   4.581  0.00  0.00    +0.377 N 
ATOM     37  C   UNL     1       9.407  -5.082   5.326  0.00  0.00    -0.097 C 
ATOM     38  C   UNL     1       9.811  -7.446   4.992  0.00  0.00    -0.097 C 
ATOM     39  H   UNL     1      11.244  -5.937   4.820  0.00  0.00    -0.083 HD
ENDBRANCH  35  36
ENDBRANCH  34  35
ENDBRANCH   5  34
TORSDOF 10
