REMARK  Name = ZINC14053427
REMARK  7 active torsions:
REMARK  status: ('A' for Active; 'I' for Inactive)
REMARK    1  A    between atoms: C_3  and  N_26
REMARK    2  A    between atoms: C_6  and  C_7
REMARK    3  A    between atoms: N_9  and  C_10
REMARK    4  A    between atoms: C_10  and  C_11
REMARK    5  A    between atoms: N_13  and  C_14
REMARK    6  A    between atoms: C_14  and  C_15
REMARK    7  A    between atoms: C_15  and  N_68
REMARK                            x       y       z     vdW  Elec       q    Type
REMARK                         _______ _______ _______ _____ _____    ______ ____
ROOT
ATOM      1  C   UNL     1      10.465  -1.535  -1.368  0.00  0.00    +0.230 C 
ATOM      2  O   UNL     1       9.691  -2.446  -1.568  0.00  0.00    -0.274 OA
ATOM      3  N   UNL     1      11.790  -1.730  -1.522  0.00  0.00    -0.315 N 
ATOM      4  H   UNL     1      12.409  -1.001  -1.362  0.00  0.00    +0.149 HD
ENDROOT
BRANCH   1   5
ATOM      5  C   UNL     1       9.946  -0.184  -0.947  0.00  0.00    +0.200 C 
BRANCH   5   8
ATOM      6  C   UNL     1       7.798   0.871  -0.488  0.00  0.00    +0.244 C 
ATOM      7  O   UNL     1       8.392   1.903  -0.241  0.00  0.00    -0.270 OA
ATOM      8  N   UNL     1       8.485  -0.230  -0.851  0.00  0.00    -0.303 N 
ATOM      9  H   UNL     1       8.012  -1.054  -1.049  0.00  0.00    +0.150 HD
BRANCH   6  15
ATOM     10  C   UNL     1       5.613   1.966  -0.015  0.00  0.00    +0.015 A 
ATOM     11  C   UNL     1       4.240   1.919   0.073  0.00  0.00    +0.024 A 
ATOM     12  C   UNL     1       3.562   0.737  -0.211  0.00  0.00    +0.036 A 
ATOM     13  C   UNL     1       4.270  -0.402  -0.581  0.00  0.00    +0.024 A 
ATOM     14  C   UNL     1       5.643  -0.361  -0.677  0.00  0.00    +0.015 A 
ATOM     15  C   UNL     1       6.326   0.825  -0.392  0.00  0.00    +0.037 A 
BRANCH  12  16
ATOM     16  N   UNL     1       2.172   0.693  -0.120  0.00  0.00    -0.271 N 
ATOM     17  C   UNL     1       1.340   1.793   0.382  0.00  0.00    +0.114 C 
ATOM     18  C   UNL     1      -0.094   1.479  -0.100  0.00  0.00    +0.029 C 
ATOM     19  C   UNL     1      -0.044  -0.059  -0.256  0.00  0.00    +0.098 C 
ATOM     20  C   UNL     1       1.421  -0.362  -0.480  0.00  0.00    +0.220 C 
ATOM     21  O   UNL     1       1.855  -1.405  -0.920  0.00  0.00    -0.275 OA
ENDBRANCH  12  16
ENDBRANCH   6  15
ENDBRANCH   5   8
ENDBRANCH   1   5
BRANCH   3  22
ATOM     22  C   UNL     1      12.294  -3.043  -1.931  0.00  0.00    +0.092 C 
BRANCH  22  23
ATOM     23  C   UNL     1      13.824  -3.031  -1.911  0.00  0.00    -0.050 C 
ATOM     24  C   UNL     1      14.352  -4.356  -2.463  0.00  0.00    -0.010 C 
ATOM     25  C   UNL     1      13.840  -5.509  -1.598  0.00  0.00    -0.001 C 
ATOM     26  C   UNL     1      14.329  -5.325  -0.160  0.00  0.00    -0.000 C 
ATOM     27  C   UNL     1      13.801  -3.999   0.392  0.00  0.00    -0.001 C 
ATOM     28  C   UNL     1      14.313  -2.846  -0.474  0.00  0.00    -0.010 C 
BRANCH  23  34
ATOM     29  C   UNL     1      13.872  -2.073  -4.134  0.00  0.00    -0.078 C 
ATOM     30  C   UNL     1      14.277  -0.834  -4.936  0.00  0.00    -0.019 C 
ATOM     31  C   UNL     1      15.798  -0.671  -4.880  0.00  0.00    -0.004 C 
ATOM     32  C   UNL     1      16.240  -0.566  -3.418  0.00  0.00    -0.019 C 
ATOM     33  C   UNL     1      15.777  -1.813  -2.660  0.00  0.00    -0.078 C 
ATOM     34  N   UNL     1      14.303  -1.899  -2.731  0.00  0.00    +0.384 N 
ATOM     35  H   UNL     1      13.901  -1.028  -2.364  0.00  0.00    -0.081 HD
ENDBRANCH  23  34
ENDBRANCH  22  23
ENDBRANCH   3  22
TORSDOF 7
