REMARK  Name = ZINC42699726
REMARK  9 active torsions:
REMARK  status: ('A' for Active; 'I' for Inactive)
REMARK    1  A    between atoms: C_1  and  C_2
REMARK    2  A    between atoms: C_3  and  C_11
REMARK    3  A    between atoms: C_4  and  S_9
REMARK    4  A    between atoms: S_9  and  C_10
REMARK    5  A    between atoms: N_13  and  C_14
REMARK    6  A    between atoms: N_13  and  C_15
REMARK    7  A    between atoms: C_15  and  C_16
REMARK    8  A    between atoms: C_16  and  C_18
REMARK    9  A    between atoms: C_16  and  C_19
REMARK                            x       y       z     vdW  Elec       q    Type
REMARK                         _______ _______ _______ _____ _____    ______ ____
ROOT
ATOM      1  C   UNL     1      -0.013   1.086   0.008  0.00  0.00    +0.066 C 
ATOM      2  C   UNL     1      -0.742   1.585  -1.213  0.00  0.00    +0.058 A 
ATOM      3  C   UNL     1      -0.047   1.832  -2.402  0.00  0.00    +0.090 A 
ATOM      4  C   UNL     1      -0.780   2.299  -3.515  0.00  0.00    +0.116 A 
ATOM      5  N   UNL     1      -2.090   2.483  -3.388  0.00  0.00    -0.184 NA
ATOM      6  C   UNL     1      -2.700   2.235  -2.241  0.00  0.00    +0.369 A 
ATOM      7  O   UNL     1      -4.035   2.435  -2.153  0.00  0.00    -0.243 OA
ATOM      8  N   UNL     1      -2.046   1.790  -1.177  0.00  0.00    -0.196 NA
ENDROOT
BRANCH   3   9
ATOM      9  C   UNL     1       1.405   1.612  -2.489  0.00  0.00    +0.251 C 
ATOM     10  O   UNL     1       1.837   0.527  -2.831  0.00  0.00    -0.270 OA
ATOM     11  N   UNL     1       2.258   2.612  -2.192  0.00  0.00    -0.300 N 
ATOM     12  C   UNL     1       1.739   3.919  -1.780  0.00  0.00    +0.132 C 
BRANCH  11  13
ATOM     13  C   UNL     1       3.704   2.393  -2.279  0.00  0.00    +0.122 C 
BRANCH  13  14
ATOM     14  C   UNL     1       4.189   2.743  -3.687  0.00  0.00    +0.116 C 
ATOM     15  C   UNL     1       3.990   4.239  -3.938  0.00  0.00    +0.021 C 
BRANCH  14  16
ATOM     16  C   UNL     1       5.651   2.402  -3.814  0.00  0.00    +0.360 C 
ATOM     17  O   UNL     1       6.073   1.901  -4.843  0.00  0.00    -0.246 OA
ATOM     18  O   UNL     1       6.412   2.627  -2.889  0.00  0.00    -0.246 OA
ENDBRANCH  14  16
ENDBRANCH  13  14
ENDBRANCH  11  13
ENDBRANCH   3   9
BRANCH   4  19
ATOM     19  S   UNL     1       0.029   2.632  -5.045  0.00  0.00    -0.108 S 
ATOM     20  C   UNL     1      -1.308   3.194  -6.135  0.00  0.00    +0.091 C 
ENDBRANCH   4  19
TORSDOF 5
