REMARK  Name = ZINC40036857
REMARK  6 active torsions:
REMARK  status: ('A' for Active; 'I' for Inactive)
REMARK    1  A    between atoms: C_1  and  C_2
REMARK    2  A    between atoms: C_2  and  C_3
REMARK    3  A    between atoms: C_6  and  C_9
REMARK    4  A    between atoms: N_10  and  N_11
REMARK    5  A    between atoms: N_18  and  C_19
REMARK    6  A    between atoms: C_19  and  C_20
REMARK                            x       y       z     vdW  Elec       q    Type
REMARK                         _______ _______ _______ _____ _____    ______ ____
ROOT
ATOM      1  N   UNL     1       4.631  -2.517  -5.862  0.00  0.00    -0.206 N 
ATOM      2  C   UNL     1       5.984  -2.733  -5.840  0.00  0.00    +0.219 A 
ATOM      3  N   UNL     1       6.654  -2.514  -4.726  0.00  0.00    -0.214 NA
ATOM      4  C   UNL     1       7.975  -2.709  -4.668  0.00  0.00    +0.084 A 
ATOM      5  C   UNL     1       8.653  -3.183  -5.781  0.00  0.00    +0.050 A 
ATOM      6  C   UNL     1       7.936  -3.408  -6.964  0.00  0.00    +0.260 A 
ATOM      7  O   UNL     1       8.501  -3.813  -7.967  0.00  0.00    -0.267 OA
ATOM      8  N   UNL     1       6.607  -3.173  -6.969  0.00  0.00    -0.276 N 
ATOM      9  C   UNL     1      10.127  -3.474  -5.710  0.00  0.00    +0.007 C 
ATOM     10  C   UNL     1      10.340  -4.882  -5.146  0.00  0.00    +0.012 C 
ATOM     11  C   UNL     1      11.838  -5.184  -5.080  0.00  0.00    +0.001 C 
ATOM     12  C   UNL     1      12.438  -5.106  -6.485  0.00  0.00    +0.000 C 
ATOM     13  C   UNL     1      12.223  -3.701  -7.053  0.00  0.00    +0.001 C 
ATOM     14  C   UNL     1      10.724  -3.402  -7.120  0.00  0.00    +0.012 C 
ATOM     15  C   UNL     1      10.831  -2.458  -4.813  0.00  0.00    +0.047 C 
ATOM     16  C   UNL     1      10.125  -2.337  -3.489  0.00  0.00    -0.037 A 
ATOM     17  C   UNL     1       8.736  -2.445  -3.426  0.00  0.00    +0.004 A 
ATOM     18  C   UNL     1       8.080  -2.308  -2.206  0.00  0.00    +0.010 A 
ATOM     19  C   UNL     1       8.812  -2.078  -1.058  0.00  0.00    +0.001 A 
ATOM     20  C   UNL     1      10.191  -1.986  -1.122  0.00  0.00    +0.000 A 
ATOM     21  C   UNL     1      10.846  -2.115  -2.334  0.00  0.00    +0.004 A 
ATOM     22  H   UNL     1       4.127  -2.678  -6.675  0.00  0.00    +0.177 HD
ENDROOT
BRANCH   1  24
ATOM     23  C   UNL     1       2.694  -1.860  -4.729  0.00  0.00    +0.138 C 
ATOM     24  N   UNL     1       3.975  -2.064  -4.709  0.00  0.00    -0.188 NA
BRANCH  23  28
ATOM     25  C   UNL     1       0.707  -0.490  -1.238  0.00  0.00    -0.048 A 
ATOM     26  C   UNL     1      -0.014  -0.718  -2.396  0.00  0.00    +0.004 A 
ATOM     27  C   UNL     1       0.625  -1.163  -3.535  0.00  0.00    +0.010 A 
ATOM     28  C   UNL     1       2.004  -1.384  -3.516  0.00  0.00    -0.005 A 
ATOM     29  C   UNL     1       2.726  -1.151  -2.344  0.00  0.00    +0.010 A 
ATOM     30  C   UNL     1       2.075  -0.701  -1.214  0.00  0.00    +0.004 A 
BRANCH  25  32
ATOM     31  C   UNL     1      -0.019   1.526   0.010  0.00  0.00    +0.009 C 
ATOM     32  C   UNL     1       0.002  -0.004   0.002  0.00  0.00    +0.032 C 
ENDBRANCH  25  32
ENDBRANCH  23  28
ENDBRANCH   1  24
BRANCH   8  33
ATOM     33  C   UNL     1       5.832  -3.386  -8.194  0.00  0.00    +0.155 C 
BRANCH  33  34
ATOM     34  C   UNL     1       5.811  -2.115  -9.003  0.00  0.00    -0.013 C 
ATOM     35  C   UNL     1       6.213  -2.126 -10.250  0.00  0.00    +0.005 C 
ENDBRANCH  33  34
ENDBRANCH   8  33
TORSDOF 5
