REMARK  Name = ZINC09601883
REMARK  7 active torsions:
REMARK  status: ('A' for Active; 'I' for Inactive)
REMARK    1  A    between atoms: C_1  and  C_2
REMARK    2  A    between atoms: C_2  and  C_3
REMARK    3  A    between atoms: C_3  and  C_4
REMARK    4  A    between atoms: C_4  and  C_5
REMARK    5  A    between atoms: C_5  and  S_6
REMARK    6  A    between atoms: S_6  and  C_7
REMARK    7  A    between atoms: C_20  and  C_23
REMARK                            x       y       z     vdW  Elec       q    Type
REMARK                         _______ _______ _______ _____ _____    ______ ____
ROOT
ATOM      1  C   UNL     1      -0.840   1.662   6.497  0.00  0.00    +0.212 A 
ATOM      2  N   UNL     1      -0.529   1.450   7.772  0.00  0.00    -0.184 NA
ATOM      3  C   UNL     1      -1.289   1.974   8.718  0.00  0.00    +0.248 A 
ATOM      4  C   UNL     1      -2.409   2.749   8.339  0.00  0.00    +0.156 A 
ATOM      5  N   UNL     1      -2.664   2.919   7.051  0.00  0.00    -0.141 NA
ATOM      6  N   UNL     1      -1.895   2.393   6.161  0.00  0.00    -0.122 NA
ATOM      7  C   UNL     1      -3.265   3.354   9.380  0.00  0.00    +0.029 A 
ATOM      8  C   UNL     1      -4.650   3.265   9.326  0.00  0.00    +0.027 A 
ATOM      9  C   UNL     1      -5.416   3.872  10.302  0.00  0.00    +0.019 A 
ATOM     10  C   UNL     1      -4.811   4.568  11.335  0.00  0.00    +0.017 A 
ATOM     11  C   UNL     1      -3.433   4.659  11.405  0.00  0.00    +0.025 A 
ATOM     12  C   UNL     1      -2.653   4.053  10.438  0.00  0.00    +0.040 A 
ATOM     13  N   UNL     1      -1.256   4.111  10.486  0.00  0.00    -0.305 N 
ATOM     14  C   UNL     1      -0.511   2.888  10.766  0.00  0.00    +0.300 C 
ATOM     15  O   UNL     1      -1.018   1.780  10.031  0.00  0.00    -0.448 OA
ATOM     16 BR   UNL     1      -7.302   3.752  10.228  0.00  0.00    -0.050 Br
ATOM     17  H   UNL     1      -0.792   4.950  10.336  0.00  0.00    +0.150 HD
ENDROOT
BRANCH  14  18
ATOM     18  C   UNL     1      -0.604   2.584  12.239  0.00  0.00    +0.048 A 
ATOM     19  C   UNL     1       0.305   1.984  13.046  0.00  0.00    +0.016 A 
ATOM     20  C   UNL     1       0.003   1.811  14.383  0.00  0.00    +0.008 A 
ATOM     21  C   UNL     1      -1.197   2.237  14.847  0.00  0.00    +0.045 A 
ATOM     22  S   UNL     1      -1.942   2.915  13.373  0.00  0.00    -0.096 S 
ENDBRANCH  14  18
BRANCH   1  23
ATOM     23  S   UNL     1       0.170   0.966   5.231  0.00  0.00    -0.084 S 
BRANCH  23  24
ATOM     24  C   UNL     1      -0.705   1.566   3.765  0.00  0.00    +0.077 C 
BRANCH  24  25
ATOM     25  C   UNL     1       0.011   1.072   2.506  0.00  0.00    +0.011 C 
BRANCH  25  26
ATOM     26  C   UNL     1      -0.729   1.579   1.267  0.00  0.00    +0.001 C 
BRANCH  26  28
ATOM     27  C   UNL     1      -0.753   1.593  -1.232  0.00  0.00    +0.004 C 
ATOM     28  C   UNL     1      -0.013   1.086   0.008  0.00  0.00    -0.003 C 
ENDBRANCH  26  28
ENDBRANCH  25  26
ENDBRANCH  24  25
ENDBRANCH  23  24
ENDBRANCH   1  23
TORSDOF 6
