REMARK  Name = ZINC63628047
REMARK  12 active torsions:
REMARK  status: ('A' for Active; 'I' for Inactive)
REMARK    1  A    between atoms: C_1  and  C_2
REMARK    2  A    between atoms: C_2  and  O_3
REMARK    3  A    between atoms: O_3  and  C_4
REMARK    4  A    between atoms: C_6  and  C_16
REMARK    5  A    between atoms: C_8  and  O_13
REMARK    6  A    between atoms: C_9  and  O_10
REMARK    7  A    between atoms: O_10  and  C_11
REMARK    8  A    between atoms: C_11  and  C_12
REMARK    9  A    between atoms: O_13  and  C_14
REMARK   10  A    between atoms: C_14  and  C_15
REMARK   11  A    between atoms: N_18  and  C_19
REMARK   12  A    between atoms: C_22  and  C_25
REMARK                            x       y       z     vdW  Elec       q    Type
REMARK                         _______ _______ _______ _____ _____    ______ ____
ROOT
ATOM      1  C   UNL     1      -0.213  -4.962   0.454  0.00  0.00    +0.248 C 
ATOM      2  O   UNL     1      -0.768  -4.512   1.438  0.00  0.00    -0.270 OA
ATOM      3  N   UNL     1      -0.109  -6.296   0.290  0.00  0.00    -0.281 N 
ATOM      4  H   UNL     1       0.273  -6.656  -0.525  0.00  0.00    +0.155 HD
ENDROOT
BRANCH   1   7
ATOM      5  C   UNL     1       0.767  -1.811  -1.343  0.00  0.00    +0.166 A 
ATOM      6  C   UNL     1       0.241  -2.665  -0.391  0.00  0.00    +0.062 A 
ATOM      7  C   UNL     1       0.347  -4.048  -0.560  0.00  0.00    +0.044 A 
ATOM      8  C   UNL     1       0.986  -4.564  -1.690  0.00  0.00    +0.062 A 
ATOM      9  C   UNL     1       1.511  -3.706  -2.639  0.00  0.00    +0.166 A 
ATOM     10  C   UNL     1       1.398  -2.328  -2.471  0.00  0.00    +0.204 A 
BRANCH   5  11
ATOM     11  O   UNL     1       0.663  -0.465  -1.179  0.00  0.00    -0.488 OA
BRANCH  11  13
ATOM     12  C   UNL     1      -0.017   1.526   0.010  0.00  0.00    +0.048 C 
ATOM     13  C   UNL     1       0.003  -0.004   0.001  0.00  0.00    +0.226 C 
ENDBRANCH  11  13
ENDBRANCH   5  11
BRANCH  10  14
ATOM     14  O   UNL     1       1.910  -1.487  -3.407  0.00  0.00    -0.485 OA
BRANCH  14  15
ATOM     15  C   UNL     1       3.268  -1.074  -3.236  0.00  0.00    +0.226 C 
ATOM     16  C   UNL     1       3.664  -0.137  -4.378  0.00  0.00    +0.048 C 
ENDBRANCH  14  15
ENDBRANCH  10  14
BRANCH   9  17
ATOM     17  O   UNL     1       2.133  -4.208  -3.739  0.00  0.00    -0.488 OA
BRANCH  17  18
ATOM     18  C   UNL     1       2.208  -5.630  -3.849  0.00  0.00    +0.226 C 
ATOM     19  C   UNL     1       2.937  -6.004  -5.142  0.00  0.00    +0.048 C 
ENDBRANCH  17  18
ENDBRANCH   9  17
ENDBRANCH   1   7
BRANCH   3  20
ATOM     20  C   UNL     1      -0.553  -7.160   1.296  0.00  0.00    +0.034 A 
ATOM     21  C   UNL     1       0.125  -8.347   1.542  0.00  0.00    +0.023 A 
ATOM     22  C   UNL     1      -0.316  -9.199   2.536  0.00  0.00    +0.008 A 
ATOM     23  C   UNL     1      -1.431  -8.871   3.285  0.00  0.00    -0.021 A 
ATOM     24  C   UNL     1      -2.108  -7.690   3.042  0.00  0.00    +0.008 A 
ATOM     25  C   UNL     1      -1.669  -6.831   2.054  0.00  0.00    +0.023 A 
BRANCH  23  26
ATOM     26  C   UNL     1      -1.910  -9.803   4.369  0.00  0.00    +0.133 C 
ATOM     27  C   UNL     1      -1.495  -9.281   5.726  0.00  0.00    +0.012 C 
ATOM     28  C   UNL     1      -2.641  -9.066   6.411  0.00  0.00    -0.001 A 
ATOM     29  C   UNL     1      -2.911  -8.569   7.765  0.00  0.00    +0.048 A 
ATOM     30  C   UNL     1      -4.195  -8.459   8.181  0.00  0.00    +0.124 A 
ATOM     31  C   UNL     1      -5.271  -8.807   7.349  0.00  0.00    +0.040 A 
ATOM     32  C   UNL     1      -5.101  -9.270   6.093  0.00  0.00    +0.029 A 
ATOM     33  C   UNL     1      -3.793  -9.426   5.554  0.00  0.00    +0.043 A 
ATOM     34  N   UNL     1      -3.376  -9.849   4.384  0.00  0.00    -0.374 N 
ATOM     35  F   UNL     1      -4.447  -8.002   9.427  0.00  0.00    -0.205 F 
ATOM     36  H   UNL     1      -3.941 -10.143   3.653  0.00  0.00    +0.161 HD
ENDBRANCH  23  26
ENDBRANCH   3  20
TORSDOF 9
