REMARK  Name = ZINC39772335
REMARK  10 active torsions:
REMARK  status: ('A' for Active; 'I' for Inactive)
REMARK    1  A    between atoms: C_1  and  C_2
REMARK    2  A    between atoms: C_2  and  C_3
REMARK    3  A    between atoms: C_4  and  C_32
REMARK    4  A    between atoms: C_9  and  C_11
REMARK    5  A    between atoms: C_11  and  C_13
REMARK    6  A    between atoms: C_11  and  S_14
REMARK    7  A    between atoms: S_14  and  C_15
REMARK    8  A    between atoms: C_18  and  C_23
REMARK    9  A    between atoms: N_19  and  C_20
REMARK   10  A    between atoms: C_20  and  C_21
REMARK                            x       y       z     vdW  Elec       q    Type
REMARK                         _______ _______ _______ _____ _____    ______ ____
ROOT
ATOM      1  C   UNL     1      -8.921  -2.493  -4.260  0.00  0.00    +0.193 A 
ATOM      2  N   UNL     1      -8.542  -2.276  -5.499  0.00  0.00    -0.122 NA
ATOM      3  N   UNL     1      -9.527  -2.467  -6.302  0.00  0.00    -0.128 NA
ATOM      4  C   UNL     1     -10.595  -2.818  -5.625  0.00  0.00    +0.165 A 
ATOM      5  N   UNL     1     -10.239  -2.851  -4.296  0.00  0.00    -0.298 N 
ENDROOT
BRANCH   4   6
ATOM      6  C   UNL     1     -11.928  -3.125  -6.185  0.00  0.00    +0.023 A 
ATOM      7  C   UNL     1     -13.080  -2.811  -5.461  0.00  0.00    +0.015 A 
ATOM      8  C   UNL     1     -14.323  -3.098  -5.986  0.00  0.00    +0.050 A 
ATOM      9  C   UNL     1     -14.434  -3.698  -7.231  0.00  0.00    +0.166 A 
ATOM     10  C   UNL     1     -13.287  -4.014  -7.959  0.00  0.00    +0.167 A 
ATOM     11  C   UNL     1     -12.039  -3.724  -7.441  0.00  0.00    +0.061 A 
ATOM     12  O   UNL     1     -13.664  -4.589  -9.138  0.00  0.00    -0.453 OA
ATOM     13  C   UNL     1     -15.032  -4.995  -8.948  0.00  0.00    +0.466 C 
ATOM     14  O   UNL     1     -15.527  -4.076  -7.956  0.00  0.00    -0.453 OA
ENDBRANCH   4   6
BRANCH   1  15
ATOM     15  S   UNL     1      -7.915  -2.356  -2.819  0.00  0.00    -0.073 S 
BRANCH  15  16
ATOM     16  C   UNL     1      -6.296  -1.850  -3.462  0.00  0.00    +0.137 C 
ATOM     17  C   UNL     1      -5.719  -2.970  -4.330  0.00  0.00    +0.029 C 
BRANCH  16  24
ATOM     18  C   UNL     1      -1.679   0.432  -0.290  0.00  0.00    +0.053 A 
ATOM     19  C   UNL     1      -2.078  -0.267   0.801  0.00  0.00    +0.011 A 
ATOM     20  S   UNL     1      -3.516  -1.103   0.151  0.00  0.00    -0.057 S 
ATOM     21  C   UNL     1      -3.459  -0.484  -1.413  0.00  0.00    +0.165 A 
ATOM     22  N   UNL     1      -2.403   0.301  -1.385  0.00  0.00    -0.229 NA
ATOM     23  N   UNL     1      -4.320  -0.737  -2.474  0.00  0.00    -0.264 N 
ATOM     24  C   UNL     1      -5.362  -1.576  -2.311  0.00  0.00    +0.232 C 
ATOM     25  O   UNL     1      -5.549  -2.110  -1.238  0.00  0.00    -0.274 OA
ATOM     26  C   UNL     1      -1.474  -0.325   2.180  0.00  0.00    +0.053 C 
ATOM     27  H   UNL     1      -4.170  -0.310  -3.332  0.00  0.00    +0.157 HD
BRANCH  18  29
ATOM     28  C   UNL     1      -0.882   2.734   0.176  0.00  0.00    +0.010 C 
ATOM     29  C   UNL     1      -0.465   1.325  -0.251  0.00  0.00    +0.053 C 
ENDBRANCH  18  29
ENDBRANCH  16  24
ENDBRANCH  15  16
ENDBRANCH   1  15
BRANCH   5  30
ATOM     30  C   UNL     1     -11.095  -3.195  -3.158  0.00  0.00    +0.152 C 
BRANCH  30  31
ATOM     31  C   UNL     1     -11.638  -1.933  -2.538  0.00  0.00    -0.013 C 
ATOM     32  C   UNL     1     -12.928  -1.795  -2.358  0.00  0.00    +0.005 C 
ENDBRANCH  30  31
ENDBRANCH   5  30
TORSDOF 7
