REMARK  Name = ZINC27517723
REMARK  9 active torsions:
REMARK  status: ('A' for Active; 'I' for Inactive)
REMARK    1  A    between atoms: C_1  and  C_2
REMARK    2  A    between atoms: C_2  and  C_3
REMARK    3  A    between atoms: C_6  and  C_38
REMARK    4  A    between atoms: C_8  and  C_37
REMARK    5  A    between atoms: N_11  and  C_12
REMARK    6  A    between atoms: C_12  and  C_13
REMARK    7  A    between atoms: C_16  and  C_19
REMARK    8  A    between atoms: C_24  and  N_25
REMARK    9  A    between atoms: C_27  and  C_31
REMARK                            x       y       z     vdW  Elec       q    Type
REMARK                         _______ _______ _______ _____ _____    ______ ____
ROOT
ATOM      1  C   UNL     1       2.601   0.299  -0.167  0.00  0.00    -0.028 A 
ATOM      2  C   UNL     1       1.443  -0.457  -0.199  0.00  0.00    +0.006 A 
ATOM      3  C   UNL     1       0.210   0.163  -0.173  0.00  0.00    +0.009 A 
ATOM      4  C   UNL     1       0.134   1.554  -0.114  0.00  0.00    -0.016 A 
ATOM      5  C   UNL     1       1.304   2.310  -0.082  0.00  0.00    +0.009 A 
ATOM      6  C   UNL     1       2.531   1.679  -0.109  0.00  0.00    +0.006 A 
ENDROOT
BRANCH   4   7
ATOM      7  C   UNL     1      -1.188   2.226  -0.092  0.00  0.00    +0.006 A 
ATOM      8  C   UNL     1      -2.110   1.991  -1.109  0.00  0.00    +0.010 A 
ATOM      9  C   UNL     1      -3.339   2.619  -1.085  0.00  0.00    +0.001 A 
ATOM     10  C   UNL     1      -3.661   3.482  -0.052  0.00  0.00    +0.002 A 
ATOM     11  C   UNL     1      -2.757   3.725   0.963  0.00  0.00    +0.027 A 
ATOM     12  C   UNL     1      -1.518   3.096   0.955  0.00  0.00    +0.076 A 
BRANCH  12  13
ATOM     13  N   UNL     1      -0.607   3.333   1.980  0.00  0.00    -0.122 N 
ATOM     14  N   UNL     1       0.417   2.494   2.448  0.00  0.00    -0.149 NA
ATOM     15  C   UNL     1       1.134   2.938   3.412  0.00  0.00    +0.158 C 
ATOM     16  N   UNL     1       0.829   4.209   3.902  0.00  0.00    -0.230 N 
ATOM     17  S   UNL     1      -0.461   4.694   2.948  0.00  0.00    +0.229 S 
ATOM     18  O   UNL     1      -1.580   4.616   3.821  0.00  0.00    -0.214 OA
ATOM     19  H   UNL     1       1.213   4.876   4.688  0.00  0.00    +0.165 HD
BRANCH  15  20
ATOM     20  C   UNL     1       2.238   2.137   3.982  0.00  0.00    +0.017 A 
ATOM     21  C   UNL     1       2.977   2.630   5.059  0.00  0.00    +0.011 A 
ATOM     22  C   UNL     1       4.002   1.875   5.591  0.00  0.00    +0.001 A 
ATOM     23  C   UNL     1       4.306   0.637   5.051  0.00  0.00    +0.000 A 
ATOM     24  C   UNL     1       3.580   0.146   3.980  0.00  0.00    +0.001 A 
ATOM     25  C   UNL     1       2.549   0.888   3.443  0.00  0.00    +0.011 A 
ENDBRANCH  15  20
ENDBRANCH  12  13
ENDBRANCH   4   7
BRANCH   1  26
ATOM     26  C   UNL     1       3.944  -0.384  -0.197  0.00  0.00    +0.160 C 
BRANCH  26  35
ATOM     27  C   UNL     1       5.116   0.342  -2.308  0.00  0.00    +0.112 A 
ATOM     28  N   UNL     1       5.323  -0.120  -3.507  0.00  0.00    -0.230 NA
ATOM     29  C   UNL     1       4.733  -1.335  -3.632  0.00  0.00    +0.111 A 
ATOM     30  C   UNL     1       4.636  -2.263  -4.674  0.00  0.00    -0.020 A 
ATOM     31  C   UNL     1       3.937  -3.432  -4.443  0.00  0.00    +0.028 A 
ATOM     32  C   UNL     1       3.357  -3.649  -3.202  0.00  0.00    +0.041 A 
ATOM     33  N   UNL     1       3.459  -2.762  -2.234  0.00  0.00    -0.233 NA
ATOM     34  C   UNL     1       4.123  -1.629  -2.400  0.00  0.00    +0.161 A 
ATOM     35  N   UNL     1       4.379  -0.546  -1.586  0.00  0.00    -0.308 N 
ATOM     36  C   UNL     1       2.596  -4.926  -2.957  0.00  0.00    +0.065 C 
ATOM     37  C   UNL     1       5.278  -1.996  -6.011  0.00  0.00    +0.046 C 
BRANCH  27  39
ATOM     38  C   UNL     1       7.000   1.479  -1.166  0.00  0.00    +0.012 C 
ATOM     39  C   UNL     1       5.618   1.666  -1.795  0.00  0.00    +0.071 C 
ENDBRANCH  27  39
ENDBRANCH  26  35
ENDBRANCH   1  26
TORSDOF 6
