REMARK  Name = ZINC63282092
REMARK  8 active torsions:
REMARK  status: ('A' for Active; 'I' for Inactive)
REMARK    1  A    between atoms: C_1  and  C_2
REMARK    2  A    between atoms: C_2  and  C_4
REMARK    3  A    between atoms: C_2  and  N_14
REMARK    4  A    between atoms: C_4  and  C_5
REMARK    5  A    between atoms: C_15  and  C_17
REMARK    6  A    between atoms: C_21  and  C_24
REMARK    7  A    between atoms: C_27  and  O_30
REMARK    8  A    between atoms: O_30  and  C_31
REMARK                            x       y       z     vdW  Elec       q    Type
REMARK                         _______ _______ _______ _____ _____    ______ ____
ROOT
ATOM      1  N   UNL     1      -1.455  -0.292   0.015  0.00  0.00    -0.309 N 
ATOM      2  C   UNL     1      -2.135  -0.430   1.170  0.00  0.00    +0.239 C 
ATOM      3  O   UNL     1      -1.699   0.060   2.196  0.00  0.00    -0.271 OA
ATOM      4  H   UNL     1      -1.802  -0.682  -0.802  0.00  0.00    +0.149 HD
ENDROOT
BRANCH   2   5
ATOM      5  C   UNL     1      -3.356  -1.145   1.191  0.00  0.00    +0.086 C 
ATOM      6  C   UNL     1      -3.977  -1.385   2.364  0.00  0.00    +0.020 C 
ATOM      7  C   UNL     1      -5.362  -2.016   2.437  0.00  0.00    +0.121 C 
ATOM      8  S   UNL     1      -5.956  -1.283   4.023  0.00  0.00    -0.128 S 
ATOM      9  C   UNL     1      -4.296  -0.886   4.718  0.00  0.00    +0.159 C 
ATOM     10  N   UNL     1      -3.413  -1.087   3.552  0.00  0.00    -0.331 N 
ATOM     11  H   UNL     1      -2.450  -1.004   3.637  0.00  0.00    +0.147 HD
BRANCH   9  12
ATOM     12  C   UNL     1      -4.244   0.540   5.202  0.00  0.00    -0.017 A 
ATOM     13  C   UNL     1      -3.885   1.552   4.331  0.00  0.00    +0.010 A 
ATOM     14  C   UNL     1      -3.837   2.860   4.772  0.00  0.00    +0.046 A 
ATOM     15  C   UNL     1      -4.149   3.159   6.091  0.00  0.00    +0.120 A 
ATOM     16  C   UNL     1      -4.509   2.142   6.963  0.00  0.00    +0.046 A 
ATOM     17  C   UNL     1      -4.561   0.836   6.516  0.00  0.00    +0.010 A 
BRANCH  15  18
ATOM     18  O   UNL     1      -4.101   4.444   6.527  0.00  0.00    -0.495 OA
ATOM     19  C   UNL     1      -4.435   4.677   7.897  0.00  0.00    +0.277 C 
ENDBRANCH  15  18
ENDBRANCH   9  12
ENDBRANCH   2   5
BRANCH   1  21
ATOM     20  C   UNL     1      -0.477   1.943  -0.166  0.00  0.00    +0.028 C 
ATOM     21  C   UNL     1      -0.191   0.449  -0.006  0.00  0.00    +0.074 C 
BRANCH  21  22
ATOM     22  C   UNL     1       0.664  -0.035  -1.179  0.00  0.00    +0.055 C 
BRANCH  22  23
ATOM     23  C   UNL     1       1.049  -1.476  -0.960  0.00  0.00    -0.040 C 
ATOM     24  C   UNL     1       0.418  -2.569  -1.444  0.00  0.00    -0.001 A 
ATOM     25  C   UNL     1      -0.771  -2.738  -2.288  0.00  0.00    +0.010 A 
ATOM     26  C   UNL     1      -1.171  -3.988  -2.615  0.00  0.00    +0.001 A 
ATOM     27  C   UNL     1      -0.480  -5.123  -2.169  0.00  0.00    +0.002 A 
ATOM     28  C   UNL     1       0.620  -5.048  -1.391  0.00  0.00    +0.026 A 
ATOM     29  C   UNL     1       1.130  -3.784  -0.987  0.00  0.00    +0.043 A 
ATOM     30  N   UNL     1       2.161  -3.454  -0.247  0.00  0.00    -0.380 N 
ATOM     31  C   UNL     1       2.224  -1.991  -0.158  0.00  0.00    +0.144 C 
ATOM     32  H   UNL     1       2.782  -4.073   0.167  0.00  0.00    +0.160 HD
ENDBRANCH  22  23
ENDBRANCH  21  22
ENDBRANCH   1  21
TORSDOF 6
