REMARK  Name = ZINC22240164
REMARK  7 active torsions:
REMARK  status: ('A' for Active; 'I' for Inactive)
REMARK    1  A    between atoms: C_1  and  C_2
REMARK    2  A    between atoms: C_5  and  N_9
REMARK    3  A    between atoms: C_6  and  C_8
REMARK    4  A    between atoms: C_10  and  S_14
REMARK    5  A    between atoms: S_14  and  C_15
REMARK    6  A    between atoms: C_15  and  C_16
REMARK    7  A    between atoms: C_29  and  C_31
REMARK                            x       y       z     vdW  Elec       q    Type
REMARK                         _______ _______ _______ _____ _____    ______ ____
ROOT
ATOM      1  C   UNL     1       0.512   5.270   1.764  0.00  0.00    +0.231 C 
ATOM      2  O   UNL     1       0.512   6.466   1.563  0.00  0.00    -0.274 OA
ATOM      3  N   UNL     1       1.026   4.432   0.842  0.00  0.00    -0.257 N 
ATOM      4  C   UNL     1       1.033   3.047   1.061  0.00  0.00    +0.058 A 
ATOM      5  C   UNL     1      -0.140   2.315   0.990  0.00  0.00    +0.025 A 
ATOM      6  C   UNL     1      -0.107   0.944   1.166  0.00  0.00    +0.002 A 
ATOM      7  C   UNL     1       1.091   0.303   1.428  0.00  0.00    +0.002 A 
ATOM      8  C   UNL     1       2.264   1.029   1.514  0.00  0.00    +0.025 A 
ATOM      9  C   UNL     1       2.240   2.402   1.335  0.00  0.00    +0.055 A 
ATOM     10  N   UNL     1       3.409   3.163   1.450  0.00  0.00    -0.284 N 
ATOM     11  C   UNL     1       3.730   4.074   0.506  0.00  0.00    +0.219 C 
ATOM     12  O   UNL     1       4.703   4.782   0.659  0.00  0.00    -0.275 OA
ATOM     13  C   UNL     1       2.889   4.216  -0.735  0.00  0.00    +0.128 C 
ATOM     14  C   UNL     1       1.588   4.950  -0.406  0.00  0.00    +0.194 C 
ATOM     15  H   UNL     1       4.075   3.021   2.315  0.00  0.00    +0.155 HD
ENDROOT
BRANCH  14  16
ATOM     16  C   UNL     1       0.584   4.737  -1.541  0.00  0.00    +0.409 C 
ATOM     17  F   UNL     1       0.325   3.370  -1.684  0.00  0.00    -0.169 F 
ATOM     18  F   UNL     1      -0.607   5.408  -1.242  0.00  0.00    -0.169 F 
ATOM     19  F   UNL     1       1.115   5.239  -2.734  0.00  0.00    -0.169 F 
ENDBRANCH  14  16
BRANCH   1  20
ATOM     20  C   UNL     1      -0.062   4.722   3.045  0.00  0.00    +0.173 C 
BRANCH  20  21
ATOM     21  S   UNL     1      -0.668   6.086   4.067  0.00  0.00    -0.075 S 
BRANCH  21  23
ATOM     22  N   UNL     1      -1.841   5.705   6.571  0.00  0.00    -0.187 N 
ATOM     23  C   UNL     1      -1.267   5.184   5.458  0.00  0.00    +0.214 A 
ATOM     24  N   UNL     1      -1.236   3.878   5.615  0.00  0.00    -0.101 NA
ATOM     25  N   UNL     1      -1.754   3.549   6.743  0.00  0.00    -0.022 NA
ATOM     26  N   UNL     1      -2.147   4.598   7.380  0.00  0.00    -0.038 NA
BRANCH  22  31
ATOM     27  C   UNL     1      -2.808  11.181   7.710  0.00  0.00    +0.044 C 
ATOM     28  C   UNL     1      -2.551   9.727   7.408  0.00  0.00    -0.050 A 
ATOM     29  C   UNL     1      -1.310   9.327   6.948  0.00  0.00    +0.005 A 
ATOM     30  C   UNL     1      -1.072   7.995   6.670  0.00  0.00    +0.028 A 
ATOM     31  C   UNL     1      -2.080   7.058   6.853  0.00  0.00    +0.073 A 
ATOM     32  C   UNL     1      -3.326   7.464   7.309  0.00  0.00    -0.025 A 
ATOM     33  C   UNL     1      -3.557   8.796   7.591  0.00  0.00    +0.008 A 
ATOM     34  C   UNL     1      -4.425   6.451   7.503  0.00  0.00    +0.046 C 
ENDBRANCH  22  31
ENDBRANCH  21  23
ENDBRANCH  20  21
ENDBRANCH   1  20
TORSDOF 5
