REMARK  Name = ZINC09673719
REMARK  6 active torsions:
REMARK  status: ('A' for Active; 'I' for Inactive)
REMARK    1  A    between atoms: C_1  and  S_2
REMARK    2  A    between atoms: S_2  and  N_5
REMARK    3  A    between atoms: N_5  and  C_6
REMARK    4  A    between atoms: C_9  and  C_12
REMARK    5  A    between atoms: C_15  and  C_18
REMARK    6  A    between atoms: C_23  and  C_25
REMARK                            x       y       z     vdW  Elec       q    Type
REMARK                         _______ _______ _______ _____ _____    ______ ____
ROOT
ATOM      1  C   UNL     1       2.307   0.228  -0.450  0.00  0.00    +0.069 C 
ATOM      2  N   UNL     1       1.565  -0.809  -0.635  0.00  0.00    -0.181 NA
ATOM      3  N   UNL     1       0.199  -0.535  -0.654  0.00  0.00    -0.178 N 
ATOM      4  C   UNL     1      -0.000   0.908  -0.449  0.00  0.00    +0.173 C 
ATOM      5  C   UNL     1       1.434   1.454  -0.306  0.00  0.00    +0.090 C 
ATOM      6  C   UNL     1      -0.780  -1.444  -0.832  0.00  0.00    +0.266 C 
ATOM      7  O   UNL     1      -1.945  -1.109  -0.741  0.00  0.00    -0.268 OA
ENDROOT
BRANCH   6   8
ATOM      8  C   UNL     1      -0.438  -2.849  -1.136  0.00  0.00    +0.039 A 
ATOM      9  C   UNL     1       0.895  -3.265  -1.119  0.00  0.00    +0.014 A 
ATOM     10  C   UNL     1       1.208  -4.578  -1.400  0.00  0.00    +0.021 A 
ATOM     11  C   UNL     1       0.204  -5.481  -1.709  0.00  0.00    +0.041 A 
ATOM     12  C   UNL     1      -1.119  -5.073  -1.732  0.00  0.00    +0.021 A 
ATOM     13  C   UNL     1      -1.445  -3.764  -1.448  0.00  0.00    +0.014 A 
ATOM     14 CL   UNL     1       0.607  -7.132  -2.068  0.00  0.00    -0.084 Cl
ENDBRANCH   6   8
BRANCH   1  18
ATOM     15  C   UNL     1       6.549   0.206  -0.270  0.00  0.00    +0.048 A 
ATOM     16  C   UNL     1       5.857  -0.983  -0.475  0.00  0.00    +0.025 A 
ATOM     17  C   UNL     1       4.481  -0.980  -0.534  0.00  0.00    +0.011 A 
ATOM     18  C   UNL     1       3.780   0.221  -0.387  0.00  0.00    -0.002 A 
ATOM     19  C   UNL     1       4.479   1.414  -0.186  0.00  0.00    +0.011 A 
ATOM     20  C   UNL     1       5.854   1.402  -0.123  0.00  0.00    +0.025 A 
BRANCH  15  21
ATOM     21  N   UNL     1       7.942   0.199  -0.210  0.00  0.00    -0.221 N 
ATOM     22  H   UNL     1       8.392   0.296   0.643  0.00  0.00    +0.173 HD
BRANCH  21  24
ATOM     23  C   UNL     1       8.417   1.478  -2.601  0.00  0.00    +0.218 C 
ATOM     24  S   UNL     1       8.829   0.024  -1.598  0.00  0.00    +0.040 S 
ATOM     25  O   UNL     1      10.184   0.090  -1.173  0.00  0.00    -0.155 OA
ATOM     26  O   UNL     1       8.318  -1.153  -2.209  0.00  0.00    -0.155 OA
ENDBRANCH  21  24
ENDBRANCH  15  21
ENDBRANCH   1  18
BRANCH   4  27
ATOM     27  C   UNL     1      -0.686   1.524  -1.641  0.00  0.00    +0.128 A 
ATOM     28  C   UNL     1      -1.626   2.484  -1.599  0.00  0.00    +0.046 A 
ATOM     29  C   UNL     1      -1.989   2.762  -2.937  0.00  0.00    +0.041 A 
ATOM     30  C   UNL     1      -1.249   1.954  -3.717  0.00  0.00    +0.195 A 
ATOM     31  O   UNL     1      -0.457   1.210  -2.927  0.00  0.00    -0.466 OA
ENDBRANCH   4  27
TORSDOF 5
