REMARK  Name = ZINC39609130
REMARK  8 active torsions:
REMARK  status: ('A' for Active; 'I' for Inactive)
REMARK    1  A    between atoms: C_1  and  C_2
REMARK    2  A    between atoms: C_7  and  C_8
REMARK    3  A    between atoms: C_8  and  C_9
REMARK    4  A    between atoms: C_13  and  C_22
REMARK    5  A    between atoms: N_24  and  C_25
REMARK    6  A    between atoms: C_30  and  O_32
REMARK    7  A    between atoms: O_32  and  C_33
REMARK    8  A    between atoms: C_33  and  C_34
REMARK                            x       y       z     vdW  Elec       q    Type
REMARK                         _______ _______ _______ _____ _____    ______ ____
ROOT
ATOM      1  C   UNL     1      -1.521   0.373   2.916  0.00  0.00    +0.220 C 
ATOM      2  O   UNL     1      -2.454   0.088   2.195  0.00  0.00    -0.275 OA
ATOM      3  N   UNL     1      -1.734   1.069   4.050  0.00  0.00    -0.300 N 
ATOM      4  C   UNL     1      -0.730   1.512   5.046  0.00  0.00    +0.121 C 
ATOM      5  C   UNL     1      -1.190   2.928   5.460  0.00  0.00    +0.100 C 
ATOM      6  C   UNL     1      -2.697   2.956   5.156  0.00  0.00    -0.004 C 
ATOM      7  C   UNL     1      -3.025   1.571   4.579  0.00  0.00    +0.115 C 
ATOM      8  C   UNL     1      -3.007   4.037   4.125  0.00  0.00    -0.010 C 
ATOM      9  C   UNL     1      -4.519   4.083   3.881  0.00  0.00    -0.082 C 
ATOM     10  N   UNL     1      -5.211   4.370   5.143  0.00  0.00    +0.379 N 
ATOM     11  C   UNL     1      -4.982   3.279   6.098  0.00  0.00    -0.082 C 
ATOM     12  C   UNL     1      -3.491   3.198   6.436  0.00  0.00    -0.010 C 
ATOM     13  H   UNL     1      -4.860   5.233   5.530  0.00  0.00    -0.086 HD
ATOM     14  H   UNL     1      -6.201   4.460   4.969  0.00  0.00    -0.086 HD
ENDROOT
BRANCH   5  15
ATOM     15  C   UNL     1      -0.945   3.149   6.931  0.00  0.00    +0.218 C 
ATOM     16  O   UNL     1      -1.008   2.216   7.703  0.00  0.00    -0.275 OA
ATOM     17  N   UNL     1      -0.656   4.384   7.387  0.00  0.00    -0.310 N 
ATOM     18  H   UNL     1      -0.605   5.130   6.770  0.00  0.00    +0.149 HD
BRANCH  17  19
ATOM     19  C   UNL     1      -0.418   4.599   8.817  0.00  0.00    +0.102 C 
ATOM     20  C   UNL     1      -1.751   4.863   9.539  0.00  0.00    +0.025 C 
ATOM     21  C   UNL     1      -1.645   6.271  10.161  0.00  0.00    +0.004 C 
ATOM     22  C   UNL     1      -0.121   6.507  10.308  0.00  0.00    +0.033 C 
ATOM     23  C   UNL     1       0.453   5.856   9.024  0.00  0.00    +0.139 C 
BRANCH  23  24
ATOM     24  O   UNL     1       1.821   5.490   9.216  0.00  0.00    -0.370 OA
BRANCH  24  25
ATOM     25  C   UNL     1       2.754   6.469   8.756  0.00  0.00    +0.195 C 
BRANCH  25  26
ATOM     26  C   UNL     1       4.158   5.982   9.007  0.00  0.00    -0.022 A 
ATOM     27  C   UNL     1       4.787   6.273  10.203  0.00  0.00    +0.006 A 
ATOM     28  C   UNL     1       6.075   5.826  10.433  0.00  0.00    +0.000 A 
ATOM     29  C   UNL     1       6.733   5.088   9.467  0.00  0.00    +0.000 A 
ATOM     30  C   UNL     1       6.104   4.797   8.271  0.00  0.00    +0.000 A 
ATOM     31  C   UNL     1       4.814   5.240   8.043  0.00  0.00    +0.006 A 
ENDBRANCH  25  26
ENDBRANCH  24  25
ENDBRANCH  23  24
ENDBRANCH  17  19
ENDBRANCH   5  15
BRANCH   1  32
ATOM     32  C   UNL     1      -0.124  -0.053   2.544  0.00  0.00    +0.131 C 
BRANCH  32  39
ATOM     33  C   UNL     1      -0.058   1.380   0.035  0.00  0.00    +0.044 C 
ATOM     34  C   UNL     1      -0.128  -0.126   0.042  0.00  0.00    -0.047 A 
ATOM     35  C   UNL     1      -0.155  -0.822  -1.152  0.00  0.00    +0.003 A 
ATOM     36  C   UNL     1      -0.219  -2.202  -1.146  0.00  0.00    +0.000 A 
ATOM     37  C   UNL     1      -0.256  -2.887   0.054  0.00  0.00    +0.000 A 
ATOM     38  C   UNL     1      -0.228  -2.192   1.248  0.00  0.00    +0.004 A 
ATOM     39  C   UNL     1      -0.160  -0.811   1.242  0.00  0.00    -0.036 A 
ENDBRANCH  32  39
ENDBRANCH   1  32
TORSDOF 7
