REMARK  Name = ZINC08882956
REMARK  4 active torsions:
REMARK  status: ('A' for Active; 'I' for Inactive)
REMARK    1  A    between atoms: N_15  and  S_17
REMARK    2  A    between atoms: S_17  and  C_20
REMARK    3  A    between atoms: C_23  and  N_26
REMARK    4  A    between atoms: C_27  and  C_29
REMARK                            x       y       z     vdW  Elec       q    Type
REMARK                         _______ _______ _______ _____ _____    ______ ____
ROOT
ATOM      1  C   UNL     1       0.923   6.312   0.296  0.00  0.00    +0.106 A 
ATOM      2  C   UNL     1       2.154   5.691   0.186  0.00  0.00    +0.030 A 
ATOM      3  C   UNL     1       2.229   4.316   0.088  0.00  0.00    +0.025 A 
ATOM      4  C   UNL     1       1.067   3.555   0.101  0.00  0.00    +0.034 A 
ATOM      5  C   UNL     1      -0.168   4.182   0.206  0.00  0.00    +0.025 A 
ATOM      6  C   UNL     1      -0.236   5.558   0.309  0.00  0.00    +0.030 A 
ENDROOT
BRANCH   4   7
ATOM      7  N   UNL     1       1.140   2.162   0.003  0.00  0.00    -0.281 N 
ATOM      8  C   UNL     1       2.164   1.499   0.575  0.00  0.00    +0.250 C 
ATOM      9  O   UNL     1       3.067   2.116   1.107  0.00  0.00    -0.270 OA
ATOM     10  H   UNL     1       0.453   1.673  -0.477  0.00  0.00    +0.155 HD
BRANCH   8  11
ATOM     11  C   UNL     1       2.188   0.022   0.559  0.00  0.00    +0.055 A 
ATOM     12  C   UNL     1       1.151  -0.690  -0.047  0.00  0.00    +0.016 A 
ATOM     13  C   UNL     1       1.179  -2.068  -0.058  0.00  0.00    +0.021 A 
ATOM     14  C   UNL     1       2.233  -2.748   0.530  0.00  0.00    +0.042 A 
ATOM     15  C   UNL     1       3.265  -2.049   1.133  0.00  0.00    +0.040 A 
ATOM     16  C   UNL     1       3.252  -0.668   1.146  0.00  0.00    +0.054 A 
ATOM     17 CL   UNL     1       4.550   0.207   1.896  0.00  0.00    -0.083 Cl
ATOM     18 CL   UNL     1       2.260  -4.483   0.511  0.00  0.00    -0.083 Cl
ENDBRANCH   8  11
ENDBRANCH   4   7
BRANCH   1  19
ATOM     19  S   UNL     1       0.831   8.067   0.420  0.00  0.00    +0.061 S 
ATOM     20  O   UNL     1      -0.401   8.365   1.062  0.00  0.00    -0.153 OA
ATOM     21  O   UNL     1       2.082   8.504   0.933  0.00  0.00    -0.153 OA
BRANCH  19  34
ATOM     22  C   UNL     1      -1.426  12.266   0.918  0.00  0.00    +0.007 A 
ATOM     23  C   UNL     1      -1.549  11.520  -0.259  0.00  0.00    +0.022 A 
ATOM     24  C   UNL     1      -0.471  11.197  -0.990  0.00  0.00    +0.026 A 
ATOM     25  N   UNL     1       0.774  11.641  -0.627  0.00  0.00    -0.312 N 
ATOM     26  C   UNL     1       0.929  12.298   0.549  0.00  0.00    +0.251 A 
ATOM     27  O   UNL     1       2.050  12.591   0.933  0.00  0.00    -0.268 OA
ATOM     28  C   UNL     1      -0.182  12.645   1.329  0.00  0.00    +0.070 A 
ATOM     29  C   UNL     1       1.971  11.468  -1.450  0.00  0.00    +0.130 C 
ATOM     30  C   UNL     1       1.800  10.390  -2.504  0.00  0.00    +0.025 C 
ATOM     31  C   UNL     1       0.462  10.572  -3.221  0.00  0.00    +0.017 C 
ATOM     32  C   UNL     1      -0.663  10.329  -2.212  0.00  0.00    +0.052 C 
ATOM     33  C   UNL     1      -0.594   8.861  -1.757  0.00  0.00    +0.119 C 
ATOM     34  N   UNL     1       0.719   8.662  -1.121  0.00  0.00    -0.176 NA
ATOM     35  C   UNL     1       1.925   9.007  -1.883  0.00  0.00    +0.114 C 
ENDBRANCH  19  34
ENDBRANCH   1  19
TORSDOF 4
