REMARK  Name = ZINC11881794
REMARK  9 active torsions:
REMARK  status: ('A' for Active; 'I' for Inactive)
REMARK    1  A    between atoms: C_1  and  C_2
REMARK    2  A    between atoms: C_2  and  C_3
REMARK    3  A    between atoms: C_3  and  C_4
REMARK    4  A    between atoms: C_4  and  C_18
REMARK    5  A    between atoms: N_7  and  C_11
REMARK    6  A    between atoms: C_11  and  C_12
REMARK    7  A    between atoms: C_23  and  C_24
REMARK    8  A    between atoms: C_23  and  N_69
REMARK    9  A    between atoms: C_25  and  C_34
REMARK                            x       y       z     vdW  Elec       q    Type
REMARK                         _______ _______ _______ _____ _____    ______ ____
ROOT
ATOM      1  C   UNL     1      -0.899   0.664  -3.250  0.00  0.00    +0.018 C 
ATOM      2  C   UNL     1      -2.379   0.316  -3.433  0.00  0.00    -0.013 C 
ATOM      3  C   UNL     1      -2.925   1.054  -4.658  0.00  0.00    -0.078 C 
ATOM      4  C   UNL     1      -0.745   1.031  -5.715  0.00  0.00    -0.078 C 
ATOM      5  C   UNL     1      -0.134   0.291  -4.523  0.00  0.00    -0.013 C 
ATOM      6  N   UNL     1      -2.162   0.633  -5.852  0.00  0.00    +0.383 N 
ATOM      7  H   UNL     1      -2.213  -0.389  -5.937  0.00  0.00    -0.081 HD
ENDROOT
BRANCH   1   8
ATOM      8  C   UNL     1      -0.332  -0.118  -2.064  0.00  0.00    +0.115 C 
ATOM      9  C   UNL     1       1.151   0.149  -1.905  0.00  0.00    +0.247 C 
ATOM     10  O   UNL     1       1.683   1.215  -1.680  0.00  0.00    -0.273 OA
ATOM     11  N   UNL     1       1.756  -1.044  -2.066  0.00  0.00    -0.222 N 
ATOM     12  C   UNL     1       0.870  -2.019  -2.303  0.00  0.00    +0.309 C 
ATOM     13  O   UNL     1       1.176  -3.181  -2.482  0.00  0.00    -0.252 OA
ATOM     14  N   UNL     1      -0.397  -1.567  -2.321  0.00  0.00    -0.285 N 
ATOM     15  H   UNL     1      -1.198  -2.094  -2.473  0.00  0.00    +0.151 HD
BRANCH   8  16
ATOM     16  C   UNL     1      -1.084   0.235  -0.779  0.00  0.00    +0.035 C 
BRANCH  16  18
ATOM     17  C   UNL     1      -1.216  -0.167   1.683  0.00  0.00    +0.004 C 
ATOM     18  C   UNL     1      -0.464  -0.520   0.398  0.00  0.00    -0.001 C 
ENDBRANCH  16  18
ENDBRANCH   8  16
BRANCH  11  19
ATOM     19  C   UNL     1       3.205  -1.250  -1.992  0.00  0.00    +0.149 C 
BRANCH  19  20
ATOM     20  C   UNL     1       3.816  -1.075  -3.384  0.00  0.00    +0.136 C 
ATOM     21  C   UNL     1       5.339  -1.357  -3.342  0.00  0.00    +0.035 C 
ATOM     22  C   UNL     1       5.605  -1.762  -4.817  0.00  0.00    +0.031 C 
ATOM     23  C   UNL     1       4.296  -2.487  -5.199  0.00  0.00    +0.160 C 
ATOM     24  O   UNL     1       3.279  -2.050  -4.291  0.00  0.00    -0.375 OA
ENDBRANCH  19  20
ENDBRANCH  11  19
ENDBRANCH   1   8
BRANCH   6  25
ATOM     25  C   UNL     1      -2.743   1.246  -7.064  0.00  0.00    -0.021 C 
BRANCH  25  26
ATOM     26  C   UNL     1      -4.032   0.536  -7.393  0.00  0.00    +0.047 A 
ATOM     27  C   UNL     1      -3.998  -0.652  -8.126  0.00  0.00    +0.058 A 
ATOM     28  N   UNL     1      -5.108  -1.288  -8.424  0.00  0.00    -0.249 NA
ATOM     29  C   UNL     1      -6.284  -0.793  -8.021  0.00  0.00    +0.089 A 
ATOM     30  C   UNL     1      -7.490  -1.449  -8.324  0.00  0.00    +0.030 A 
ATOM     31  C   UNL     1      -8.670  -0.921  -7.900  0.00  0.00    +0.002 A 
ATOM     32  C   UNL     1      -8.703   0.265  -7.168  0.00  0.00    +0.002 A 
ATOM     33  C   UNL     1      -7.557   0.928  -6.857  0.00  0.00    +0.030 A 
ATOM     34  C   UNL     1      -6.318   0.413  -7.277  0.00  0.00    +0.089 A 
ATOM     35  N   UNL     1      -5.173   1.040  -6.982  0.00  0.00    -0.250 NA
ATOM     36  C   UNL     1      -2.674  -1.211  -8.580  0.00  0.00    +0.067 C 
ENDBRANCH  25  26
ENDBRANCH   6  25
TORSDOF 7
