REMARK  Name = ZINC16647426
REMARK  5 active torsions:
REMARK  status: ('A' for Active; 'I' for Inactive)
REMARK    1  A    between atoms: C_1  and  C_2
REMARK    2  A    between atoms: C_8  and  C_10
REMARK    3  A    between atoms: C_10  and  N_11
REMARK    4  A    between atoms: N_13  and  C_34
REMARK    5  A    between atoms: C_22  and  C_24
REMARK                            x       y       z     vdW  Elec       q    Type
REMARK                         _______ _______ _______ _____ _____    ______ ____
ROOT
ATOM      1  N   UNL     1       3.749   4.452   2.859  0.00  0.00    -0.275 N 
ATOM      2  C   UNL     1       3.192   4.947   4.125  0.00  0.00    +0.217 C 
ATOM      3  N   UNL     1       4.316   4.953   5.093  0.00  0.00    -0.300 N 
ATOM      4  C   UNL     1       5.502   5.118   4.225  0.00  0.00    +0.115 C 
ATOM      5  C   UNL     1       5.094   4.553   2.887  0.00  0.00    +0.241 C 
ATOM      6  O   UNL     1       5.848   4.241   1.989  0.00  0.00    -0.273 OA
ATOM      7  C   UNL     1       5.851   6.598   4.093  0.00  0.00    +0.054 C 
ATOM      8  C   UNL     1       7.050   6.755   3.151  0.00  0.00    +0.110 C 
ATOM      9  N   UNL     1       8.145   5.904   3.636  0.00  0.00    -0.297 N 
ATOM     10  C   UNL     1       7.886   4.476   3.861  0.00  0.00    +0.110 C 
ATOM     11  C   UNL     1       6.681   4.336   4.797  0.00  0.00    +0.054 C 
ATOM     12  C   UNL     1       9.367   6.425   3.869  0.00  0.00    +0.247 C 
ATOM     13  O   UNL     1      10.285   5.697   4.194  0.00  0.00    -0.270 OA
ENDROOT
BRANCH  12  14
ATOM     14  C   UNL     1       9.588   7.876   3.729  0.00  0.00    +0.045 A 
ATOM     15  C   UNL     1       9.271   8.524   2.545  0.00  0.00    +0.014 A 
ATOM     16  C   UNL     1       9.477   9.890   2.407  0.00  0.00    +0.001 A 
ATOM     17  C   UNL     1       9.996  10.631   3.427  0.00  0.00    +0.008 A 
ATOM     18  C   UNL     1      10.332  10.017   4.645  0.00  0.00    -0.017 A 
ATOM     19  C   UNL     1      10.123   8.626   4.807  0.00  0.00    -0.006 A 
ATOM     20  C   UNL     1      10.465   8.013   6.020  0.00  0.00    +0.009 A 
ATOM     21  C   UNL     1      10.983   8.764   7.033  0.00  0.00    +0.001 A 
ATOM     22  C   UNL     1      11.184  10.134   6.878  0.00  0.00    +0.001 A 
ATOM     23  C   UNL     1      10.869  10.760   5.711  0.00  0.00    +0.008 A 
ENDBRANCH  12  14
BRANCH   3  24
ATOM     24  C   UNL     1       4.197   6.021   5.986  0.00  0.00    +0.032 A 
ATOM     25  C   UNL     1       5.233   6.312   6.864  0.00  0.00    +0.023 A 
ATOM     26  C   UNL     1       5.114   7.371   7.743  0.00  0.00    +0.002 A 
ATOM     27  C   UNL     1       3.961   8.135   7.755  0.00  0.00    +0.000 A 
ATOM     28  C   UNL     1       2.926   7.844   6.886  0.00  0.00    +0.002 A 
ATOM     29  C   UNL     1       3.041   6.790   6.001  0.00  0.00    +0.023 A 
ENDBRANCH   3  24
BRANCH   1  30
ATOM     30  C   UNL     1       2.963   3.934   1.736  0.00  0.00    +0.205 C 
BRANCH  30  38
ATOM     31  C   UNL     1      -1.655   0.229  -0.369  0.00  0.00    +0.007 C 
ATOM     32  C   UNL     1      -0.168   0.571  -0.265  0.00  0.00    -0.011 C 
ATOM     33  C   UNL     1       0.007   2.091  -0.261  0.00  0.00    +0.022 C 
ATOM     34  C   UNL     1       1.499   2.430  -0.192  0.00  0.00    +0.108 C 
ATOM     35  N   UNL     1       2.085   1.752   0.973  0.00  0.00    -0.300 N 
ATOM     36  C   UNL     1       1.898   0.301   1.113  0.00  0.00    +0.108 C 
ATOM     37  C   UNL     1       0.401  -0.014   1.030  0.00  0.00    +0.022 C 
ATOM     38  C   UNL     1       2.780   2.447   1.894  0.00  0.00    +0.233 C 
ATOM     39  O   UNL     1       3.259   1.875   2.851  0.00  0.00    -0.274 OA
ENDBRANCH  30  38
ENDBRANCH   1  30
TORSDOF 4
