REMARK  Name = ZINC17878707
REMARK  6 active torsions:
REMARK  status: ('A' for Active; 'I' for Inactive)
REMARK    1  A    between atoms: C_1  and  C_2
REMARK    2  A    between atoms: C_5  and  C_9
REMARK    3  A    between atoms: C_6  and  C_8
REMARK    4  A    between atoms: C_9  and  N_10
REMARK    5  A    between atoms: C_17  and  C_20
REMARK    6  A    between atoms: C_17  and  O_28
REMARK                            x       y       z     vdW  Elec       q    Type
REMARK                         _______ _______ _______ _____ _____    ______ ____
ROOT
ATOM      1  N   UNL     1      -1.342  -4.728  -0.121  0.00  0.00    -0.264 N 
ATOM      2  C   UNL     1      -1.867  -5.030   1.137  0.00  0.00    +0.043 A 
ATOM      3  C   UNL     1      -1.297  -4.942   2.406  0.00  0.00    +0.025 A 
ATOM      4  C   UNL     1      -2.027  -5.305   3.519  0.00  0.00    +0.022 A 
ATOM      5  C   UNL     1      -3.328  -5.758   3.386  0.00  0.00    +0.041 A 
ATOM      6  C   UNL     1      -3.900  -5.847   2.128  0.00  0.00    +0.028 A 
ATOM      7  C   UNL     1      -3.173  -5.486   1.016  0.00  0.00    +0.017 A 
ATOM      8  C   UNL     1      -3.495  -5.466  -0.461  0.00  0.00    +0.189 C 
ATOM      9  C   UNL     1      -2.228  -4.949  -1.107  0.00  0.00    +0.258 C 
ATOM     10  O   UNL     1      -2.045  -4.769  -2.293  0.00  0.00    -0.272 OA
ATOM     11 CL   UNL     1      -4.239  -6.213   4.791  0.00  0.00    -0.084 Cl
ENDROOT
BRANCH   8  12
ATOM     12  C   UNL     1      -3.818  -6.877  -0.958  0.00  0.00    +0.187 C 
ATOM     13  C   UNL     1      -4.130  -6.885  -2.450  0.00  0.00    +0.255 C 
ATOM     14  O   UNL     1      -3.331  -6.561  -3.306  0.00  0.00    -0.272 OA
ATOM     15  N   UNL     1      -5.352  -7.277  -2.710  0.00  0.00    -0.159 NA
ATOM     16  C   UNL     1      -6.229  -7.631  -1.789  0.00  0.00    +0.145 C 
ATOM     17  S   UNL     1      -5.438  -7.463  -0.311  0.00  0.00    -0.077 S 
ATOM     18  N   UNL     1      -7.512  -8.048  -1.992  0.00  0.00    -0.340 N 
ATOM     19  H   UNL     1      -7.865  -8.108  -2.894  0.00  0.00    +0.144 HD
ATOM     20  H   UNL     1      -8.071  -8.284  -1.236  0.00  0.00    +0.144 HD
ENDBRANCH   8  12
BRANCH   8  21
ATOM     21  O   UNL     1      -4.585  -4.580  -0.724  0.00  0.00    -0.373 OA
ATOM     22  H   UNL     1      -4.421  -3.665  -0.456  0.00  0.00    +0.211 HD
ENDBRANCH   8  21
BRANCH   1  23
ATOM     23  C   UNL     1       0.015  -4.223  -0.340  0.00  0.00    +0.149 C 
BRANCH  23  28
ATOM     24  C   UNL     1      -0.008   1.549  -0.053  0.00  0.00    +0.044 C 
ATOM     25  C   UNL     1      -0.002   0.044  -0.128  0.00  0.00    -0.050 A 
ATOM     26  C   UNL     1      -1.194  -0.656  -0.079  0.00  0.00    +0.004 A 
ATOM     27  C   UNL     1      -1.188  -2.036  -0.148  0.00  0.00    +0.006 A 
ATOM     28  C   UNL     1       0.009  -2.718  -0.266  0.00  0.00    -0.027 A 
ATOM     29  C   UNL     1       1.200  -2.018  -0.316  0.00  0.00    -0.046 A 
ATOM     30  C   UNL     1       1.194  -0.637  -0.251  0.00  0.00    +0.007 A 
ATOM     31  C   UNL     1       2.505  -2.761  -0.444  0.00  0.00    +0.044 C 
ENDBRANCH  23  28
ENDBRANCH   1  23
TORSDOF 4
