REMARK  Name = ZINC32745354
REMARK  8 active torsions:
REMARK  status: ('A' for Active; 'I' for Inactive)
REMARK    1  A    between atoms: C_1  and  C_2
REMARK    2  A    between atoms: C_2  and  C_26
REMARK    3  A    between atoms: N_5  and  C_9
REMARK    4  A    between atoms: C_9  and  C_10
REMARK    5  A    between atoms: C_17  and  O_24
REMARK    6  A    between atoms: C_18  and  O_22
REMARK    7  A    between atoms: O_22  and  C_23
REMARK    8  A    between atoms: O_24  and  C_25
REMARK                            x       y       z     vdW  Elec       q    Type
REMARK                         _______ _______ _______ _____ _____    ______ ____
ROOT
ATOM      1  C   UNL     1       2.726  -6.649   8.751  0.00  0.00    +0.047 C 
ATOM      2  C   UNL     1       1.892  -5.556   9.423  0.00  0.00    +0.135 C 
ATOM      3  C   UNL     1       1.336  -4.594   8.392  0.00  0.00    +0.251 C 
ATOM      4  O   UNL     1       0.575  -4.853   7.484  0.00  0.00    -0.272 OA
ATOM      5  N   UNL     1       1.863  -3.391   8.694  0.00  0.00    -0.215 N 
ATOM      6  C   UNL     1       2.661  -3.458   9.766  0.00  0.00    +0.310 C 
ATOM      7  O   UNL     1       3.248  -2.500  10.232  0.00  0.00    -0.252 OA
ATOM      8  N   UNL     1       2.743  -4.702  10.270  0.00  0.00    -0.281 N 
ATOM      9  H   UNL     1       3.285  -5.139  11.122  0.00  0.00    +0.152 HD
ENDROOT
BRANCH   2  10
ATOM     10  C   UNL     1       0.778  -6.166  10.234  0.00  0.00    -0.015 A 
ATOM     11  C   UNL     1      -0.443  -6.432   9.643  0.00  0.00    +0.006 A 
ATOM     12  C   UNL     1      -1.462  -6.990  10.388  0.00  0.00    +0.004 A 
ATOM     13  C   UNL     1      -1.266  -7.285  11.727  0.00  0.00    -0.044 A 
ATOM     14  C   UNL     1      -0.045  -7.020  12.318  0.00  0.00    -0.044 A 
ATOM     15  C   UNL     1       0.978  -6.465  11.568  0.00  0.00    +0.010 A 
ATOM     16  C   UNL     1      -0.082  -7.429  13.775  0.00  0.00    +0.036 C 
ATOM     17  C   UNL     1      -1.581  -7.565  14.119  0.00  0.00    +0.009 C 
ATOM     18  C   UNL     1      -2.207  -7.892  12.746  0.00  0.00    +0.036 C 
ENDBRANCH   2  10
BRANCH   5  19
ATOM     19  C   UNL     1       1.591  -2.162   7.946  0.00  0.00    +0.213 C 
BRANCH  19  20
ATOM     20  C   UNL     1       2.608  -2.009   6.844  0.00  0.00    +0.234 C 
ATOM     21  O   UNL     1       3.475  -2.844   6.699  0.00  0.00    -0.274 OA
ATOM     22  N   UNL     1       2.554  -0.943   6.021  0.00  0.00    -0.296 N 
ATOM     23  C   UNL     1       3.533  -0.764   4.935  0.00  0.00    +0.113 C 
ATOM     24  C   UNL     1       2.780  -0.838   3.608  0.00  0.00    +0.054 C 
ATOM     25  C   UNL     1       1.546   0.025   3.642  0.00  0.00    -0.038 A 
ATOM     26  C   UNL     1       0.990   0.400   2.424  0.00  0.00    +0.053 A 
ATOM     27  C   UNL     1      -0.148   1.182   2.380  0.00  0.00    +0.162 A 
ATOM     28  C   UNL     1      -0.744   1.599   3.568  0.00  0.00    +0.162 A 
ATOM     29  C   UNL     1      -0.191   1.221   4.777  0.00  0.00    +0.054 A 
ATOM     30  C   UNL     1       0.957   0.440   4.816  0.00  0.00    -0.023 A 
ATOM     31  C   UNL     1       1.518   0.085   6.170  0.00  0.00    +0.143 C 
BRANCH  28  32
ATOM     32  O   UNL     1      -1.863   2.370   3.538  0.00  0.00    -0.491 OA
ATOM     33  C   UNL     1      -2.417   2.759   4.797  0.00  0.00    +0.277 C 
ENDBRANCH  28  32
BRANCH  27  34
ATOM     34  O   UNL     1      -0.682   1.547   1.184  0.00  0.00    -0.491 OA
ATOM     35  C   UNL     1      -0.013   1.086   0.008  0.00  0.00    +0.277 C 
ENDBRANCH  27  34
ENDBRANCH  19  20
ENDBRANCH   5  19
TORSDOF 5
