REMARK  Name = ZINC19592407
REMARK  7 active torsions:
REMARK  status: ('A' for Active; 'I' for Inactive)
REMARK    1  A    between atoms: C_1  and  O_2
REMARK    2  A    between atoms: O_2  and  C_3
REMARK    3  A    between atoms: C_3  and  C_5
REMARK    4  A    between atoms: C_5  and  C_34
REMARK    5  A    between atoms: C_10  and  C_13
REMARK    6  A    between atoms: C_16  and  O_19
REMARK    7  A    between atoms: N_22  and  C_25
REMARK                            x       y       z     vdW  Elec       q    Type
REMARK                         _______ _______ _______ _____ _____    ______ ____
ROOT
ATOM      1  C   UNL     1      -1.599  -2.010  -0.107  0.00  0.00    +0.155 C 
ATOM      2  C   UNL     1      -2.619  -2.701   0.823  0.00  0.00    +0.125 C 
ATOM      3  C   UNL     1      -1.821  -3.841   1.511  0.00  0.00    +0.112 C 
ATOM      4  C   UNL     1      -0.399  -3.741   0.920  0.00  0.00    +0.098 C 
ATOM      5  N   UNL     1      -0.275  -2.318   0.491  0.00  0.00    -0.290 NA
ATOM      6  C   UNL     1      -1.802  -3.426   2.965  0.00  0.00    +0.232 C 
ATOM      7  O   UNL     1      -1.273  -4.045   3.863  0.00  0.00    -0.274 OA
ATOM      8  N   UNL     1      -2.459  -2.269   3.105  0.00  0.00    -0.210 N 
ATOM      9  C   UNL     1      -2.972  -1.767   1.958  0.00  0.00    +0.233 C 
ATOM     10  O   UNL     1      -3.606  -0.739   1.848  0.00  0.00    -0.274 OA
ATOM     11  H   UNL     1       0.462  -2.213  -0.191  0.00  0.00    +0.124 HD
ENDROOT
BRANCH   8  12
ATOM     12  C   UNL     1      -2.613  -1.629   4.344  0.00  0.00    +0.048 A 
ATOM     13  C   UNL     1      -1.984  -0.414   4.580  0.00  0.00    +0.028 A 
ATOM     14  C   UNL     1      -2.135   0.218   5.799  0.00  0.00    +0.051 A 
ATOM     15  C   UNL     1      -2.914  -0.358   6.790  0.00  0.00    +0.166 A 
ATOM     16  C   UNL     1      -3.546  -1.577   6.555  0.00  0.00    +0.168 A 
ATOM     17  C   UNL     1      -3.399  -2.207   5.331  0.00  0.00    +0.073 A 
ATOM     18  O   UNL     1      -4.246  -1.928   7.674  0.00  0.00    -0.453 OA
ATOM     19  C   UNL     1      -3.707  -1.117   8.735  0.00  0.00    +0.466 C 
ATOM     20  O   UNL     1      -3.218   0.054   8.055  0.00  0.00    -0.453 OA
ENDBRANCH   8  12
BRANCH   4  21
ATOM     21  C   UNL     1       0.631  -4.048   1.977  0.00  0.00    -0.029 A 
ATOM     22  C   UNL     1       0.988  -3.079   2.896  0.00  0.00    +0.009 A 
ATOM     23  C   UNL     1       1.932  -3.358   3.865  0.00  0.00    +0.046 A 
ATOM     24  C   UNL     1       2.522  -4.612   3.916  0.00  0.00    +0.117 A 
ATOM     25  C   UNL     1       2.162  -5.584   2.993  0.00  0.00    +0.046 A 
ATOM     26  C   UNL     1       1.214  -5.301   2.029  0.00  0.00    +0.009 A 
BRANCH  24  27
ATOM     27  O   UNL     1       3.451  -4.889   4.868  0.00  0.00    -0.507 OA
ATOM     28  H   UNL     1       3.081  -5.247   5.687  0.00  0.00    +0.292 HD
ENDBRANCH  24  27
ENDBRANCH   4  21
BRANCH   1  29
ATOM     29  C   UNL     1      -1.690  -2.573  -1.501  0.00  0.00    -0.016 A 
ATOM     30  C   UNL     1      -2.904  -3.022  -1.988  0.00  0.00    +0.006 A 
ATOM     31  C   UNL     1      -2.987  -3.538  -3.267  0.00  0.00    +0.000 A 
ATOM     32  C   UNL     1      -1.857  -3.606  -4.061  0.00  0.00    +0.000 A 
ATOM     33  C   UNL     1      -0.644  -3.157  -3.574  0.00  0.00    +0.000 A 
ATOM     34  C   UNL     1      -0.561  -2.636  -2.296  0.00  0.00    +0.006 A 
ENDBRANCH   1  29
BRANCH   1  35
ATOM     35  C   UNL     1      -1.833  -0.521  -0.126  0.00  0.00    +0.333 C 
ATOM     36  O   UNL     1      -2.475  -0.022  -1.020  0.00  0.00    -0.248 OA
BRANCH  35  38
ATOM     37  C   UNL     1      -1.588   1.653   0.767  0.00  0.00    +0.280 C 
ATOM     38  O   UNL     1      -1.327   0.251   0.849  0.00  0.00    -0.466 OA
ENDBRANCH  35  38
ENDBRANCH   1  35
TORSDOF 6
