REMARK  Name = ZINC36029745
REMARK  7 active torsions:
REMARK  status: ('A' for Active; 'I' for Inactive)
REMARK    1  A    between atoms: C_1  and  C_2
REMARK    2  A    between atoms: C_2  and  C_3
REMARK    3  A    between atoms: C_2  and  C_4
REMARK    4  A    between atoms: C_4  and  C_5
REMARK    5  A    between atoms: N_9  and  C_28
REMARK    6  A    between atoms: C_17  and  C_19
REMARK    7  A    between atoms: C_28  and  C_29
REMARK                            x       y       z     vdW  Elec       q    Type
REMARK                         _______ _______ _______ _____ _____    ______ ____
ROOT
ATOM      1  C   UNL     1      -0.638   0.650   2.300  0.00  0.00    +0.019 C 
ATOM      2  C   UNL     1      -0.060  -0.006   3.535  0.00  0.00    +0.201 C 
ATOM      3  O   UNL     1       0.015  -1.200   3.735  0.00  0.00    -0.277 OA
ATOM      4  N   UNL     1       0.358   0.962   4.378  0.00  0.00    -0.309 N 
ATOM      5  C   UNL     1       0.091   2.275   3.784  0.00  0.00    +0.006 C 
ATOM      6  N   UNL     1      -0.139   2.046   2.341  0.00  0.00    +0.401 N 
ATOM      7  C   UNL     1      -1.157   2.894   4.412  0.00  0.00    +0.025 C 
ATOM      8  C   UNL     1      -0.926   3.091   5.913  0.00  0.00    +0.108 C 
ATOM      9  N   UNL     1       0.305   3.870   6.104  0.00  0.00    -0.298 N 
ATOM     10  C   UNL     1       1.546   3.396   5.475  0.00  0.00    +0.108 C 
ATOM     11  C   UNL     1       1.294   3.196   3.977  0.00  0.00    +0.025 C 
ATOM     12  C   UNL     1       0.297   4.998   6.841  0.00  0.00    +0.247 C 
ATOM     13  O   UNL     1       1.296   5.689   6.907  0.00  0.00    -0.270 OA
ATOM     14  H   UNL     1       0.724   2.131   1.825  0.00  0.00    -0.082 HD
ATOM     15  H   UNL     1      -0.834   2.683   1.983  0.00  0.00    -0.082 HD
ENDROOT
BRANCH  12  16
ATOM     16  C   UNL     1      -0.924   5.394   7.570  0.00  0.00    +0.041 A 
ATOM     17  C   UNL     1      -1.688   4.431   8.233  0.00  0.00    +0.017 A 
ATOM     18  C   UNL     1      -2.827   4.803   8.913  0.00  0.00    +0.050 A 
ATOM     19  C   UNL     1      -3.220   6.134   8.941  0.00  0.00    +0.166 A 
ATOM     20  C   UNL     1      -2.462   7.101   8.280  0.00  0.00    +0.167 A 
ATOM     21  C   UNL     1      -1.316   6.735   7.602  0.00  0.00    +0.062 A 
ATOM     22  O   UNL     1      -3.056   8.318   8.459  0.00  0.00    -0.453 OA
ATOM     23  C   UNL     1      -4.400   8.029   8.889  0.00  0.00    +0.466 C 
ATOM     24  O   UNL     1      -4.285   6.747   9.533  0.00  0.00    -0.453 OA
ENDBRANCH  12  16
BRANCH   1  25
ATOM     25  C   UNL     1      -0.138  -0.058   1.038  0.00  0.00    -0.004 C 
BRANCH  25  27
ATOM     26  C   UNL     1      -0.107   0.019  -1.459  0.00  0.00    +0.007 C 
ATOM     27  C   UNL     1      -0.714   0.636  -0.198  0.00  0.00    -0.018 C 
ATOM     28  C   UNL     1      -2.233   0.455  -0.222  0.00  0.00    +0.007 C 
ENDBRANCH  25  27
ENDBRANCH   1  25
BRANCH   4  29
ATOM     29  C   UNL     1       0.982   0.735   5.683  0.00  0.00    +0.141 C 
BRANCH  29  30
ATOM     30  C   UNL     1       2.422   0.335   5.489  0.00  0.00    -0.030 A 
ATOM     31  C   UNL     1       2.739  -0.973   5.171  0.00  0.00    +0.008 A 
ATOM     32  C   UNL     1       4.059  -1.341   4.993  0.00  0.00    +0.038 A 
ATOM     33  C   UNL     1       5.064  -0.399   5.132  0.00  0.00    +0.123 A 
ATOM     34  C   UNL     1       4.746   0.910   5.451  0.00  0.00    +0.038 A 
ATOM     35  C   UNL     1       3.425   1.277   5.624  0.00  0.00    +0.008 A 
ATOM     36  F   UNL     1       6.355  -0.758   4.958  0.00  0.00    -0.205 F 
ENDBRANCH  29  30
ENDBRANCH   4  29
TORSDOF 5
