REMARK  Name = ZINC25149189
REMARK  14 active torsions:
REMARK  status: ('A' for Active; 'I' for Inactive)
REMARK    1  A    between atoms: C_1  and  C_2
REMARK    2  A    between atoms: C_2  and  N_3
REMARK    3  A    between atoms: N_3  and  C_4
REMARK    4  A    between atoms: C_4  and  C_5
REMARK    5  A    between atoms: C_6  and  O_8
REMARK    6  A    between atoms: O_8  and  C_9
REMARK    7  A    between atoms: C_14  and  N_15
REMARK    8  A    between atoms: C_16  and  C_18
REMARK    9  A    between atoms: C_18  and  C_20
REMARK   10  A    between atoms: C_18  and  O_21
REMARK   11  A    between atoms: O_21  and  C_22
REMARK   12  A    between atoms: N_30  and  C_31
REMARK   13  A    between atoms: C_31  and  C_32
REMARK   14  A    between atoms: C_35  and  C_38
REMARK                            x       y       z     vdW  Elec       q    Type
REMARK                         _______ _______ _______ _____ _____    ______ ____
ROOT
ATOM      1  C   UNL     1      -2.494  -2.890  -1.518  0.00  0.00    +0.155 A 
ATOM      2  C   UNL     1      -2.968  -1.590  -1.660  0.00  0.00    +0.050 A 
ATOM      3  C   UNL     1      -2.487  -0.575  -0.861  0.00  0.00    +0.030 A 
ATOM      4  C   UNL     1      -1.518  -0.843   0.101  0.00  0.00    +0.051 A 
ATOM      5  C   UNL     1      -1.031  -2.154   0.248  0.00  0.00    +0.025 A 
ATOM      6  C   UNL     1      -1.522  -3.179  -0.571  0.00  0.00    +0.086 A 
ATOM      7  C   UNL     1      -0.044  -2.101   1.329  0.00  0.00    +0.029 A 
ATOM      8  C   UNL     1       0.011  -0.828   1.749  0.00  0.00    +0.087 A 
ATOM      9  N   UNL     1      -0.860  -0.060   1.024  0.00  0.00    -0.342 N 
ENDROOT
BRANCH   6  10
ATOM     10  N   UNL     1      -1.046  -4.487  -0.426  0.00  0.00    -0.279 N 
ATOM     11  C   UNL     1      -1.882  -5.531  -0.593  0.00  0.00    +0.258 C 
ATOM     12  O   UNL     1      -3.059  -5.337  -0.807  0.00  0.00    -0.271 OA
ATOM     13  H   UNL     1       0.011  -4.663  -0.177  0.00  0.00    +0.155 HD
BRANCH  11  14
ATOM     14  C   UNL     1      -1.353  -6.940  -0.512  0.00  0.00    +0.256 C 
ATOM     15  C   UNL     1      -0.851  -7.216   0.907  0.00  0.00    +0.062 C 
BRANCH  14  16
ATOM     16  O   UNL     1      -2.398  -7.860  -0.835  0.00  0.00    -0.480 OA
BRANCH  16  17
ATOM     17  C   UNL     1      -2.023  -9.075  -1.315  0.00  0.00    +0.122 A 
ATOM     18  C   UNL     1      -0.680  -9.419  -1.363  0.00  0.00    +0.045 A 
ATOM     19  C   UNL     1      -0.302 -10.657  -1.846  0.00  0.00    +0.004 A 
ATOM     20  C   UNL     1      -1.261 -11.548  -2.292  0.00  0.00    +0.000 A 
ATOM     21  C   UNL     1      -2.600 -11.205  -2.251  0.00  0.00    +0.004 A 
ATOM     22  C   UNL     1      -2.983  -9.971  -1.763  0.00  0.00    +0.045 A 
ENDBRANCH  16  17
ENDBRANCH  14  16
ENDBRANCH  11  14
ENDBRANCH   6  10
BRANCH   1  23
ATOM     23  O   UNL     1      -2.979  -3.880  -2.316  0.00  0.00    -0.409 OA
BRANCH  23  25
ATOM     24  N   UNL     1      -2.745  -5.077  -4.305  0.00  0.00    -0.268 N 
ATOM     25  C   UNL     1      -2.269  -4.178  -3.420  0.00  0.00    +0.408 C 
ATOM     26  O   UNL     1      -1.199  -3.638  -3.618  0.00  0.00    -0.226 OA
BRANCH  24  28
ATOM     27  C   UNL     1      -1.036  -6.574  -5.208  0.00  0.00    +0.024 C 
ATOM     28  C   UNL     1      -1.972  -5.402  -5.506  0.00  0.00    +0.108 C 
ENDBRANCH  24  28
BRANCH  24  29
ATOM     29  C   UNL     1      -4.035  -5.728  -4.065  0.00  0.00    +0.108 C 
ATOM     30  C   UNL     1      -5.152  -4.895  -4.698  0.00  0.00    +0.024 C 
ENDBRANCH  24  29
ENDBRANCH  23  25
ENDBRANCH   1  23
BRANCH   9  31
ATOM     31  C   UNL     1      -1.067   1.379   1.208  0.00  0.00    +0.157 C 
BRANCH  31  32
ATOM     32  C   UNL     1      -2.242   1.605   2.124  0.00  0.00    -0.028 A 
ATOM     33  C   UNL     1      -3.514   1.729   1.598  0.00  0.00    +0.005 A 
ATOM     34  C   UNL     1      -4.593   1.931   2.439  0.00  0.00    +0.004 A 
ATOM     35  C   UNL     1      -4.397   2.019   3.805  0.00  0.00    -0.050 A 
ATOM     36  C   UNL     1      -3.124   1.901   4.330  0.00  0.00    +0.004 A 
ATOM     37  C   UNL     1      -2.046   1.694   3.489  0.00  0.00    +0.005 A 
ATOM     38  C   UNL     1      -5.573   2.244   4.721  0.00  0.00    +0.044 C 
ENDBRANCH  31  32
ENDBRANCH   9  31
TORSDOF 10
