REMARK  Name = ZINC34014207
REMARK  9 active torsions:
REMARK  status: ('A' for Active; 'I' for Inactive)
REMARK    1  A    between atoms: C_1  and  N_2
REMARK    2  A    between atoms: N_2  and  C_3
REMARK    3  A    between atoms: C_3  and  C_4
REMARK    4  A    between atoms: C_4  and  C_7
REMARK    5  A    between atoms: C_10  and  N_13
REMARK    6  A    between atoms: N_18  and  C_25
REMARK    7  A    between atoms: C_20  and  C_21
REMARK    8  A    between atoms: C_28  and  O_31
REMARK    9  A    between atoms: O_31  and  C_32
REMARK                            x       y       z     vdW  Elec       q    Type
REMARK                         _______ _______ _______ _____ _____    ______ ____
ROOT
ATOM      1  N   UNL     1      -3.691  -5.110   0.947  0.00  0.00    -0.266 N 
ATOM      2  C   UNL     1      -4.454  -4.559   2.060  0.00  0.00    +0.119 C 
ATOM      3  C   UNL     1      -5.963  -4.756   1.899  0.00  0.00    +0.059 C 
ATOM      4  C   UNL     1      -6.222  -6.170   1.462  0.00  0.00    +0.016 A 
ATOM      5  C   UNL     1      -5.285  -6.896   0.728  0.00  0.00    +0.133 A 
ATOM      6  N   UNL     1      -5.834  -8.106   0.495  0.00  0.00    -0.227 N 
ATOM      7  N   UNL     1      -7.005  -8.153   1.038  0.00  0.00    -0.161 NA
ATOM      8  C   UNL     1      -7.295  -7.017   1.636  0.00  0.00    +0.170 A 
ATOM      9  C   UNL     1      -3.993  -6.297   0.371  0.00  0.00    +0.270 C 
ATOM     10  O   UNL     1      -3.228  -6.844  -0.402  0.00  0.00    -0.268 OA
ENDROOT
BRANCH   1  14
ATOM     11  C   UNL     1      -0.463  -2.934  -0.533  0.00  0.00    -0.043 A 
ATOM     12  C   UNL     1      -1.605  -3.080  -1.299  0.00  0.00    +0.006 A 
ATOM     13  C   UNL     1      -2.677  -3.801  -0.811  0.00  0.00    +0.024 A 
ATOM     14  C   UNL     1      -2.607  -4.380   0.450  0.00  0.00    +0.037 A 
ATOM     15  C   UNL     1      -1.459  -4.230   1.216  0.00  0.00    +0.024 A 
ATOM     16  C   UNL     1      -0.388  -3.513   0.720  0.00  0.00    +0.006 A 
BRANCH  11  17
ATOM     17  C   UNL     1       0.705  -2.146  -1.069  0.00  0.00    -0.019 C 
ATOM     18  C   UNL     1       0.642  -0.622  -0.953  0.00  0.00    +0.010 C 
ATOM     19  C   UNL     1       1.591  -1.419  -0.055  0.00  0.00    +0.010 C 
BRANCH  17  20
ATOM     20  C   UNL     1       1.384  -2.733  -2.308  0.00  0.00    -0.071 C 
BRANCH  20  22
ATOM     21  C   UNL     1       2.868  -4.445  -3.097  0.00  0.00    -0.100 C 
ATOM     22  N   UNL     1       2.301  -3.807  -1.901  0.00  0.00    +0.378 N 
ATOM     23  H   UNL     1       1.796  -4.493  -1.361  0.00  0.00    -0.086 HD
ATOM     24  H   UNL     1       3.046  -3.419  -1.342  0.00  0.00    -0.086 HD
ENDBRANCH  20  22
ENDBRANCH  17  20
ENDBRANCH  11  17
ENDBRANCH   1  14
BRANCH   6  25
ATOM     25  C   UNL     1      -5.231  -9.147  -0.223  0.00  0.00    +0.066 A 
ATOM     26  C   UNL     1      -3.895  -9.459  -0.003  0.00  0.00    +0.031 A 
ATOM     27  C   UNL     1      -3.301 -10.485  -0.711  0.00  0.00    +0.048 A 
ATOM     28  C   UNL     1      -4.038 -11.204  -1.641  0.00  0.00    +0.120 A 
ATOM     29  C   UNL     1      -5.372 -10.892  -1.862  0.00  0.00    +0.048 A 
ATOM     30  C   UNL     1      -5.969  -9.870  -1.151  0.00  0.00    +0.031 A 
BRANCH  28  31
ATOM     31  O   UNL     1      -3.452 -12.214  -2.338  0.00  0.00    -0.495 OA
ATOM     32  C   UNL     1      -4.270 -12.911  -3.280  0.00  0.00    +0.277 C 
ENDBRANCH  28  31
ENDBRANCH   6  25
BRANCH   8  33
ATOM     33  C   UNL     1      -8.569  -6.700   2.376  0.00  0.00    +0.436 C 
ATOM     34  F   UNL     1      -9.500  -6.151   1.488  0.00  0.00    -0.164 F 
ATOM     35  F   UNL     1      -9.090  -7.874   2.932  0.00  0.00    -0.164 F 
ATOM     36  F   UNL     1      -8.299  -5.782   3.397  0.00  0.00    -0.164 F 
ENDBRANCH   8  33
TORSDOF 7
