REMARK  Name = ZINC13736486
REMARK  6 active torsions:
REMARK  status: ('A' for Active; 'I' for Inactive)
REMARK    1  A    between atoms: C_4  and  C_7
REMARK    2  A    between atoms: C_7  and  N_8
REMARK    3  A    between atoms: C_11  and  N_14
REMARK    4  A    between atoms: N_14  and  C_15
REMARK    5  A    between atoms: C_15  and  C_16
REMARK    6  A    between atoms: C_19  and  C_21
REMARK                            x       y       z     vdW  Elec       q    Type
REMARK                         _______ _______ _______ _____ _____    ______ ____
ROOT
ATOM      1  N   UNL     1      -2.993   1.216   1.405  0.00  0.00    -0.307 NA
ATOM      2  H   UNL     1      -2.918   2.186   1.919  0.00  0.00    +0.123 HD
ENDROOT
BRANCH   1   6
ATOM      3  N   UNL     1      -6.968   0.758   2.736  0.00  0.00    +0.382 N 
ATOM      4  C   UNL     1      -6.103  -0.424   2.829  0.00  0.00    -0.077 C 
ATOM      5  C   UNL     1      -4.636   0.009   2.764  0.00  0.00    -0.000 C 
ATOM      6  C   UNL     1      -4.385   0.747   1.447  0.00  0.00    +0.051 C 
ATOM      7  C   UNL     1      -5.332   1.946   1.353  0.00  0.00    -0.000 C 
ATOM      8  C   UNL     1      -6.779   1.456   1.458  0.00  0.00    -0.077 C 
ATOM      9  H   UNL     1      -6.680   1.449   3.542  0.00  0.00    -0.081 HD
BRANCH   3  10
ATOM     10  C   UNL     1      -8.378   0.395   2.933  0.00  0.00    -0.043 C 
BRANCH  10  14
ATOM     11  C   UNL     1     -10.719   3.945   3.340  0.00  0.00    +0.000 A 
ATOM     12  C   UNL     1     -10.512   3.393   2.090  0.00  0.00    +0.000 A 
ATOM     13  C   UNL     1      -9.754   2.245   1.958  0.00  0.00    +0.002 A 
ATOM     14  C   UNL     1      -9.204   1.648   3.077  0.00  0.00    -0.064 A 
ATOM     15  C   UNL     1      -9.416   2.196   4.328  0.00  0.00    +0.002 A 
ATOM     16  C   UNL     1     -10.169   3.348   4.459  0.00  0.00    +0.000 A 
ENDBRANCH  10  14
ENDBRANCH   3  10
ENDBRANCH   1   6
BRANCH   1  17
ATOM     17  C   UNL     1      -2.535   1.381   0.019  0.00  0.00    +0.156 C 
BRANCH  17  18
ATOM     18  C   UNL     1      -1.107   1.862   0.017  0.00  0.00    +0.119 A 
ATOM     19  C   UNL     1      -0.013   1.076   0.008  0.00  0.00    +0.046 A 
ATOM     20  C   UNL     1       1.109   1.929   0.002  0.00  0.00    +0.050 A 
ATOM     21  C   UNL     1       0.633   3.202   0.013  0.00  0.00    +0.136 A 
ATOM     22  O   UNL     1      -0.713   3.146   0.026  0.00  0.00    -0.458 OA
BRANCH  21  23
ATOM     23  C   UNL     1       1.449   4.434   0.011  0.00  0.00    +0.031 A 
ATOM     24  C   UNL     1       2.489   4.587   0.930  0.00  0.00    +0.014 A 
ATOM     25  C   UNL     1       3.251   5.737   0.920  0.00  0.00    +0.016 A 
ATOM     26  C   UNL     1       2.979   6.743   0.009  0.00  0.00    +0.019 A 
ATOM     27  C   UNL     1       1.947   6.601  -0.902  0.00  0.00    +0.031 A 
ATOM     28  C   UNL     1       1.180   5.452  -0.906  0.00  0.00    +0.030 A 
ATOM     29 BR   UNL     1      -0.231   5.259  -2.150  0.00  0.00    -0.050 Br
ATOM     30 BR   UNL     1       4.025   8.319   0.007  0.00  0.00    -0.050 Br
ENDBRANCH  21  23
ENDBRANCH  17  18
ENDBRANCH   1  17
TORSDOF 6
