REMARK  Name = ZINC22852406
REMARK  7 active torsions:
REMARK  status: ('A' for Active; 'I' for Inactive)
REMARK    1  A    between atoms: C_1  and  C_2
REMARK    2  A    between atoms: C_5  and  C_8
REMARK    3  A    between atoms: C_8  and  C_10
REMARK    4  A    between atoms: C_8  and  N_24
REMARK    5  A    between atoms: C_11  and  O_23
REMARK    6  A    between atoms: C_16  and  C_18
REMARK    7  A    between atoms: N_27  and  C_30
REMARK                            x       y       z     vdW  Elec       q    Type
REMARK                         _______ _______ _______ _____ _____    ______ ____
ROOT
ATOM      1  C   UNL     1       0.072  -4.255  -0.023  0.00  0.00    +0.129 C 
ENDROOT
BRANCH   1   2
ATOM      2  C   UNL     1      -1.320  -4.781   0.214  0.00  0.00    +0.076 A 
ATOM      3  C   UNL     1      -2.110  -5.479  -0.610  0.00  0.00    +0.228 A 
ATOM      4  N   UNL     1      -3.363  -5.876  -0.211  0.00  0.00    -0.173 N 
ATOM      5  C   UNL     1      -3.755  -5.526   1.052  0.00  0.00    +0.200 A 
ATOM      6  S   UNL     1      -2.344  -4.642   1.671  0.00  0.00    -0.047 S 
ATOM      7  N   UNL     1      -4.959  -5.972   1.279  0.00  0.00    -0.197 NA
ATOM      8  C   UNL     1      -5.402  -6.623   0.195  0.00  0.00    +0.218 A 
ATOM      9  N   UNL     1      -4.471  -6.591  -0.735  0.00  0.00    -0.138 NA
BRANCH   8  10
ATOM     10  C   UNL     1      -6.723  -7.271   0.064  0.00  0.00    +0.173 A 
ATOM     11  C   UNL     1      -7.693  -7.304   1.015  0.00  0.00    +0.053 A 
ATOM     12  C   UNL     1      -8.776  -8.021   0.467  0.00  0.00    +0.042 A 
ATOM     13  C   UNL     1      -8.416  -8.387  -0.779  0.00  0.00    +0.196 A 
ATOM     14  O   UNL     1      -7.177  -7.928  -1.021  0.00  0.00    -0.460 OA
ENDBRANCH   8  10
BRANCH   3  15
ATOM     15  O   UNL     1      -1.668  -5.799  -1.856  0.00  0.00    -0.492 OA
ATOM     16  H   UNL     1      -2.304  -6.303  -2.382  0.00  0.00    +0.294 HD
ENDBRANCH   3  15
ENDBRANCH   1   2
BRANCH   1  21
ATOM     17  C   UNL     1      -0.012   1.522   0.068  0.00  0.00    +0.044 C 
ATOM     18  C   UNL     1       0.010   0.015   0.044  0.00  0.00    -0.050 A 
ATOM     19  C   UNL     1       0.022  -0.657  -1.164  0.00  0.00    +0.004 A 
ATOM     20  C   UNL     1       0.043  -2.039  -1.185  0.00  0.00    +0.006 A 
ATOM     21  C   UNL     1       0.051  -2.748   0.001  0.00  0.00    -0.025 A 
ATOM     22  C   UNL     1       0.040  -2.076   1.208  0.00  0.00    +0.006 A 
ATOM     23  C   UNL     1       0.024  -0.694   1.230  0.00  0.00    +0.004 A 
ENDBRANCH   1  21
BRANCH   1  24
ATOM     24  N   UNL     1       0.968  -4.749   1.031  0.00  0.00    -0.288 NA
ATOM     25  C   UNL     1       2.313  -4.175   0.891  0.00  0.00    +0.104 C 
ATOM     26  C   UNL     1       3.162  -4.568   2.104  0.00  0.00    +0.120 C 
ATOM     27  N   UNL     1       3.123  -6.031   2.247  0.00  0.00    -0.327 N 
ATOM     28  C   UNL     1       1.810  -6.694   2.257  0.00  0.00    +0.120 C 
ATOM     29  C   UNL     1       1.014  -6.217   1.038  0.00  0.00    +0.104 C 
BRANCH  27  30
ATOM     30  C   UNL     1       4.302  -6.772   2.370  0.00  0.00    +0.030 A 
ATOM     31  C   UNL     1       5.534  -6.144   2.245  0.00  0.00    +0.026 A 
ATOM     32  C   UNL     1       6.698  -6.878   2.367  0.00  0.00    +0.040 A 
ATOM     33  C   UNL     1       6.637  -8.239   2.614  0.00  0.00    +0.124 A 
ATOM     34  C   UNL     1       5.409  -8.868   2.739  0.00  0.00    +0.040 A 
ATOM     35  C   UNL     1       4.243  -8.137   2.623  0.00  0.00    +0.026 A 
ATOM     36  F   UNL     1       7.776  -8.955   2.732  0.00  0.00    -0.205 F 
ENDBRANCH  27  30
ENDBRANCH   1  24
TORSDOF 6
