REMARK  Name = ZINC14751469
REMARK  7 active torsions:
REMARK  status: ('A' for Active; 'I' for Inactive)
REMARK    1  A    between atoms: C_1  and  C_2
REMARK    2  A    between atoms: C_2  and  N_3
REMARK    3  A    between atoms: C_6  and  C_8
REMARK    4  A    between atoms: C_17  and  N_67
REMARK    5  A    between atoms: C_21  and  C_22
REMARK    6  A    between atoms: C_21  and  N_67
REMARK    7  A    between atoms: C_22  and  C_27
REMARK                            x       y       z     vdW  Elec       q    Type
REMARK                         _______ _______ _______ _____ _____    ______ ____
ROOT
ATOM      1  N   UNL     1       3.435   5.398  -3.925  0.00  0.00    -0.268 N 
ATOM      2  C   UNL     1       2.717   6.135  -3.062  0.00  0.00    +0.043 A 
ATOM      3  C   UNL     1       1.448   5.656  -3.084  0.00  0.00    +0.004 A 
ATOM      4  C   UNL     1       1.454   4.592  -4.001  0.00  0.00    +0.151 A 
ATOM      5  N   UNL     1       2.687   4.501  -4.468  0.00  0.00    -0.166 NA
ATOM      6  C   UNL     1       0.318   6.192  -2.249  0.00  0.00    +0.023 C 
ATOM      7  C   UNL     1       0.912   7.058  -1.129  0.00  0.00    -0.067 C 
ATOM      8  C   UNL     1       1.917   8.047  -1.726  0.00  0.00    -0.009 C 
ATOM      9  C   UNL     1       3.163   7.292  -2.205  0.00  0.00    +0.054 C 
ENDROOT
BRANCH   4  10
ATOM     10  C   UNL     1       0.303   3.744  -4.375  0.00  0.00    +0.267 C 
ATOM     11  O   UNL     1      -0.780   3.926  -3.855  0.00  0.00    -0.268 OA
ATOM     12  N   UNL     1       0.454   2.773  -5.298  0.00  0.00    -0.292 N 
ATOM     13  C   UNL     1       1.719   2.616  -6.032  0.00  0.00    +0.136 C 
ATOM     14  C   UNL     1       2.150   1.143  -5.934  0.00  0.00    +0.179 C 
ATOM     15  O   UNL     1       1.066   0.309  -6.351  0.00  0.00    -0.377 OA
ATOM     16  C   UNL     1      -0.101   0.412  -5.531  0.00  0.00    +0.179 C 
ATOM     17  C   UNL     1      -0.644   1.843  -5.604  0.00  0.00    +0.136 C 
ENDBRANCH   4  10
BRANCH   7  18
ATOM     18  N   UNL     1      -0.174   7.800  -0.463  0.00  0.00    +0.382 N 
ATOM     19  H   UNL     1      -1.019   7.217  -0.441  0.00  0.00    -0.085 HD
ATOM     20  H   UNL     1      -0.366   8.662  -0.987  0.00  0.00    -0.085 HD
BRANCH  18  21
ATOM     21  C   UNL     1       0.214   8.147   0.917  0.00  0.00    -0.071 C 
BRANCH  21  22
ATOM     22  C   UNL     1      -0.868   9.035   1.534  0.00  0.00    -0.019 C 
ATOM     23  C   UNL     1      -1.065  10.298   0.678  0.00  0.00    +0.010 C 
ATOM     24  C   UNL     1      -0.734  11.501   1.585  0.00  0.00    +0.001 C 
ATOM     25  C   UNL     1       0.194  10.911   2.675  0.00  0.00    +0.001 C 
ATOM     26  C   UNL     1      -0.424   9.515   2.932  0.00  0.00    +0.010 C 
BRANCH  22  27
ATOM     27  C   UNL     1      -2.164   8.273   1.638  0.00  0.00    -0.043 A 
ATOM     28  C   UNL     1      -3.043   8.257   0.571  0.00  0.00    +0.004 A 
ATOM     29  C   UNL     1      -4.230   7.554   0.664  0.00  0.00    +0.000 A 
ATOM     30  C   UNL     1      -4.542   6.875   1.828  0.00  0.00    +0.000 A 
ATOM     31  C   UNL     1      -3.665   6.896   2.896  0.00  0.00    +0.000 A 
ATOM     32  C   UNL     1      -2.476   7.594   2.801  0.00  0.00    +0.004 A 
ENDBRANCH  22  27
ENDBRANCH  21  22
ENDBRANCH  18  21
ENDBRANCH   7  18
BRANCH   1  34
ATOM     33  C   UNL     1       5.023   6.573  -5.367  0.00  0.00    +0.029 C 
ATOM     34  C   UNL     1       4.860   5.588  -4.208  0.00  0.00    +0.140 C 
ENDBRANCH   1  34
TORSDOF 6
