REMARK  Name = ZINC16678670
REMARK  7 active torsions:
REMARK  status: ('A' for Active; 'I' for Inactive)
REMARK    1  A    between atoms: C_1  and  C_2
REMARK    2  A    between atoms: C_2  and  N_3
REMARK    3  A    between atoms: N_3  and  C_4
REMARK    4  A    between atoms: N_3  and  C_6
REMARK    5  A    between atoms: C_4  and  C_5
REMARK    6  A    between atoms: C_22  and  C_25
REMARK    7  A    between atoms: N_27  and  C_28
REMARK                            x       y       z     vdW  Elec       q    Type
REMARK                         _______ _______ _______ _____ _____    ______ ____
ROOT
ATOM      1  C   UNL     1       2.389  -3.250  -6.094  0.00  0.00    +0.032 A 
ATOM      2  C   UNL     1       1.235  -2.494  -6.326  0.00  0.00    +0.024 A 
ATOM      3  C   UNL     1       0.633  -1.826  -5.293  0.00  0.00    +0.019 A 
ATOM      4  C   UNL     1       1.175  -1.908  -4.029  0.00  0.00    +0.038 A 
ATOM      5  C   UNL     1       2.348  -2.666  -3.753  0.00  0.00    +0.080 A 
ATOM      6  C   UNL     1       2.945  -3.343  -4.838  0.00  0.00    +0.052 A 
ATOM      7  N   UNL     1       2.874  -2.748  -2.542  0.00  0.00    -0.245 NA
ATOM      8  C   UNL     1       2.559  -2.251  -1.381  0.00  0.00    +0.087 A 
ATOM      9  C   UNL     1       3.383  -2.547  -0.187  0.00  0.00    +0.012 A 
ATOM     10  C   UNL     1       4.508  -3.362  -0.292  0.00  0.00    +0.011 A 
ATOM     11  C   UNL     1       5.267  -3.630   0.829  0.00  0.00    +0.001 A 
ATOM     12  C   UNL     1       4.918  -3.092   2.058  0.00  0.00    +0.001 A 
ATOM     13  C   UNL     1       3.808  -2.283   2.180  0.00  0.00    +0.012 A 
ATOM     14  C   UNL     1       3.026  -2.000   1.058  0.00  0.00    +0.032 A 
ATOM     15  C   UNL     1       1.843  -1.131   1.183  0.00  0.00    +0.200 A 
ATOM     16  O   UNL     1       1.546  -0.658   2.267  0.00  0.00    -0.286 OA
ATOM     17  C   UNL     1       1.046  -0.848   0.046  0.00  0.00    +0.100 A 
ATOM     18  C   UNL     1       1.384  -1.380  -1.189  0.00  0.00    +0.055 A 
ATOM     19  S   UNL     1       0.467  -1.077  -2.625  0.00  0.00    -0.084 S 
ENDROOT
BRANCH  17  20
ATOM     20  C   UNL     1      -0.133   0.011   0.173  0.00  0.00    +0.253 C 
ATOM     21  O   UNL     1      -1.218  -0.478   0.428  0.00  0.00    -0.270 OA
ATOM     22  N   UNL     1      -0.016   1.344   0.009  0.00  0.00    -0.281 N 
ATOM     23  H   UNL     1       0.859   1.742  -0.119  0.00  0.00    +0.155 HD
BRANCH  22  24
ATOM     24  C   UNL     1      -1.157   2.152   0.019  0.00  0.00    +0.034 A 
ATOM     25  C   UNL     1      -2.357   1.668  -0.486  0.00  0.00    +0.023 A 
ATOM     26  C   UNL     1      -3.484   2.466  -0.471  0.00  0.00    +0.002 A 
ATOM     27  C   UNL     1      -3.416   3.751   0.037  0.00  0.00    +0.000 A 
ATOM     28  C   UNL     1      -2.221   4.238   0.536  0.00  0.00    +0.002 A 
ATOM     29  C   UNL     1      -1.092   3.442   0.528  0.00  0.00    +0.023 A 
ENDBRANCH  22  24
ENDBRANCH  17  20
BRANCH   1  30
ATOM     30  N   UNL     1       2.990  -3.925  -7.159  0.00  0.00    -0.330 N 
BRANCH  30  32
ATOM     31  C   UNL     1       3.024  -2.647  -9.244  0.00  0.00    +0.024 C 
ATOM     32  C   UNL     1       2.411  -3.836  -8.502  0.00  0.00    +0.102 C 
ENDBRANCH  30  32
BRANCH  30  33
ATOM     33  C   UNL     1       4.199  -4.721  -6.933  0.00  0.00    +0.102 C 
ATOM     34  C   UNL     1       3.805  -6.156  -6.580  0.00  0.00    +0.024 C 
ENDBRANCH  30  33
ENDBRANCH   1  30
TORSDOF 5
