REMARK  Name = ZINC39693331
REMARK  11 active torsions:
REMARK  status: ('A' for Active; 'I' for Inactive)
REMARK    1  A    between atoms: C_1  and  C_2
REMARK    2  A    between atoms: C_2  and  C_3
REMARK    3  A    between atoms: C_3  and  C_5
REMARK    4  A    between atoms: C_3  and  C_6
REMARK    5  A    between atoms: C_6  and  C_7
REMARK    6  A    between atoms: C_11  and  C_20
REMARK    7  A    between atoms: N_22  and  C_23
REMARK    8  A    between atoms: C_23  and  C_24
REMARK    9  A    between atoms: C_24  and  N_25
REMARK   10  A    between atoms: C_26  and  C_28
REMARK   11  A    between atoms: C_28  and  C_29
REMARK                            x       y       z     vdW  Elec       q    Type
REMARK                         _______ _______ _______ _____ _____    ______ ____
ROOT
ATOM      1  C   UNL     1      -2.384  -7.464  -0.209  0.00  0.00    +0.218 C 
ATOM      2  O   UNL     1      -2.304  -7.567  -1.415  0.00  0.00    -0.275 OA
ATOM      3  N   UNL     1      -2.187  -8.543   0.574  0.00  0.00    -0.314 N 
ATOM      4  H   UNL     1      -2.251  -8.460   1.538  0.00  0.00    +0.149 HD
ENDROOT
BRANCH   1   9
ATOM      5  C   UNL     1      -2.987  -2.586  -0.278  0.00  0.00    +0.216 C 
ATOM      6  O   UNL     1      -3.938  -1.837  -0.202  0.00  0.00    -0.276 OA
ATOM      7  N   UNL     1      -3.183  -3.916  -0.370  0.00  0.00    -0.300 N 
ATOM      8  C   UNL     1      -2.157  -4.981  -0.464  0.00  0.00    +0.121 C 
ATOM      9  C   UNL     1      -2.705  -6.129   0.413  0.00  0.00    +0.100 C 
ATOM     10  C   UNL     1      -4.226  -5.904   0.450  0.00  0.00    -0.004 C 
ATOM     11  C   UNL     1      -4.474  -4.645  -0.393  0.00  0.00    +0.115 C 
ATOM     12  C   UNL     1      -4.952  -7.100  -0.158  0.00  0.00    -0.010 C 
ATOM     13  C   UNL     1      -6.464  -6.878  -0.057  0.00  0.00    -0.082 C 
ATOM     14  N   UNL     1      -6.843  -6.714   1.351  0.00  0.00    +0.379 N 
ATOM     15  C   UNL     1      -6.213  -5.508   1.902  0.00  0.00    -0.082 C 
ATOM     16  C   UNL     1      -4.691  -5.672   1.884  0.00  0.00    -0.010 C 
ATOM     17  H   UNL     1      -7.846  -6.629   1.420  0.00  0.00    -0.086 HD
ATOM     18  H   UNL     1      -6.540  -7.520   1.876  0.00  0.00    -0.086 HD
BRANCH   5  19
ATOM     19  C   UNL     1      -1.587  -2.029  -0.270  0.00  0.00    +0.099 C 
BRANCH  19  20
ATOM     20  C   UNL     1      -1.644  -0.505  -0.158  0.00  0.00    -0.006 C 
ATOM     21  C   UNL     1      -2.243  -0.115   1.195  0.00  0.00    +0.008 C 
BRANCH  20  23
ATOM     22  C   UNL     1      -0.300   1.597  -0.288  0.00  0.00    +0.004 C 
ATOM     23  C   UNL     1      -0.231   0.069  -0.275  0.00  0.00    +0.000 C 
ENDBRANCH  20  23
ENDBRANCH  19  20
ENDBRANCH   5  19
ENDBRANCH   1   9
BRANCH   3  24
ATOM     24  C   UNL     1      -1.876  -9.840  -0.031  0.00  0.00    +0.123 C 
BRANCH  24  25
ATOM     25  C   UNL     1      -1.700 -10.887   1.070  0.00  0.00    +0.123 C 
BRANCH  25  26
ATOM     26  N   UNL     1      -1.389 -12.185   0.465  0.00  0.00    -0.314 N 
ATOM     27  C   UNL     1      -1.192 -13.264   1.248  0.00  0.00    +0.217 C 
ATOM     28  O   UNL     1      -1.272 -13.161   2.454  0.00  0.00    -0.275 OA
ATOM     29  H   UNL     1      -1.325 -12.267  -0.500  0.00  0.00    +0.149 HD
BRANCH  27  30
ATOM     30  C   UNL     1      -0.871 -14.598   0.625  0.00  0.00    +0.131 C 
BRANCH  30  31
ATOM     31  C   UNL     1      -0.699 -15.630   1.710  0.00  0.00    -0.031 A 
ATOM     32  C   UNL     1       0.542 -15.917   2.190  0.00  0.00    +0.005 A 
ATOM     33  C   UNL     1       0.722 -16.868   3.192  0.00  0.00    +0.001 A 
ATOM     34  C   UNL     1      -0.339 -17.538   3.721  0.00  0.00    +0.008 A 
ATOM     35  C   UNL     1      -1.635 -17.269   3.251  0.00  0.00    -0.018 A 
ATOM     36  C   UNL     1      -1.818 -16.297   2.235  0.00  0.00    -0.014 A 
ATOM     37  C   UNL     1      -3.116 -16.023   1.769  0.00  0.00    +0.009 A 
ATOM     38  C   UNL     1      -4.177 -16.689   2.301  0.00  0.00    +0.001 A 
ATOM     39  C   UNL     1      -3.997 -17.640   3.304  0.00  0.00    +0.001 A 
ATOM     40  C   UNL     1      -2.755 -17.941   3.771  0.00  0.00    +0.008 A 
ENDBRANCH  30  31
ENDBRANCH  27  30
ENDBRANCH  25  26
ENDBRANCH  24  25
ENDBRANCH   3  24
TORSDOF 9
