REMARK  Name = ZINC64976761
REMARK  10 active torsions:
REMARK  status: ('A' for Active; 'I' for Inactive)
REMARK    1  A    between atoms: C_1  and  C_2
REMARK    2  A    between atoms: C_5  and  N_20
REMARK    3  A    between atoms: C_6  and  O_8
REMARK    4  A    between atoms: O_8  and  C_9
REMARK    5  A    between atoms: C_9  and  C_10
REMARK    6  A    between atoms: C_21  and  C_23
REMARK    7  A    between atoms: C_23  and  O_24
REMARK    8  A    between atoms: O_24  and  C_25
REMARK    9  A    between atoms: C_28  and  C_32
REMARK   10  A    between atoms: C_29  and  C_31
REMARK                            x       y       z     vdW  Elec       q    Type
REMARK                         _______ _______ _______ _____ _____    ______ ____
ROOT
ATOM      1  C   UNL     1      -0.060   1.502  -0.009  0.00  0.00    +0.044 C 
ATOM      2  C   UNL     1      -0.028  -0.004  -0.012  0.00  0.00    -0.047 A 
ATOM      3  C   UNL     1      -0.021  -0.691  -1.212  0.00  0.00    +0.005 A 
ATOM      4  C   UNL     1       0.007  -2.073  -1.221  0.00  0.00    +0.027 A 
ATOM      5  C   UNL     1       0.029  -2.774  -0.024  0.00  0.00    +0.076 A 
ATOM      6  C   UNL     1       0.022  -2.081   1.184  0.00  0.00    +0.142 A 
ATOM      7  C   UNL     1      -0.001  -0.696   1.185  0.00  0.00    +0.051 A 
ENDROOT
BRANCH   5   8
ATOM      8  N   UNL     1       0.057  -4.175  -0.031  0.00  0.00    -0.280 N 
ATOM      9  C   UNL     1       0.554  -4.834  -1.097  0.00  0.00    +0.255 C 
ATOM     10  O   UNL     1       1.067  -4.217  -2.006  0.00  0.00    -0.272 OA
ATOM     11  H   UNL     1      -0.281  -4.670   0.732  0.00  0.00    +0.155 HD
BRANCH   9  12
ATOM     12  C   UNL     1       0.471  -6.337  -1.159  0.00  0.00    +0.324 C 
BRANCH  12  13
ATOM     13  O   UNL     1       1.060  -6.797  -2.376  0.00  0.00    -0.483 OA
BRANCH  13  14
ATOM     14  C   UNL     1       1.067  -8.139  -2.590  0.00  0.00    +0.121 A 
ATOM     15  C   UNL     1       0.513  -8.996  -1.650  0.00  0.00    +0.046 A 
ATOM     16  C   UNL     1       0.521 -10.359  -1.869  0.00  0.00    +0.007 A 
ATOM     17  C   UNL     1       1.081 -10.871  -3.026  0.00  0.00    -0.047 A 
ATOM     18  C   UNL     1       1.635 -10.020  -3.964  0.00  0.00    -0.044 A 
ATOM     19  C   UNL     1       1.624  -8.655  -3.752  0.00  0.00    +0.049 A 
ATOM     20  C   UNL     1       2.245 -10.581  -5.223  0.00  0.00    +0.044 C 
ATOM     21  C   UNL     1       1.089 -12.359  -3.263  0.00  0.00    +0.044 C 
ENDBRANCH  13  14
ENDBRANCH  12  13
ENDBRANCH   9  12
ENDBRANCH   5   8
BRANCH   6  22
ATOM     22  O   UNL     1       0.043  -2.763   2.361  0.00  0.00    -0.484 OA
BRANCH  22  23
ATOM     23  C   UNL     1       0.035  -1.987   3.561  0.00  0.00    +0.284 C 
BRANCH  23  24
ATOM     24  C   UNL     1       0.061  -2.907   4.754  0.00  0.00    +0.086 A 
ATOM     25  C   UNL     1       1.140  -2.911   5.612  0.00  0.00    +0.097 A 
ATOM     26  C   UNL     1       1.145  -3.770   6.712  0.00  0.00    +0.259 A 
ATOM     27  O   UNL     1       2.098  -3.778   7.476  0.00  0.00    -0.267 OA
ATOM     28  N   UNL     1       0.084  -4.601   6.934  0.00  0.00    -0.262 N 
ATOM     29  C   UNL     1      -0.057  -5.497   7.967  0.00  0.00    +0.104 A 
ATOM     30  C   UNL     1      -1.147  -6.256   8.075  0.00  0.00    +0.067 A 
ATOM     31  S   UNL     1      -2.099  -5.734   6.657  0.00  0.00    -0.058 S 
ATOM     32  C   UNL     1      -0.945  -4.531   6.033  0.00  0.00    +0.180 A 
ATOM     33  N   UNL     1      -0.959  -3.724   5.001  0.00  0.00    -0.224 NA
ENDBRANCH  23  24
ENDBRANCH  22  23
ENDBRANCH   6  22
TORSDOF 7
