REMARK  Name = ZINC64858469
REMARK  3 active torsions:
REMARK  status: ('A' for Active; 'I' for Inactive)
REMARK    1  A    between atoms: C_19  and  C_21
REMARK    2  A    between atoms: C_21  and  O_22
REMARK    3  A    between atoms: O_22  and  C_23
REMARK                            x       y       z     vdW  Elec       q    Type
REMARK                         _______ _______ _______ _____ _____    ______ ____
ROOT
ATOM      1  C   UNL     1      -0.016   1.348   0.009  0.00  0.00    +0.020 A 
ATOM      2  C   UNL     1       1.324   1.792  -0.001  0.00  0.00    +0.025 A 
ATOM      3  C   UNL     1       2.105   0.706  -0.020  0.00  0.00    +0.047 A 
ATOM      4  N   UNL     1       1.295  -0.408  -0.002  0.00  0.00    -0.316 N 
ATOM      5  C   UNL     1       0.002  -0.004   0.002  0.00  0.00    +0.092 A 
ATOM      6  C   UNL     1       1.836  -1.703   0.028  0.00  0.00    +0.069 A 
ATOM      7  C   UNL     1       1.048  -2.823  -0.154  0.00  0.00    +0.048 A 
ATOM      8  C   UNL     1       1.627  -4.081  -0.138  0.00  0.00    +0.043 A 
ATOM      9  C   UNL     1       2.991  -4.214   0.058  0.00  0.00    +0.022 A 
ATOM     10  C   UNL     1       3.783  -3.097   0.249  0.00  0.00    +0.026 A 
ATOM     11  C   UNL     1       3.211  -1.835   0.246  0.00  0.00    +0.052 A 
ATOM     12  N   UNL     1       3.994  -0.701   0.496  0.00  0.00    -0.331 N 
ATOM     13  C   UNL     1       3.609   0.604  -0.059  0.00  0.00    +0.075 C 
ATOM     14  C   UNL     1       4.223   1.721   0.784  0.00  0.00    +0.051 C 
ATOM     15  C   UNL     1       5.749   1.582   0.777  0.00  0.00    +0.110 C 
ATOM     16  N   UNL     1       6.213   1.549  -0.617  0.00  0.00    -0.299 N 
ATOM     17  C   UNL     1       5.623   0.565  -1.535  0.00  0.00    +0.110 C 
ATOM     18  C   UNL     1       4.098   0.713  -1.503  0.00  0.00    +0.051 C 
ATOM     19  C   UNL     1       7.162   2.405  -1.046  0.00  0.00    +0.253 C 
ATOM     20  O   UNL     1       7.641   3.212  -0.278  0.00  0.00    -0.272 OA
ATOM     21 CL   UNL     1       0.642  -5.492  -0.363  0.00  0.00    -0.083 Cl
ATOM     22  H   UNL     1       4.795  -0.777   1.039  0.00  0.00    +0.147 HD
ENDROOT
BRANCH  19  23
ATOM     23  C   UNL     1       7.627   2.358  -2.478  0.00  0.00    +0.324 C 
BRANCH  23  24
ATOM     24  O   UNL     1       8.630   3.355  -2.686  0.00  0.00    -0.483 OA
BRANCH  24  25
ATOM     25  C   UNL     1       9.159   3.447  -3.934  0.00  0.00    +0.121 A 
ATOM     26  C   UNL     1       8.718   2.600  -4.940  0.00  0.00    +0.047 A 
ATOM     27  C   UNL     1       9.257   2.695  -6.208  0.00  0.00    +0.023 A 
ATOM     28  C   UNL     1      10.236   3.635  -6.476  0.00  0.00    +0.041 A 
ATOM     29  C   UNL     1      10.678   4.481  -5.474  0.00  0.00    +0.023 A 
ATOM     30  C   UNL     1      10.136   4.393  -4.206  0.00  0.00    +0.047 A 
ATOM     31 CL   UNL     1      10.912   3.752  -8.071  0.00  0.00    -0.084 Cl
ENDBRANCH  24  25
ENDBRANCH  23  24
ENDBRANCH  19  23
TORSDOF 3
