REMARK  Name = ZINC64871093
REMARK  5 active torsions:
REMARK  status: ('A' for Active; 'I' for Inactive)
REMARK    1  A    between atoms: C_1  and  C_2
REMARK    2  A    between atoms: C_6  and  C_8
REMARK    3  A    between atoms: C_11  and  C_15
REMARK    4  A    between atoms: N_25  and  C_28
REMARK    5  A    between atoms: C_28  and  C_29
REMARK                            x       y       z     vdW  Elec       q    Type
REMARK                         _______ _______ _______ _____ _____    ______ ____
ROOT
ATOM      1  C   UNL     1       2.469  -5.285   3.728  0.00  0.00    -0.000 A 
ATOM      2  C   UNL     1       3.363  -5.220   2.670  0.00  0.00    +0.008 A 
ATOM      3  C   UNL     1       4.481  -6.026   2.650  0.00  0.00    +0.016 A 
ATOM      4  C   UNL     1       4.709  -6.910   3.702  0.00  0.00    +0.063 A 
ATOM      5  C   UNL     1       3.802  -6.975   4.774  0.00  0.00    +0.056 A 
ATOM      6  C   UNL     1       2.686  -6.152   4.780  0.00  0.00    +0.034 A 
ATOM      7  N   UNL     1       4.054  -7.864   5.809  0.00  0.00    -0.307 N 
ATOM      8  H   UNL     1       3.437  -7.920   6.555  0.00  0.00    +0.170 HD
ATOM      9  C   UNL     1       5.146  -8.649   5.787  0.00  0.00    +0.330 A 
ATOM     10  O   UNL     1       5.330  -9.415   6.713  0.00  0.00    -0.246 OA
ATOM     11  N   UNL     1       6.040  -8.623   4.787  0.00  0.00    -0.256 N 
ATOM     12  C   UNL     1       5.888  -7.794   3.731  0.00  0.00    +0.265 A 
ATOM     13  O   UNL     1       6.703  -7.777   2.829  0.00  0.00    -0.267 OA
ENDROOT
BRANCH   1  16
ATOM     14  C   UNL     1       0.054  -2.845   2.489  0.00  0.00    +0.180 C 
ATOM     15  N   UNL     1       0.810  -4.117   2.341  0.00  0.00    -0.265 NA
ATOM     16  C   UNL     1       1.253  -4.395   3.732  0.00  0.00    +0.242 C 
ATOM     17  O   UNL     1       1.575  -3.104   4.282  0.00  0.00    -0.274 OA
ATOM     18  N   UNL     1       0.816  -2.100   3.518  0.00  0.00    -0.177 NA
ATOM     19  H   UNL     1       0.214  -4.854   1.997  0.00  0.00    +0.127 HD
ATOM     20  H   UNL     1       1.434  -1.425   3.093  0.00  0.00    +0.156 HD
BRANCH  14  26
ATOM     21  C   UNL     1      -0.018   1.503   0.010  0.00  0.00    +0.044 C 
ATOM     22  C   UNL     1       0.002  -0.004   0.002  0.00  0.00    -0.050 A 
ATOM     23  C   UNL     1       0.006  -0.689  -1.199  0.00  0.00    +0.003 A 
ATOM     24  C   UNL     1       0.025  -2.071  -1.207  0.00  0.00    +0.001 A 
ATOM     25  C   UNL     1       0.040  -2.768  -0.013  0.00  0.00    +0.006 A 
ATOM     26  C   UNL     1       0.037  -2.084   1.188  0.00  0.00    -0.014 A 
ATOM     27  C   UNL     1       0.023  -0.702   1.195  0.00  0.00    +0.010 A 
ENDBRANCH  14  26
ENDBRANCH   1  16
BRANCH  11  28
ATOM     28  C   UNL     1       7.203  -9.512   4.840  0.00  0.00    +0.165 C 
BRANCH  28  29
ATOM     29  C   UNL     1       6.866 -10.821   4.175  0.00  0.00    -0.026 A 
ATOM     30  C   UNL     1       6.325 -11.855   4.917  0.00  0.00    +0.005 A 
ATOM     31  C   UNL     1       6.016 -13.056   4.308  0.00  0.00    +0.002 A 
ATOM     32  C   UNL     1       6.246 -13.225   2.955  0.00  0.00    +0.020 A 
ATOM     33  C   UNL     1       6.787 -12.191   2.212  0.00  0.00    +0.041 A 
ATOM     34  C   UNL     1       7.091 -10.987   2.821  0.00  0.00    +0.025 A 
ATOM     35 CL   UNL     1       7.077 -12.403   0.513  0.00  0.00    -0.084 Cl
ENDBRANCH  28  29
ENDBRANCH  11  28
TORSDOF 4
