REMARK  Name = ZINC00914534
REMARK  9 active torsions:
REMARK  status: ('A' for Active; 'I' for Inactive)
REMARK    1  A    between atoms: C_1  and  C_2
REMARK    2  A    between atoms: C_5  and  S_8
REMARK    3  A    between atoms: S_8  and  N_11
REMARK    4  A    between atoms: N_11  and  C_12
REMARK    5  A    between atoms: N_11  and  C_22
REMARK    6  A    between atoms: C_12  and  C_13
REMARK    7  A    between atoms: C_22  and  C_23
REMARK    8  A    between atoms: C_26  and  C_36
REMARK    9  A    between atoms: C_28  and  C_35
REMARK                            x       y       z     vdW  Elec       q    Type
REMARK                         _______ _______ _______ _____ _____    ______ ____
ROOT
ATOM      1  N   UNL     1       6.003  -0.998   1.292  0.00  0.00    -0.168 NA
ENDROOT
BRANCH   1   2
ATOM      2  S   UNL     1       6.891   0.295   0.760  0.00  0.00    +0.061 S 
ATOM      3  O   UNL     1       7.289  -0.005  -0.571  0.00  0.00    -0.153 OA
ATOM      4  O   UNL     1       6.147   1.461   1.087  0.00  0.00    -0.153 OA
BRANCH   2   9
ATOM      5  C   UNL     1      11.933   0.483   4.069  0.00  0.00    +0.044 C 
ATOM      6  C   UNL     1      10.673   0.437   3.242  0.00  0.00    -0.050 A 
ATOM      7  C   UNL     1      10.645  -0.290   2.067  0.00  0.00    +0.005 A 
ATOM      8  C   UNL     1       9.490  -0.333   1.309  0.00  0.00    +0.029 A 
ATOM      9  C   UNL     1       8.363   0.350   1.726  0.00  0.00    +0.106 A 
ATOM     10  C   UNL     1       8.393   1.081   2.899  0.00  0.00    +0.029 A 
ATOM     11  C   UNL     1       9.547   1.120   3.660  0.00  0.00    +0.005 A 
ENDBRANCH   2   9
ENDBRANCH   1   2
BRANCH   1  12
ATOM     12  C   UNL     1       4.936  -0.798   2.276  0.00  0.00    +0.145 C 
BRANCH  12  13
ATOM     13  C   UNL     1       5.448  -1.146   3.650  0.00  0.00    -0.028 A 
ATOM     14  C   UNL     1       5.923  -0.149   4.482  0.00  0.00    +0.009 A 
ATOM     15  C   UNL     1       6.394  -0.463   5.743  0.00  0.00    +0.050 A 
ATOM     16  C   UNL     1       6.391  -1.778   6.176  0.00  0.00    +0.166 A 
ATOM     17  C   UNL     1       5.912  -2.783   5.339  0.00  0.00    +0.167 A 
ATOM     18  C   UNL     1       5.442  -2.461   4.076  0.00  0.00    +0.054 A 
ATOM     19  O   UNL     1       6.014  -3.979   5.989  0.00  0.00    -0.453 OA
ATOM     20  C   UNL     1       6.178  -3.647   7.380  0.00  0.00    +0.466 C 
ATOM     21  O   UNL     1       6.793  -2.345   7.351  0.00  0.00    -0.453 OA
ENDBRANCH  12  13
ENDBRANCH   1  12
BRANCH   1  22
ATOM     22  C   UNL     1       6.286  -2.341   0.779  0.00  0.00    +0.150 C 
BRANCH  22  23
ATOM     23  C   UNL     1       5.345  -2.653  -0.356  0.00  0.00    +0.033 A 
ATOM     24  C   UNL     1       5.732  -2.426  -1.635  0.00  0.00    +0.020 A 
ATOM     25  C   UNL     1       4.796  -2.744  -2.716  0.00  0.00    +0.002 A 
ATOM     26  C   UNL     1       5.140  -2.536  -4.056  0.00  0.00    -0.041 A 
ATOM     27  C   UNL     1       4.243  -2.840  -5.040  0.00  0.00    +0.007 A 
ATOM     28  C   UNL     1       2.992  -3.352  -4.722  0.00  0.00    -0.048 A 
ATOM     29  C   UNL     1       2.631  -3.564  -3.409  0.00  0.00    +0.029 A 
ATOM     30  C   UNL     1       3.529  -3.263  -2.390  0.00  0.00    +0.050 A 
ATOM     31  N   UNL     1       3.195  -3.466  -1.068  0.00  0.00    -0.322 N 
ATOM     32  H   UNL     1       2.294  -3.835  -0.838  0.00  0.00    +0.169 HD
ATOM     33  C   UNL     1       4.063  -3.175  -0.083  0.00  0.00    +0.254 A 
ATOM     34  O   UNL     1       3.734  -3.368   1.075  0.00  0.00    -0.268 OA
ATOM     35  C   UNL     1       2.018  -3.679  -5.825  0.00  0.00    +0.044 C 
ATOM     36  C   UNL     1       6.495  -1.980  -4.412  0.00  0.00    +0.044 C 
ENDBRANCH  22  23
ENDBRANCH   1  22
TORSDOF 6
