REMARK  Name = ZINC20533443
REMARK  7 active torsions:
REMARK  status: ('A' for Active; 'I' for Inactive)
REMARK    1  A    between atoms: C_1  and  C_2
REMARK    2  A    between atoms: C_2  and  O_4
REMARK    3  A    between atoms: O_4  and  C_5
REMARK    4  A    between atoms: C_8  and  N_11
REMARK    5  A    between atoms: C_16  and  C_34
REMARK    6  A    between atoms: C_34  and  C_35
REMARK    7  A    between atoms: C_38  and  O_41
REMARK                            x       y       z     vdW  Elec       q    Type
REMARK                         _______ _______ _______ _____ _____    ______ ____
ROOT
ATOM      1  N   UNL     1       0.360  -6.168  -0.684  0.00  0.00    -0.210 N 
ATOM      2  C   UNL     1       0.255  -6.800   0.490  0.00  0.00    +0.232 C 
ATOM      3  O   UNL     1       0.078  -6.262   1.562  0.00  0.00    -0.274 OA
ATOM      4  C   UNL     1       0.391  -8.289   0.273  0.00  0.00    +0.108 C 
ATOM      5  C   UNL     1       1.703  -8.782   0.919  0.00  0.00    +0.072 C 
ATOM      6  N   UNL     1       2.742  -8.584  -0.126  0.00  0.00    -0.295 NA
ATOM      7  C   UNL     1       2.062  -8.945  -1.384  0.00  0.00    +0.136 C 
ATOM      8  C   UNL     1       0.614  -8.409  -1.261  0.00  0.00    +0.123 C 
ATOM      9  C   UNL     1       0.554  -6.974  -1.734  0.00  0.00    +0.233 C 
ATOM     10  O   UNL     1       0.667  -6.611  -2.885  0.00  0.00    -0.274 OA
ATOM     11  C   UNL     1       2.767  -8.364  -2.577  0.00  0.00    +0.006 A 
ATOM     12  C   UNL     1       3.076  -7.079  -2.962  0.00  0.00    +0.046 A 
ATOM     13  C   UNL     1       3.754  -6.855  -4.149  0.00  0.00    +0.124 A 
ATOM     14  C   UNL     1       4.119  -7.927  -4.946  0.00  0.00    +0.040 A 
ATOM     15  C   UNL     1       3.809  -9.216  -4.563  0.00  0.00    +0.026 A 
ATOM     16  C   UNL     1       3.128  -9.449  -3.371  0.00  0.00    +0.039 A 
ATOM     17  N   UNL     1       2.708 -10.643  -2.778  0.00  0.00    -0.283 N 
ATOM     18  C   UNL     1       2.074 -10.432  -1.608  0.00  0.00    +0.243 C 
ATOM     19  O   UNL     1       1.604 -11.278  -0.877  0.00  0.00    -0.273 OA
ATOM     20  F   UNL     1       4.059  -5.595  -4.529  0.00  0.00    -0.205 F 
ATOM     21  H   UNL     1       3.056  -7.625  -0.147  0.00  0.00    +0.124 HD
ATOM     22  H   UNL     1       2.855 -11.520  -3.163  0.00  0.00    +0.155 HD
ENDROOT
BRANCH   1  26
ATOM     23  C   UNL     1       0.086  -2.021  -1.045  0.00  0.00    +0.132 A 
ATOM     24  C   UNL     1      -0.905  -2.830  -1.580  0.00  0.00    +0.048 A 
ATOM     25  C   UNL     1      -0.815  -4.203  -1.461  0.00  0.00    +0.027 A 
ATOM     26  C   UNL     1       0.268  -4.773  -0.806  0.00  0.00    +0.044 A 
ATOM     27  C   UNL     1       1.260  -3.962  -0.272  0.00  0.00    +0.027 A 
ATOM     28  C   UNL     1       1.172  -2.590  -0.395  0.00  0.00    +0.048 A 
BRANCH  23  29
ATOM     29  O   UNL     1      -0.003  -0.669  -1.163  0.00  0.00    -0.426 OA
BRANCH  29  31
ATOM     30  C   UNL     1      -0.907   1.486  -0.365  0.00  0.00    +0.136 C 
ATOM     31  C   UNL     1      -0.853  -0.020  -0.351  0.00  0.00    +0.309 C 
ATOM     32  O   UNL     1      -1.575  -0.644   0.390  0.00  0.00    -0.251 OA
ENDBRANCH  29  31
ENDBRANCH  23  29
ENDBRANCH   1  26
BRANCH   5  33
ATOM     33  C   UNL     1       2.030  -7.950   2.161  0.00  0.00    +0.054 C 
BRANCH  33  34
ATOM     34  C   UNL     1       3.244  -8.523   2.845  0.00  0.00    -0.046 A 
ATOM     35  C   UNL     1       3.094  -9.498   3.814  0.00  0.00    +0.007 A 
ATOM     36  C   UNL     1       4.205 -10.025   4.443  0.00  0.00    +0.045 A 
ATOM     37  C   UNL     1       5.473  -9.576   4.101  0.00  0.00    +0.117 A 
ATOM     38  C   UNL     1       5.620  -8.598   3.128  0.00  0.00    +0.045 A 
ATOM     39  C   UNL     1       4.506  -8.078   2.499  0.00  0.00    +0.007 A 
BRANCH  37  40
ATOM     40  O   UNL     1       6.567 -10.092   4.719  0.00  0.00    -0.507 OA
ATOM     41  H   UNL     1       6.939 -10.868   4.277  0.00  0.00    +0.292 HD
ENDBRANCH  37  40
ENDBRANCH  33  34
ENDBRANCH   5  33
TORSDOF 6
