REMARK  Name = ZINC15105643
REMARK  13 active torsions:
REMARK  status: ('A' for Active; 'I' for Inactive)
REMARK    1  A    between atoms: C_1  and  C_2
REMARK    2  A    between atoms: C_2  and  O_3
REMARK    3  A    between atoms: O_3  and  C_4
REMARK    4  A    between atoms: C_4  and  C_6
REMARK    5  A    between atoms: C_7  and  C_34
REMARK    6  A    between atoms: C_8  and  C_30
REMARK    7  A    between atoms: C_10  and  N_11
REMARK    8  A    between atoms: C_12  and  C_14
REMARK    9  A    between atoms: C_14  and  N_67
REMARK   10  A    between atoms: C_20  and  C_22
REMARK   11  A    between atoms: C_25  and  O_28
REMARK   12  A    between atoms: O_28  and  C_29
REMARK   13  A    between atoms: N_32  and  C_33
REMARK                            x       y       z     vdW  Elec       q    Type
REMARK                         _______ _______ _______ _____ _____    ______ ____
ROOT
ATOM      1  N   UNL     1      -1.118   5.347   0.039  0.00  0.00    -0.281 N 
ATOM      2  C   UNL     1      -2.454   5.522   0.052  0.00  0.00    +0.201 C 
ATOM      3  O   UNL     1      -3.191   4.559   0.054  0.00  0.00    -0.278 OA
ATOM      4  H   UNL     1      -0.528   6.118   0.037  0.00  0.00    +0.155 HD
ENDROOT
BRANCH   1   9
ATOM      5  C   UNL     1       0.757   3.687   0.014  0.00  0.00    +0.091 A 
ATOM      6  C   UNL     1       1.039   2.329   0.005  0.00  0.00    -0.015 A 
ATOM      7  C   UNL     1      -0.018   1.460   0.010  0.00  0.00    +0.079 A 
ATOM      8  S   UNL     1      -1.425   2.554   0.021  0.00  0.00    -0.068 S 
ATOM      9  C   UNL     1      -0.588   4.072   0.028  0.00  0.00    +0.087 A 
ATOM     10  C   UNL     1       2.460   1.828  -0.011  0.00  0.00    +0.046 C 
BRANCH   7  11
ATOM     11  C   UNL     1       0.002  -0.004   0.002  0.00  0.00    +0.251 C 
ATOM     12  O   UNL     1       1.064  -0.598  -0.011  0.00  0.00    -0.270 OA
ATOM     13  N   UNL     1      -1.156  -0.694   0.009  0.00  0.00    -0.314 N 
ATOM     14  C   UNL     1      -1.136  -2.159   0.001  0.00  0.00    +0.128 C 
ATOM     15  H   UNL     1      -2.002  -0.220   0.020  0.00  0.00    +0.149 HD
ENDBRANCH   7  11
BRANCH   5  16
ATOM     16  C   UNL     1       1.832   4.685   0.009  0.00  0.00    +0.342 C 
ATOM     17  O   UNL     1       2.268   5.104  -1.046  0.00  0.00    -0.245 OA
BRANCH  16  18
ATOM     18  O   UNL     1       2.336   5.138   1.175  0.00  0.00    -0.461 OA
BRANCH  18  20
ATOM     19  C   UNL     1       3.839   6.516   2.507  0.00  0.00    +0.048 C 
ATOM     20  C   UNL     1       3.398   6.125   1.095  0.00  0.00    +0.229 C 
ENDBRANCH  18  20
ENDBRANCH  16  18
ENDBRANCH   5  16
ENDBRANCH   1   9
BRANCH   2  21
ATOM     21  C   UNL     1      -3.033   6.913   0.064  0.00  0.00    +0.020 C 
BRANCH  21  28
ATOM     22  C   UNL     1      -5.003   6.146  -1.128  0.00  0.00    -0.077 C 
ATOM     23  C   UNL     1      -6.295   5.457  -0.768  0.00  0.00    -0.019 C 
ATOM     24  C   UNL     1      -7.516   6.326  -1.115  0.00  0.00    -0.002 C 
ATOM     25  C   UNL     1      -7.287   7.810  -0.766  0.00  0.00    -0.001 C 
ATOM     26  C   UNL     1      -6.589   7.993   0.557  0.00  0.00    -0.011 C 
ATOM     27  C   UNL     1      -5.067   8.089   0.315  0.00  0.00    -0.037 C 
ATOM     28  N   UNL     1      -4.502   6.801   0.120  0.00  0.00    +0.390 N 
ATOM     29  H   UNL     1      -4.760   6.212   0.921  0.00  0.00    -0.080 HD
BRANCH  27  30
ATOM     30  C   UNL     1      -4.414   8.701   1.528  0.00  0.00    -0.061 A 
ATOM     31  C   UNL     1      -4.122   7.913   2.626  0.00  0.00    +0.005 A 
ATOM     32  C   UNL     1      -3.518   8.471   3.736  0.00  0.00    +0.046 A 
ATOM     33  C   UNL     1      -3.216   9.825   3.754  0.00  0.00    +0.120 A 
ATOM     34  C   UNL     1      -3.516  10.614   2.653  0.00  0.00    +0.046 A 
ATOM     35  C   UNL     1      -4.114  10.051   1.543  0.00  0.00    +0.005 A 
BRANCH  33  36
ATOM     36  O   UNL     1      -2.627  10.377   4.847  0.00  0.00    -0.495 OA
ATOM     37  C   UNL     1      -2.348   9.504   5.944  0.00  0.00    +0.277 C 
ENDBRANCH  33  36
ENDBRANCH  27  30
ENDBRANCH  21  28
ENDBRANCH   2  21
TORSDOF 9
