REMARK  Name = ZINC45810433
REMARK  8 active torsions:
REMARK  status: ('A' for Active; 'I' for Inactive)
REMARK    1  A    between atoms: C_1  and  C_2
REMARK    2  A    between atoms: C_4  and  C_29
REMARK    3  A    between atoms: C_7  and  C_12
REMARK    4  A    between atoms: N_14  and  N_15
REMARK    5  A    between atoms: C_16  and  C_18
REMARK    6  A    between atoms: C_18  and  C_20
REMARK    7  A    between atoms: C_18  and  O_21
REMARK    8  A    between atoms: O_21  and  C_22
REMARK                            x       y       z     vdW  Elec       q    Type
REMARK                         _______ _______ _______ _____ _____    ______ ____
ROOT
ATOM      1  C   UNL     1       0.556  -5.149   2.540  0.00  0.00    +0.276 C 
ATOM      2  O   UNL     1       0.758  -6.144   1.870  0.00  0.00    -0.267 OA
ATOM      3  N   UNL     1       0.390  -5.256   3.873  0.00  0.00    -0.229 N 
ATOM      4  H   UNL     1       0.228  -4.463   4.407  0.00  0.00    +0.173 HD
ENDROOT
BRANCH   1  11
ATOM      5  C   UNL     1      -0.010   2.031   0.681  0.00  0.00    +0.044 C 
ATOM      6  C   UNL     1       0.173   0.539   0.575  0.00  0.00    -0.048 A 
ATOM      7  C   UNL     1       0.405  -0.039  -0.666  0.00  0.00    +0.007 A 
ATOM      8  C   UNL     1       0.574  -1.388  -0.784  0.00  0.00    -0.041 A 
ATOM      9  C   UNL     1       0.514  -2.200   0.356  0.00  0.00    +0.003 A 
ATOM     10  C   UNL     1       0.644  -3.594   0.565  0.00  0.00    +0.041 A 
ATOM     11  C   UNL     1       0.493  -3.829   1.895  0.00  0.00    +0.104 A 
ATOM     12  N   UNL     1       0.270  -2.630   2.544  0.00  0.00    -0.351 N 
ATOM     13  H   UNL     1       0.131  -2.522   3.498  0.00  0.00    +0.166 HD
ATOM     14  C   UNL     1       0.279  -1.616   1.616  0.00  0.00    +0.048 A 
ATOM     15  C   UNL     1       0.116  -0.236   1.711  0.00  0.00    +0.029 A 
ATOM     16  C   UNL     1       0.824  -2.003  -2.137  0.00  0.00    +0.044 C 
ENDBRANCH   1  11
BRANCH   3  17
ATOM     17  N   UNL     1       0.450  -6.514   4.488  0.00  0.00    -0.231 N 
ATOM     18  C   UNL     1       0.284  -6.621   5.821  0.00  0.00    +0.270 C 
ATOM     19  O   UNL     1       0.082  -5.629   6.489  0.00  0.00    -0.270 OA
ATOM     20  H   UNL     1       0.611  -7.307   3.954  0.00  0.00    +0.173 HD
BRANCH  18  21
ATOM     21  C   UNL     1       0.349  -7.974   6.482  0.00  0.00    +0.257 C 
ATOM     22  C   UNL     1      -0.815  -8.837   5.992  0.00  0.00    +0.062 C 
BRANCH  21  23
ATOM     23  O   UNL     1       0.260  -7.816   7.899  0.00  0.00    -0.477 OA
BRANCH  23  24
ATOM     24  C   UNL     1       0.806  -8.798   8.665  0.00  0.00    +0.157 A 
ATOM     25  C   UNL     1       1.311  -9.944   8.069  0.00  0.00    +0.048 A 
ATOM     26  C   UNL     1       1.865 -10.941   8.849  0.00  0.00    +0.004 A 
ATOM     27  C   UNL     1       1.916 -10.798  10.223  0.00  0.00    +0.003 A 
ATOM     28  C   UNL     1       1.413  -9.658  10.822  0.00  0.00    +0.042 A 
ATOM     29  C   UNL     1       0.863  -8.653  10.046  0.00  0.00    +0.165 A 
ATOM     30  F   UNL     1       0.377  -7.536  10.629  0.00  0.00    -0.202 F 
ENDBRANCH  23  24
ENDBRANCH  21  23
ENDBRANCH  18  21
ENDBRANCH   3  17
TORSDOF 5
