REMARK  Name = ZINC09128654
REMARK  3 active torsions:
REMARK  status: ('A' for Active; 'I' for Inactive)
REMARK    1  A    between atoms: C_1  and  C_2
REMARK    2  A    between atoms: N_25  and  C_28
REMARK    3  A    between atoms: C_28  and  C_29
REMARK                            x       y       z     vdW  Elec       q    Type
REMARK                         _______ _______ _______ _____ _____    ______ ____
ROOT
ATOM      1  C   UNL     1      -2.451  -7.083   4.214  0.00  0.00    +0.044 C 
ATOM      2  C   UNL     1      -2.104  -6.230   3.021  0.00  0.00    -0.050 A 
ATOM      3  C   UNL     1      -2.036  -6.812   1.757  0.00  0.00    +0.005 A 
ATOM      4  C   UNL     1      -1.724  -6.071   0.658  0.00  0.00    +0.026 A 
ATOM      5  C   UNL     1      -1.466  -4.696   0.795  0.00  0.00    +0.048 A 
ATOM      6  C   UNL     1      -1.538  -4.107   2.081  0.00  0.00    -0.001 A 
ATOM      7  C   UNL     1      -1.862  -4.901   3.192  0.00  0.00    +0.013 A 
ATOM      8  C   UNL     1      -1.282  -2.729   2.211  0.00  0.00    +0.017 A 
ATOM      9  C   UNL     1      -0.972  -2.010   1.091  0.00  0.00    -0.007 A 
ATOM     10  C   UNL     1      -0.907  -2.644  -0.153  0.00  0.00    +0.103 A 
ATOM     11  N   UNL     1      -0.586  -1.970  -1.320  0.00  0.00    -0.312 N 
ATOM     12  C   UNL     1      -1.319  -2.523  -2.467  0.00  0.00    +0.107 C 
ATOM     13  C   UNL     1      -0.773  -1.917  -3.761  0.00  0.00    +0.019 C 
ATOM     14  C   UNL     1      -0.930  -0.395  -3.714  0.00  0.00    +0.003 C 
ATOM     15  C   UNL     1      -0.197   0.150  -2.484  0.00  0.00    +0.024 C 
ATOM     16  C   UNL     1      -0.755  -0.520  -1.227  0.00  0.00    +0.099 C 
ATOM     17  C   UNL     1       0.002  -0.004   0.002  0.00  0.00    +0.146 C 
ATOM     18  C   UNL     1      -0.710  -0.533   1.250  0.00  0.00    +0.066 C 
ATOM     19  C   UNL     1       1.414  -0.516  -0.026  0.00  0.00    +0.238 C 
ATOM     20  O   UNL     1       1.606  -1.713  -0.044  0.00  0.00    -0.274 OA
ATOM     21  N   UNL     1       2.468   0.312  -0.031  0.00  0.00    -0.239 N 
ATOM     22  C   UNL     1       2.322   1.646  -0.015  0.00  0.00    +0.315 C 
ATOM     23  O   UNL     1       3.312   2.350  -0.017  0.00  0.00    -0.252 OA
ATOM     24  N   UNL     1       1.110   2.221   0.003  0.00  0.00    -0.220 N 
ATOM     25  C   UNL     1      -0.018   1.498   0.010  0.00  0.00    +0.240 C 
ATOM     26  O   UNL     1      -1.086   2.072   0.018  0.00  0.00    -0.274 OA
ATOM     27  H   UNL     1       3.362  -0.064  -0.047  0.00  0.00    +0.159 HD
ATOM     28  N   UNL     1      -1.151  -3.978  -0.336  0.00  0.00    -0.343 N 
ATOM     29  H   UNL     1      -1.101  -4.418  -1.263  0.00  0.00    +0.167 HD
ENDROOT
BRANCH  24  30
ATOM     30  C   UNL     1       1.018   3.683   0.015  0.00  0.00    +0.153 C 
BRANCH  30  31
ATOM     31  C   UNL     1       1.001   4.174   1.440  0.00  0.00    -0.030 A 
ATOM     32  C   UNL     1      -0.201   4.329   2.104  0.00  0.00    +0.005 A 
ATOM     33  C   UNL     1      -0.216   4.775   3.412  0.00  0.00    +0.000 A 
ATOM     34  C   UNL     1       0.971   5.075   4.053  0.00  0.00    +0.000 A 
ATOM     35  C   UNL     1       2.173   4.926   3.388  0.00  0.00    +0.000 A 
ATOM     36  C   UNL     1       2.188   4.475   2.081  0.00  0.00    +0.005 A 
ENDBRANCH  30  31
ENDBRANCH  24  30
TORSDOF 2
