REMARK  Name = ZINC34747915
REMARK  8 active torsions:
REMARK  status: ('A' for Active; 'I' for Inactive)
REMARK    1  A    between atoms: C_1  and  C_2
REMARK    2  A    between atoms: C_5  and  C_9
REMARK    3  A    between atoms: C_6  and  C_8
REMARK    4  A    between atoms: C_9  and  N_10
REMARK    5  A    between atoms: N_23  and  C_26
REMARK    6  A    between atoms: C_26  and  C_27
REMARK    7  A    between atoms: C_29  and  C_34
REMARK    8  A    between atoms: C_32  and  C_33
REMARK                            x       y       z     vdW  Elec       q    Type
REMARK                         _______ _______ _______ _____ _____    ______ ____
ROOT
ATOM      1  N   UNL     1      -1.068  -4.689   0.370  0.00  0.00    -0.276 N 
ATOM      2  C   UNL     1      -1.399  -4.885   1.660  0.00  0.00    +0.264 A 
ATOM      3  O   UNL     1      -0.570  -4.736   2.541  0.00  0.00    -0.267 OA
ATOM      4  C   UNL     1      -2.739  -5.270   1.980  0.00  0.00    +0.076 A 
ATOM      5  C   UNL     1      -3.312  -5.535   3.310  0.00  0.00    -0.023 A 
ATOM      6  C   UNL     1      -4.607  -5.886   3.354  0.00  0.00    -0.004 A 
ATOM      7  S   UNL     1      -5.142  -5.885   1.658  0.00  0.00    -0.073 S 
ATOM      8  C   UNL     1      -3.613  -5.414   0.894  0.00  0.00    +0.117 A 
ATOM      9  N   UNL     1      -3.223  -5.206  -0.359  0.00  0.00    -0.208 NA
ATOM     10  C   UNL     1      -1.985  -4.846  -0.627  0.00  0.00    +0.202 A 
ATOM     11  N   UNL     1      -1.610  -4.631  -1.931  0.00  0.00    -0.304 N 
ATOM     12  C   UNL     1      -1.997  -5.572  -2.993  0.00  0.00    +0.089 C 
ATOM     13  C   UNL     1      -2.624  -4.776  -4.142  0.00  0.00    -0.059 C 
ATOM     14  N   UNL     1      -1.695  -3.724  -4.573  0.00  0.00    +0.384 N 
ATOM     15  C   UNL     1      -1.495  -2.758  -3.485  0.00  0.00    -0.059 C 
ATOM     16  C   UNL     1      -0.816  -3.451  -2.305  0.00  0.00    +0.089 C 
ATOM     17  C   UNL     1      -5.081  -6.136   4.761  0.00  0.00    +0.043 C 
ATOM     18  C   UNL     1      -3.785  -6.311   5.581  0.00  0.00    +0.010 C 
ATOM     19  C   UNL     1      -2.773  -5.506   4.743  0.00  0.00    +0.037 C 
ATOM     20  H   UNL     1      -0.809  -4.140  -4.819  0.00  0.00    -0.081 HD
ENDROOT
BRANCH   1  21
ATOM     21  C   UNL     1       0.301  -4.293   0.031  0.00  0.00    +0.163 C 
BRANCH  21  26
ATOM     22  C   UNL     1       3.986  -8.345   1.873  0.00  0.00    +0.044 C 
ATOM     23  C   UNL     1       3.025  -7.289   1.392  0.00  0.00    -0.050 A 
ATOM     24  C   UNL     1       2.890  -6.106   2.096  0.00  0.00    +0.004 A 
ATOM     25  C   UNL     1       2.009  -5.137   1.655  0.00  0.00    +0.006 A 
ATOM     26  C   UNL     1       1.263  -5.349   0.511  0.00  0.00    -0.025 A 
ATOM     27  C   UNL     1       1.399  -6.531  -0.193  0.00  0.00    -0.045 A 
ATOM     28  C   UNL     1       2.283  -7.499   0.245  0.00  0.00    +0.007 A 
ATOM     29  C   UNL     1       0.585  -6.763  -1.440  0.00  0.00    +0.044 C 
ENDBRANCH  21  26
ENDBRANCH   1  21
BRANCH  14  30
ATOM     30  C   UNL     1      -2.249  -3.032  -5.744  0.00  0.00    -0.043 C 
BRANCH  30  31
ATOM     31  C   UNL     1      -1.243  -2.036  -6.262  0.00  0.00    -0.061 A 
ATOM     32  C   UNL     1      -1.368  -0.697  -5.940  0.00  0.00    +0.005 A 
ATOM     33  C   UNL     1      -0.446   0.216  -6.415  0.00  0.00    -0.050 A 
ATOM     34  C   UNL     1       0.602  -0.209  -7.211  0.00  0.00    +0.003 A 
ATOM     35  C   UNL     1       0.727  -1.548  -7.531  0.00  0.00    +0.004 A 
ATOM     36  C   UNL     1      -0.193  -2.462  -7.053  0.00  0.00    -0.049 A 
ATOM     37  C   UNL     1      -0.054  -3.922  -7.398  0.00  0.00    +0.044 C 
ATOM     38  C   UNL     1      -0.582   1.676  -6.065  0.00  0.00    +0.044 C 
ENDBRANCH  30  31
ENDBRANCH  14  30
TORSDOF 4
