REMARK  Name = ZINC40330570
REMARK  4 active torsions:
REMARK  status: ('A' for Active; 'I' for Inactive)
REMARK    1  A    between atoms: C_1  and  C_2
REMARK    2  A    between atoms: C_6  and  C_18
REMARK    3  A    between atoms: C_10  and  C_12
REMARK    4  A    between atoms: C_13  and  N_17
REMARK                            x       y       z     vdW  Elec       q    Type
REMARK                         _______ _______ _______ _____ _____    ______ ____
ROOT
ATOM      1  C   UNL     1      -1.173   0.280   0.344  0.00  0.00    +0.028 C 
ATOM      2  C   UNL     1      -0.234  -0.836  -0.117  0.00  0.00    +0.073 C 
ATOM      3  C   UNL     1      -1.055  -1.992  -0.695  0.00  0.00    +0.023 C 
ATOM      4  C   UNL     1      -1.904  -2.615   0.416  0.00  0.00    +0.016 C 
ATOM      5  C   UNL     1      -0.988  -3.171   1.509  0.00  0.00    +0.092 C 
ATOM      6  C   UNL     1      -0.166  -2.028   2.111  0.00  0.00    +0.121 C 
ATOM      7  N   UNL     1       0.544  -1.330   1.027  0.00  0.00    -0.294 N 
ATOM      8  C   UNL     1       1.879  -1.149   1.080  0.00  0.00    +0.255 C 
ATOM      9  O   UNL     1       2.466  -0.665   0.129  0.00  0.00    -0.269 OA
ENDROOT
BRANCH   8  10
ATOM     10  C   UNL     1       2.598  -1.521   2.240  0.00  0.00    +0.095 A 
ATOM     11  C   UNL     1       3.860  -2.107   2.342  0.00  0.00    +0.044 A 
ATOM     12  C   UNL     1       4.296  -2.353   3.630  0.00  0.00    +0.031 A 
ATOM     13  C   UNL     1       3.497  -2.022   4.670  0.00  0.00    +0.048 A 
ATOM     14  S   UNL     1       2.131  -1.358   3.953  0.00  0.00    -0.090 S 
BRANCH  11  15
ATOM     15  N   UNL     1       4.627  -2.421   1.224  0.00  0.00    -0.357 N 
ATOM     16  H   UNL     1       4.287  -2.233   0.335  0.00  0.00    +0.142 HD
ATOM     17  H   UNL     1       5.501  -2.828   1.334  0.00  0.00    +0.142 HD
ENDBRANCH  11  15
ENDBRANCH   8  10
BRANCH   5  18
ATOM     18  C   UNL     1      -1.823  -3.813   2.586  0.00  0.00    +0.215 C 
ATOM     19  O   UNL     1      -3.032  -3.825   2.490  0.00  0.00    -0.276 OA
ATOM     20  N   UNL     1      -1.227  -4.375   3.656  0.00  0.00    -0.329 N 
ATOM     21  H   UNL     1      -0.260  -4.365   3.733  0.00  0.00    +0.145 HD
ATOM     22  H   UNL     1      -1.764  -4.788   4.350  0.00  0.00    +0.145 HD
ENDBRANCH   5  18
TORSDOF 3
