REMARK  Name = ZINC39678585
REMARK  8 active torsions:
REMARK  status: ('A' for Active; 'I' for Inactive)
REMARK    1  A    between atoms: C_1  and  C_2
REMARK    2  A    between atoms: C_3  and  C_13
REMARK    3  A    between atoms: C_4  and  C_7
REMARK    4  A    between atoms: C_17  and  C_26
REMARK    5  A    between atoms: N_28  and  C_29
REMARK    6  A    between atoms: C_29  and  C_30
REMARK    7  A    between atoms: C_34  and  O_36
REMARK    8  A    between atoms: O_36  and  C_37
REMARK                            x       y       z     vdW  Elec       q    Type
REMARK                         _______ _______ _______ _____ _____    ______ ____
ROOT
ATOM      1  C   UNL     1      -2.446  -0.423   0.250  0.00  0.00    +0.252 C 
ATOM      2  O   UNL     1      -3.139  -0.352  -0.748  0.00  0.00    -0.270 OA
ATOM      3  N   UNL     1      -2.969  -0.126   1.456  0.00  0.00    -0.296 N 
ATOM      4  C   UNL     1      -2.267  -0.060   2.759  0.00  0.00    +0.121 C 
ATOM      5  C   UNL     1      -2.891   1.157   3.478  0.00  0.00    +0.100 C 
ATOM      6  C   UNL     1      -4.276   1.326   2.831  0.00  0.00    -0.004 C 
ATOM      7  C   UNL     1      -4.376   0.214   1.778  0.00  0.00    +0.115 C 
ATOM      8  C   UNL     1      -5.372   1.162   3.880  0.00  0.00    -0.010 C 
ATOM      9  C   UNL     1      -6.737   1.392   3.225  0.00  0.00    -0.082 C 
ATOM     10  N   UNL     1      -6.784   2.741   2.646  0.00  0.00    +0.379 N 
ATOM     11  C   UNL     1      -5.788   2.860   1.575  0.00  0.00    -0.082 C 
ATOM     12  C   UNL     1      -4.383   2.692   2.160  0.00  0.00    -0.010 C 
ATOM     13  H   UNL     1      -7.704   2.912   2.269  0.00  0.00    -0.086 HD
ATOM     14  H   UNL     1      -6.586   3.421   3.365  0.00  0.00    -0.086 HD
ENDROOT
BRANCH   1  17
ATOM     15  C   UNL     1      -0.035   1.463  -0.382  0.00  0.00    +0.090 C 
ATOM     16  C   UNL     1       0.027  -0.022  -0.135  0.00  0.00    +0.147 A 
ATOM     17  C   UNL     1      -1.036  -0.832   0.139  0.00  0.00    +0.106 A 
ATOM     18  C   UNL     1      -0.501  -2.192   0.303  0.00  0.00    +0.126 A 
ATOM     19  N   UNL     1       0.793  -2.117   0.125  0.00  0.00    -0.077 NA
ATOM     20  O   UNL     1       1.132  -0.773  -0.154  0.00  0.00    -0.359 OA
BRANCH  18  21
ATOM     21  C   UNL     1      -1.280  -3.416   0.613  0.00  0.00    +0.004 A 
ATOM     22  C   UNL     1      -2.396  -3.343   1.445  0.00  0.00    +0.010 A 
ATOM     23  C   UNL     1      -3.118  -4.485   1.729  0.00  0.00    +0.001 A 
ATOM     24  C   UNL     1      -2.735  -5.700   1.189  0.00  0.00    +0.000 A 
ATOM     25  C   UNL     1      -1.629  -5.778   0.363  0.00  0.00    +0.001 A 
ATOM     26  C   UNL     1      -0.903  -4.642   0.067  0.00  0.00    +0.010 A 
ENDBRANCH  18  21
ENDBRANCH   1  17
BRANCH   5  27
ATOM     27  C   UNL     1      -2.050   2.387   3.252  0.00  0.00    +0.218 C 
ATOM     28  O   UNL     1      -1.353   2.473   2.264  0.00  0.00    -0.275 OA
ATOM     29  N   UNL     1      -2.074   3.393   4.149  0.00  0.00    -0.311 N 
ATOM     30  H   UNL     1      -2.632   3.325   4.940  0.00  0.00    +0.149 HD
BRANCH  29  31
ATOM     31  C   UNL     1      -1.257   4.589   3.930  0.00  0.00    +0.139 C 
BRANCH  31  32
ATOM     32  C   UNL     1      -1.462   5.554   5.069  0.00  0.00    -0.027 A 
ATOM     33  C   UNL     1      -2.466   6.502   4.999  0.00  0.00    +0.005 A 
ATOM     34  C   UNL     1      -2.658   7.389   6.042  0.00  0.00    +0.004 A 
ATOM     35  C   UNL     1      -1.846   7.329   7.159  0.00  0.00    +0.046 A 
ATOM     36  C   UNL     1      -0.838   6.379   7.232  0.00  0.00    +0.127 A 
ATOM     37  C   UNL     1      -0.652   5.486   6.186  0.00  0.00    +0.051 A 
BRANCH  36  38
ATOM     38  O   UNL     1      -0.038   6.318   8.329  0.00  0.00    -0.434 OA
BRANCH  38  39
ATOM     39  C   UNL     1      -0.291   7.264   9.369  0.00  0.00    +0.541 C 
ATOM     40  F   UNL     1      -0.142   8.561   8.867  0.00  0.00    -0.166 F 
ATOM     41  F   UNL     1      -1.595   7.096   9.846  0.00  0.00    -0.166 F 
ENDBRANCH  38  39
ENDBRANCH  36  38
ENDBRANCH  31  32
ENDBRANCH  29  31
ENDBRANCH   5  27
TORSDOF 7
