REMARK  Name = ZINC49148636
REMARK  8 active torsions:
REMARK  status: ('A' for Active; 'I' for Inactive)
REMARK    1  A    between atoms: C_4  and  S_11
REMARK    2  A    between atoms: C_5  and  C_7
REMARK    3  A    between atoms: C_8  and  C_9
REMARK    4  A    between atoms: C_9  and  N_10
REMARK    5  A    between atoms: S_11  and  N_14
REMARK    6  A    between atoms: N_14  and  C_15
REMARK    7  A    between atoms: C_15  and  C_16
REMARK    8  A    between atoms: C_16  and  C_17
REMARK                            x       y       z     vdW  Elec       q    Type
REMARK                         _______ _______ _______ _____ _____    ______ ____
ROOT
ATOM      1  C   UNL     1      -0.127   0.725  -0.672  0.00  0.00    +0.001 A 
ATOM      2  C   UNL     1       0.322  -0.338  -1.435  0.00  0.00    +0.002 A 
ATOM      3  C   UNL     1       1.601  -0.834  -1.258  0.00  0.00    +0.030 A 
ATOM      4  C   UNL     1       2.439  -0.270  -0.318  0.00  0.00    +0.121 A 
ATOM      5  C   UNL     1       1.993   0.803   0.455  0.00  0.00    +0.051 A 
ATOM      6  C   UNL     1       0.701   1.298   0.271  0.00  0.00    +0.019 A 
ENDROOT
BRANCH   4   7
ATOM      7  S   UNL     1       4.067  -0.903  -0.094  0.00  0.00    +0.060 S 
ATOM      8  O   UNL     1       4.202  -2.002  -0.985  0.00  0.00    -0.153 OA
ATOM      9  O   UNL     1       4.945   0.214  -0.125  0.00  0.00    -0.153 OA
BRANCH   7  10
ATOM     10  N   UNL     1       4.145  -1.524   1.439  0.00  0.00    -0.190 NA
ATOM     11  H   UNL     1       4.749  -1.134   2.090  0.00  0.00    +0.148 HD
BRANCH  10  12
ATOM     12  C   UNL     1       3.300  -2.662   1.812  0.00  0.00    +0.113 C 
BRANCH  12  13
ATOM     13  C   UNL     1       3.831  -3.289   3.103  0.00  0.00    +0.091 C 
BRANCH  13  14
ATOM     14  C   UNL     1       2.963  -4.459   3.486  0.00  0.00    +0.106 A 
ATOM     15  C   UNL     1       3.150  -5.736   3.106  0.00  0.00    +0.044 A 
ATOM     16  C   UNL     1       2.110  -6.494   3.691  0.00  0.00    +0.041 A 
ATOM     17  C   UNL     1       1.349  -5.636   4.394  0.00  0.00    +0.195 A 
ATOM     18  O   UNL     1       1.874  -4.405   4.271  0.00  0.00    -0.468 OA
ENDBRANCH  13  14
ENDBRANCH  12  13
ENDBRANCH  10  12
ENDBRANCH   7  10
ENDBRANCH   4   7
BRANCH   5  19
ATOM     19  C   UNL     1       2.857   1.393   1.432  0.00  0.00    -0.066 C 
ATOM     20  C   UNL     1       3.566   1.876   2.234  0.00  0.00    -0.117 C 
BRANCH  20  21
ATOM     21  C   UNL     1       4.454   2.483   3.239  0.00  0.00    +0.005 C 
BRANCH  21  22
ATOM     22  N   UNL     1       3.753   3.584   3.911  0.00  0.00    +0.385 N 
ATOM     23  H   UNL     1       3.491   4.281   3.230  0.00  0.00    -0.089 HD
ATOM     24  H   UNL     1       2.925   3.229   4.365  0.00  0.00    -0.089 HD
ATOM     25  H   UNL     1       4.362   4.000   4.600  0.00  0.00    -0.089 HD
ENDBRANCH  21  22
ENDBRANCH  20  21
ENDBRANCH   5  19
TORSDOF 8
