REMARK  Name = ZINC01269339
REMARK  5 active torsions:
REMARK  status: ('A' for Active; 'I' for Inactive)
REMARK    1  A    between atoms: C_1  and  C_2
REMARK    2  A    between atoms: C_11  and  O_13
REMARK    3  A    between atoms: O_13  and  C_14
REMARK    4  A    between atoms: C_14  and  C_15
REMARK    5  A    between atoms: C_17  and  N_53
REMARK                            x       y       z     vdW  Elec       q    Type
REMARK                         _______ _______ _______ _____ _____    ______ ____
ROOT
ATOM      1  C   UNL     1      -6.289   2.142   0.169  0.00  0.00    +0.054 C 
ATOM      2  C   UNL     1      -7.149   1.886  -0.795  0.00  0.00    +0.096 C 
ATOM      3  C   UNL     1      -7.080   0.747  -1.793  0.00  0.00    +0.034 C 
ATOM      4  C   UNL     1      -8.313   0.952  -2.643  0.00  0.00    -0.009 A 
ATOM      5  C   UNL     1      -8.832   0.266  -3.719  0.00  0.00    +0.021 A 
ATOM      6  C   UNL     1     -10.007   0.696  -4.311  0.00  0.00    +0.019 A 
ATOM      7  C   UNL     1     -10.654   1.815  -3.818  0.00  0.00    +0.034 A 
ATOM      8  C   UNL     1     -10.135   2.504  -2.740  0.00  0.00    +0.061 A 
ATOM      9  C   UNL     1      -8.952   2.076  -2.139  0.00  0.00    +0.144 A 
ATOM     10  O   UNL     1      -8.271   2.585  -1.084  0.00  0.00    -0.460 OA
ATOM     11 BR   UNL     1     -11.031   4.032  -2.078  0.00  0.00    -0.046 Br
ATOM     12 BR   UNL     1     -10.725  -0.241  -5.788  0.00  0.00    -0.050 Br
ENDROOT
BRANCH   3  18
ATOM     13  C   UNL     1      -6.796  -1.647  -2.020  0.00  0.00    -0.049 C 
ATOM     14  C   UNL     1      -6.807  -2.970  -1.249  0.00  0.00    +0.141 C 
ATOM     15  O   UNL     1      -8.089  -3.150  -0.640  0.00  0.00    -0.383 OA
ATOM     16  C   UNL     1      -8.451  -2.098   0.260  0.00  0.00    +0.141 C 
ATOM     17  C   UNL     1      -8.456  -0.767  -0.496  0.00  0.00    -0.049 C 
ATOM     18  N   UNL     1      -7.117  -0.550  -1.084  0.00  0.00    +0.392 N 
ATOM     19  H   UNL     1      -6.419  -0.539  -0.331  0.00  0.00    -0.080 HD
ENDBRANCH   3  18
BRANCH   1  20
ATOM     20  C   UNL     1      -5.024   1.330   0.285  0.00  0.00    +0.260 C 
BRANCH  20  21
ATOM     21  O   UNL     1      -3.919   2.203   0.526  0.00  0.00    -0.488 OA
BRANCH  21  32
ATOM     22  C   UNL     1       1.291  -1.665   0.956  0.00  0.00    +0.045 C 
ATOM     23  C   UNL     1       1.111  -0.172   1.061  0.00  0.00    -0.033 A 
ATOM     24  C   UNL     1       2.171   0.644   1.290  0.00  0.00    +0.096 A 
ATOM     25  C   UNL     1       1.976   2.038   1.385  0.00  0.00    +0.337 A 
ATOM     26  O   UNL     1       2.937   2.759   1.590  0.00  0.00    -0.245 OA
ATOM     27  O   UNL     1       0.760   2.590   1.254  0.00  0.00    -0.422 OA
ATOM     28  C   UNL     1      -0.336   1.835   1.024  0.00  0.00    +0.143 A 
ATOM     29  C   UNL     1      -0.213   0.437   0.918  0.00  0.00    +0.021 A 
ATOM     30  C   UNL     1      -1.347  -0.349   0.681  0.00  0.00    +0.015 A 
ATOM     31  C   UNL     1      -2.569   0.244   0.553  0.00  0.00    +0.046 A 
ATOM     32  C   UNL     1      -2.696   1.628   0.656  0.00  0.00    +0.124 A 
ATOM     33  C   UNL     1      -1.585   2.421   0.896  0.00  0.00    +0.092 A 
ENDBRANCH  21  32
ENDBRANCH  20  21
ENDBRANCH   1  20
TORSDOF 4
