REMARK  Name = ZINC67292683
REMARK  6 active torsions:
REMARK  status: ('A' for Active; 'I' for Inactive)
REMARK    1  A    between atoms: C_1  and  O_2
REMARK    2  A    between atoms: O_2  and  C_3
REMARK    3  A    between atoms: N_11  and  C_12
REMARK    4  A    between atoms: C_16  and  O_18
REMARK    5  A    between atoms: O_18  and  C_19
REMARK    6  A    between atoms: C_23  and  C_25
REMARK                            x       y       z     vdW  Elec       q    Type
REMARK                         _______ _______ _______ _____ _____    ______ ____
ROOT
ATOM      1  C   UNL     1       0.522  -0.639  -1.104  0.00  0.00    +0.163 A 
ATOM      2  C   UNL     1       1.075   0.134  -2.111  0.00  0.00    +0.049 A 
ATOM      3  C   UNL     1       1.721  -0.460  -3.184  0.00  0.00    +0.004 A 
ATOM      4  C   UNL     1       1.821  -1.831  -3.266  0.00  0.00    +0.012 A 
ATOM      5  C   UNL     1       1.265  -2.629  -2.259  0.00  0.00    +0.022 A 
ATOM      6  C   UNL     1       0.618  -2.026  -1.165  0.00  0.00    +0.179 A 
ATOM      7  O   UNL     1       0.092  -2.798  -0.182  0.00  0.00    -0.435 OA
ATOM      8  C   UNL     1      -0.297  -4.052  -0.525  0.00  0.00    +0.212 A 
ATOM      9  N   UNL     1      -1.411  -4.569  -0.053  0.00  0.00    -0.325 N 
ATOM     10  C   UNL     1       0.568  -4.818  -1.445  0.00  0.00    +0.097 A 
ATOM     11  C   UNL     1       1.352  -4.090  -2.326  0.00  0.00    +0.030 A 
ATOM     12  H   UNL     1      -1.720  -5.430  -0.375  0.00  0.00    +0.169 HD
ENDROOT
BRANCH   9  13
ATOM     13  C   UNL     1      -2.132  -3.893   0.891  0.00  0.00    +0.045 A 
ATOM     14  C   UNL     1      -1.483  -3.299   1.978  0.00  0.00    +0.026 A 
ATOM     15  C   UNL     1      -2.215  -2.618   2.928  0.00  0.00    +0.006 A 
ATOM     16  C   UNL     1      -3.589  -2.520   2.810  0.00  0.00    +0.046 A 
ATOM     17  C   UNL     1      -4.243  -3.107   1.735  0.00  0.00    +0.132 A 
ATOM     18  C   UNL     1      -3.519  -3.788   0.771  0.00  0.00    +0.071 A 
BRANCH  17  19
ATOM     19  O   UNL     1      -5.594  -3.008   1.625  0.00  0.00    -0.406 OA
BRANCH  19  20
ATOM     20  C   UNL     1      -6.277  -2.286   2.652  0.00  0.00    +0.575 C 
ATOM     21  F   UNL     1      -5.806  -0.970   2.690  0.00  0.00    -0.133 F 
ATOM     22  F   UNL     1      -7.650  -2.283   2.385  0.00  0.00    -0.133 F 
ATOM     23  F   UNL     1      -6.044  -2.900   3.888  0.00  0.00    -0.133 F 
ENDBRANCH  19  20
ENDBRANCH  17  19
ENDBRANCH   9  13
BRANCH  10  24
ATOM     24  C   UNL     1       0.588  -6.291  -1.433  0.00  0.00    +0.247 C 
ATOM     25  O   UNL     1      -0.174  -6.904  -0.710  0.00  0.00    -0.270 OA
ATOM     26  N   UNL     1       1.450  -6.959  -2.224  0.00  0.00    -0.325 N 
ATOM     27  H   UNL     1       2.108  -6.472  -2.746  0.00  0.00    +0.145 HD
ATOM     28  H   UNL     1       1.414  -7.927  -2.272  0.00  0.00    +0.145 HD
ENDBRANCH  10  24
BRANCH   1  30
ATOM     29  C   UNL     1      -0.168   1.383  -0.060  0.00  0.00    +0.277 C 
ATOM     30  O   UNL     1      -0.108  -0.045  -0.056  0.00  0.00    -0.491 OA
ENDBRANCH   1  30
TORSDOF 5
