REMARK  Name = ZINC13567887
REMARK  9 active torsions:
REMARK  status: ('A' for Active; 'I' for Inactive)
REMARK    1  A    between atoms: C_1  and  O_2
REMARK    2  A    between atoms: O_2  and  C_3
REMARK    3  A    between atoms: C_5  and  C_13
REMARK    4  A    between atoms: C_6  and  O_11
REMARK    5  A    between atoms: C_8  and  O_9
REMARK    6  A    between atoms: O_9  and  C_10
REMARK    7  A    between atoms: O_11  and  C_12
REMARK    8  A    between atoms: N_18  and  C_26
REMARK    9  A    between atoms: C_31  and  C_32
REMARK                            x       y       z     vdW  Elec       q    Type
REMARK                         _______ _______ _______ _____ _____    ______ ____
ROOT
ATOM      1  C   UNL     1      -6.049  -0.042   1.871  0.00  0.00    +0.066 C 
ATOM      2  C   UNL     1      -6.946   1.197   1.945  0.00  0.00    +0.109 C 
ATOM      3  C   UNL     1      -8.327   0.772   2.377  0.00  0.00    +0.225 C 
ATOM      4  O   UNL     1      -9.302   1.358   1.956  0.00  0.00    -0.275 OA
ATOM      5  N   UNL     1      -8.477  -0.259   3.229  0.00  0.00    -0.243 N 
ATOM      6  C   UNL     1      -7.383  -0.882   3.778  0.00  0.00    +0.026 C 
ATOM      7  C   UNL     1      -6.185  -0.826   3.157  0.00  0.00    +0.021 C 
ATOM      8  C   UNL     1      -5.056  -1.478   3.678  0.00  0.00    +0.161 C 
ATOM      9  O   UNL     1      -3.996  -1.402   3.090  0.00  0.00    -0.292 OA
ATOM     10  C   UNL     1      -5.140  -2.271   4.955  0.00  0.00    +0.080 C 
ATOM     11  C   UNL     1      -6.565  -2.810   5.116  0.00  0.00    +0.014 C 
ATOM     12  C   UNL     1      -7.543  -1.627   5.079  0.00  0.00    +0.052 C 
ENDROOT
BRANCH   1  15
ATOM     13  C   UNL     1      -2.686   1.571   2.473  0.00  0.00    +0.162 A 
ATOM     14  C   UNL     1      -4.005   1.183   2.637  0.00  0.00    +0.057 A 
ATOM     15  C   UNL     1      -4.614   0.383   1.688  0.00  0.00    +0.006 A 
ATOM     16  C   UNL     1      -3.907  -0.030   0.569  0.00  0.00    +0.128 A 
ATOM     17  C   UNL     1      -2.587   0.360   0.399  0.00  0.00    +0.095 A 
ATOM     18  C   UNL     1      -1.976   1.163   1.348  0.00  0.00    +0.165 A 
BRANCH  13  20
ATOM     19  C   UNL     1      -2.874   2.735   4.539  0.00  0.00    +0.277 C 
ATOM     20  O   UNL     1      -2.085   2.354   3.410  0.00  0.00    -0.491 OA
ENDBRANCH  13  20
BRANCH  18  21
ATOM     21  O   UNL     1      -0.682   1.547   1.184  0.00  0.00    -0.491 OA
ATOM     22  C   UNL     1      -0.013   1.086   0.008  0.00  0.00    +0.277 C 
ENDBRANCH  18  21
BRANCH  16  23
ATOM     23  O   UNL     1      -4.508  -0.817  -0.363  0.00  0.00    -0.495 OA
ATOM     24  C   UNL     1      -3.721  -1.204  -1.491  0.00  0.00    +0.277 C 
ENDBRANCH  16  23
ENDBRANCH   1  15
BRANCH   5  25
ATOM     25  C   UNL     1      -9.764  -0.701   3.560  0.00  0.00    +0.053 A 
ATOM     26  C   UNL     1     -10.379  -1.685   2.797  0.00  0.00    +0.024 A 
ATOM     27  C   UNL     1     -11.646  -2.122   3.128  0.00  0.00    +0.002 A 
ATOM     28  C   UNL     1     -12.307  -1.574   4.213  0.00  0.00    +0.001 A 
ATOM     29  C   UNL     1     -11.699  -0.591   4.972  0.00  0.00    +0.014 A 
ATOM     30  C   UNL     1     -10.430  -0.153   4.648  0.00  0.00    +0.076 A 
BRANCH  30  31
ATOM     31  C   UNL     1      -9.768   0.919   5.475  0.00  0.00    +0.419 C 
ATOM     32  F   UNL     1     -10.629   1.310   6.506  0.00  0.00    -0.166 F 
ATOM     33  F   UNL     1      -8.581   0.421   6.022  0.00  0.00    -0.166 F 
ATOM     34  F   UNL     1      -9.481   2.023   4.664  0.00  0.00    -0.166 F 
ENDBRANCH  30  31
ENDBRANCH   5  25
TORSDOF 6
