REMARK  Name = ZINC63280863
REMARK  7 active torsions:
REMARK  status: ('A' for Active; 'I' for Inactive)
REMARK    1  A    between atoms: C_1  and  S_2
REMARK    2  A    between atoms: S_2  and  N_5
REMARK    3  A    between atoms: N_5  and  C_6
REMARK    4  A    between atoms: C_12  and  C_16
REMARK    5  A    between atoms: N_18  and  C_19
REMARK    6  A    between atoms: C_19  and  C_20
REMARK    7  A    between atoms: C_20  and  C_21
REMARK                            x       y       z     vdW  Elec       q    Type
REMARK                         _______ _______ _______ _____ _____    ______ ____
ROOT
ATOM      1  C   UNL     1       2.207  -0.061  -1.563  0.00  0.00    +0.224 C 
ATOM      2  N   UNL     1       2.875  -0.989  -2.486  0.00  0.00    -0.318 N 
ATOM      3  C   UNL     1       3.403  -0.465  -3.657  0.00  0.00    +0.043 A 
ATOM      4  C   UNL     1       4.074  -1.203  -4.653  0.00  0.00    +0.025 A 
ATOM      5  C   UNL     1       4.565  -0.600  -5.781  0.00  0.00    +0.015 A 
ATOM      6  C   UNL     1       4.416   0.775  -5.983  0.00  0.00    +0.038 A 
ATOM      7  C   UNL     1       3.753   1.530  -5.008  0.00  0.00    +0.029 A 
ATOM      8  C   UNL     1       3.266   0.912  -3.884  0.00  0.00    +0.033 A 
ATOM      9  S   UNL     1       2.391   1.530  -2.463  0.00  0.00    -0.084 S 
ATOM     10  H   UNL     1       2.944  -1.935  -2.284  0.00  0.00    +0.148 HD
ENDROOT
BRANCH   6  11
ATOM     11  C   UNL     1       4.948   1.418  -7.200  0.00  0.00    +0.244 C 
ATOM     12  O   UNL     1       4.812   2.615  -7.364  0.00  0.00    -0.270 OA
ATOM     13  N   UNL     1       5.585   0.679  -8.130  0.00  0.00    -0.311 N 
ATOM     14  H   UNL     1       5.694  -0.276  -7.999  0.00  0.00    +0.149 HD
BRANCH  13  15
ATOM     15  C   UNL     1       6.113   1.317  -9.338  0.00  0.00    +0.109 C 
BRANCH  15  16
ATOM     16  C   UNL     1       6.784   0.263 -10.221  0.00  0.00    +0.052 C 
BRANCH  16  17
ATOM     17  C   UNL     1       7.327   0.920 -11.463  0.00  0.00    -0.040 C 
ATOM     18  C   UNL     1       8.589   1.362 -11.664  0.00  0.00    -0.001 A 
ATOM     19  C   UNL     1       9.789   1.363 -10.818  0.00  0.00    +0.010 A 
ATOM     20  C   UNL     1      10.935   1.889 -11.306  0.00  0.00    +0.001 A 
ATOM     21  C   UNL     1      11.007   2.430 -12.597  0.00  0.00    +0.002 A 
ATOM     22  C   UNL     1       9.948   2.465 -13.433  0.00  0.00    +0.026 A 
ATOM     23  C   UNL     1       8.691   1.939 -13.023  0.00  0.00    +0.043 A 
ATOM     24  N   UNL     1       7.537   1.858 -13.639  0.00  0.00    -0.380 N 
ATOM     25  C   UNL     1       6.572   1.213 -12.741  0.00  0.00    +0.144 C 
ATOM     26  H   UNL     1       7.352   2.168 -14.539  0.00  0.00    +0.160 HD
ENDBRANCH  16  17
ENDBRANCH  15  16
ENDBRANCH  13  15
ENDBRANCH   6  11
BRANCH   1  27
ATOM     27  N   UNL     1       0.795  -0.411  -1.394  0.00  0.00    -0.165 NA
ATOM     28  H   UNL     1       0.324  -0.881  -2.099  0.00  0.00    +0.151 HD
BRANCH  27  30
ATOM     29  C   UNL     1      -0.022   1.810   0.012  0.00  0.00    +0.214 C 
ATOM     30  S   UNL     1       0.002  -0.004   0.002  0.00  0.00    +0.029 S 
ATOM     31  O   UNL     1       0.835  -0.488   1.046  0.00  0.00    -0.158 OA
ATOM     32  O   UNL     1      -1.315  -0.510  -0.168  0.00  0.00    -0.158 OA
ENDBRANCH  27  30
ENDBRANCH   1  27
TORSDOF 6
