REMARK  Name = ZINC09547255
REMARK  11 active torsions:
REMARK  status: ('A' for Active; 'I' for Inactive)
REMARK    1  A    between atoms: C_1  and  N_2
REMARK    2  A    between atoms: N_2  and  C_3
REMARK    3  A    between atoms: N_2  and  S_9
REMARK    4  A    between atoms: S_9  and  C_12
REMARK    5  A    between atoms: C_16  and  N_18
REMARK    6  A    between atoms: C_19  and  C_21
REMARK    7  A    between atoms: C_21  and  N_59
REMARK    8  A    between atoms: C_22  and  C_23
REMARK    9  A    between atoms: C_22  and  N_59
REMARK   10  A    between atoms: C_28  and  C_29
REMARK   11  A    between atoms: C_28  and  N_59
REMARK                            x       y       z     vdW  Elec       q    Type
REMARK                         _______ _______ _______ _____ _____    ______ ____
ROOT
ATOM      1  N   UNL     1       5.838   4.412   1.987  0.00  0.00    -0.287 N 
ATOM      2  C   UNL     1       6.515   4.919   3.037  0.00  0.00    +0.201 C 
ATOM      3  O   UNL     1       7.548   4.399   3.401  0.00  0.00    -0.278 OA
ATOM      4  H   UNL     1       5.051   4.867   1.652  0.00  0.00    +0.155 HD
ENDROOT
BRANCH   1   9
ATOM      5  C   UNL     1       6.422   1.817  -0.552  0.00  0.00    +0.110 A 
ATOM      6  C   UNL     1       7.133   0.886   0.183  0.00  0.00    +0.029 A 
ATOM      7  C   UNL     1       7.415   1.123   1.516  0.00  0.00    +0.004 A 
ATOM      8  C   UNL     1       6.987   2.291   2.117  0.00  0.00    +0.023 A 
ATOM      9  C   UNL     1       6.273   3.228   1.381  0.00  0.00    +0.035 A 
ATOM     10  C   UNL     1       5.996   2.989   0.041  0.00  0.00    +0.052 A 
BRANCH   5  11
ATOM     11  S   UNL     1       6.066   1.511  -2.251  0.00  0.00    +0.075 S 
ATOM     12  O   UNL     1       7.000   0.535  -2.692  0.00  0.00    -0.150 OA
ATOM     13  O   UNL     1       5.941   2.782  -2.875  0.00  0.00    -0.150 OA
BRANCH  11  15
ATOM     14  C   UNL     1       4.438  -0.643  -2.117  0.00  0.00    +0.157 C 
ATOM     15  N   UNL     1       4.572   0.801  -2.318  0.00  0.00    -0.206 N 
BRANCH  15  16
ATOM     16  C   UNL     1       3.439   1.580  -2.567  0.00  0.00    +0.051 A 
ATOM     17  C   UNL     1       2.314   1.007  -3.146  0.00  0.00    +0.025 A 
ATOM     18  C   UNL     1       1.196   1.780  -3.390  0.00  0.00    +0.002 A 
ATOM     19  C   UNL     1       1.196   3.123  -3.060  0.00  0.00    +0.000 A 
ATOM     20  C   UNL     1       2.314   3.696  -2.483  0.00  0.00    +0.002 A 
ATOM     21  C   UNL     1       3.436   2.929  -2.235  0.00  0.00    +0.025 A 
ENDBRANCH  15  16
ENDBRANCH  11  15
ENDBRANCH   5  11
ENDBRANCH   1   9
BRANCH   2  22
ATOM     22  C   UNL     1       5.987   6.132   3.758  0.00  0.00    +0.020 C 
BRANCH  22  23
ATOM     23  N   UNL     1       6.902   6.461   4.871  0.00  0.00    +0.395 N 
ATOM     24  H   UNL     1       7.056   5.618   5.436  0.00  0.00    -0.080 HD
BRANCH  23  25
ATOM     25  C   UNL     1       8.200   6.925   4.338  0.00  0.00    -0.002 C 
BRANCH  25  26
ATOM     26  C   UNL     1       8.000   8.085   3.397  0.00  0.00    +0.089 A 
ATOM     27  C   UNL     1       8.094   9.387   3.721  0.00  0.00    +0.042 A 
ATOM     28  C   UNL     1       7.834  10.123   2.543  0.00  0.00    +0.041 A 
ATOM     29  C   UNL     1       7.595   9.227   1.568  0.00  0.00    +0.195 A 
ATOM     30  O   UNL     1       7.703   7.994   2.090  0.00  0.00    -0.470 OA
ENDBRANCH  25  26
ENDBRANCH  23  25
BRANCH  23  31
ATOM     31  C   UNL     1       6.303   7.509   5.725  0.00  0.00    -0.002 C 
BRANCH  31  32
ATOM     32  C   UNL     1       7.089   7.597   7.007  0.00  0.00    +0.089 A 
ATOM     33  C   UNL     1       8.077   8.472   7.266  0.00  0.00    +0.042 A 
ATOM     34  C   UNL     1       8.531   8.201   8.577  0.00  0.00    +0.041 A 
ATOM     35  C   UNL     1       7.794   7.176   9.041  0.00  0.00    +0.195 A 
ATOM     36  O   UNL     1       6.918   6.818   8.088  0.00  0.00    -0.470 OA
ENDBRANCH  31  32
ENDBRANCH  23  31
ENDBRANCH  22  23
ENDBRANCH   2  22
TORSDOF 10
