REMARK  Name = ZINC36828084
REMARK  9 active torsions:
REMARK  status: ('A' for Active; 'I' for Inactive)
REMARK    1  A    between atoms: C_1  and  C_2
REMARK    2  A    between atoms: C_2  and  C_3
REMARK    3  A    between atoms: C_3  and  C_4
REMARK    4  A    between atoms: C_4  and  C_5
REMARK    5  A    between atoms: C_5  and  C_28
REMARK    6  A    between atoms: N_8  and  C_12
REMARK    7  A    between atoms: C_12  and  C_13
REMARK    8  A    between atoms: N_18  and  C_19
REMARK    9  A    between atoms: C_25  and  C_27
REMARK                            x       y       z     vdW  Elec       q    Type
REMARK                         _______ _______ _______ _____ _____    ______ ____
ROOT
ATOM      1  C   UNL     1       1.503  -2.548   2.473  0.00  0.00    +0.138 C 
ATOM      2  C   UNL     1       0.816  -2.070   3.736  0.00  0.00    +0.251 C 
ATOM      3  O   UNL     1      -0.315  -2.321   4.095  0.00  0.00    -0.272 OA
ATOM      4  N   UNL     1       1.723  -1.310   4.380  0.00  0.00    -0.215 N 
ATOM      5  C   UNL     1       2.876  -1.241   3.705  0.00  0.00    +0.310 C 
ATOM      6  O   UNL     1       3.845  -0.614   4.086  0.00  0.00    -0.252 OA
ATOM      7  N   UNL     1       2.844  -1.944   2.559  0.00  0.00    -0.281 N 
ATOM      8  H   UNL     1       3.563  -2.036   1.915  0.00  0.00    +0.152 HD
ENDROOT
BRANCH   1   9
ATOM      9  C   UNL     1       1.599  -4.051   2.453  0.00  0.00    -0.015 A 
ATOM     10  C   UNL     1       0.615  -4.798   1.832  0.00  0.00    +0.009 A 
ATOM     11  C   UNL     1       0.702  -6.177   1.813  0.00  0.00    +0.039 A 
ATOM     12  C   UNL     1       1.775  -6.811   2.416  0.00  0.00    +0.123 A 
ATOM     13  C   UNL     1       2.760  -6.062   3.038  0.00  0.00    +0.039 A 
ATOM     14  C   UNL     1       2.673  -4.683   3.051  0.00  0.00    +0.009 A 
ATOM     15  F   UNL     1       1.861  -8.159   2.399  0.00  0.00    -0.205 F 
ENDBRANCH   1   9
BRANCH   1  16
ATOM     16  C   UNL     1       0.763  -2.041   1.233  0.00  0.00    +0.040 C 
BRANCH  16  17
ATOM     17  C   UNL     1       0.742  -0.511   1.242  0.00  0.00    +0.003 C 
BRANCH  17  19
ATOM     18  C   UNL     1      -0.019   1.526   0.010  0.00  0.00    +0.004 C 
ATOM     19  C   UNL     1       0.002  -0.004   0.002  0.00  0.00    -0.003 C 
ENDBRANCH  17  19
ENDBRANCH  16  17
ENDBRANCH   1  16
BRANCH   4  20
ATOM     20  C   UNL     1       1.477  -0.640   5.659  0.00  0.00    +0.214 C 
BRANCH  20  21
ATOM     21  C   UNL     1       1.865  -1.558   6.790  0.00  0.00    +0.238 C 
ATOM     22  O   UNL     1       2.303  -2.663   6.550  0.00  0.00    -0.274 OA
ATOM     23  N   UNL     1       1.724  -1.152   8.067  0.00  0.00    -0.239 N 
ATOM     24  C   UNL     1       2.071  -1.973   9.078  0.00  0.00    +0.306 C 
ATOM     25  O   UNL     1       2.510  -3.081   8.837  0.00  0.00    -0.252 OA
ATOM     26  N   UNL     1       1.930  -1.567  10.355  0.00  0.00    -0.296 N 
ATOM     27  H   UNL     1       1.373  -0.268   8.259  0.00  0.00    +0.159 HD
ATOM     28  H   UNL     1       1.579  -0.683  10.547  0.00  0.00    +0.151 HD
BRANCH  26  29
ATOM     29  C   UNL     1       2.307  -2.459  11.454  0.00  0.00    +0.077 C 
ATOM     30  C   UNL     1       3.805  -2.324  11.730  0.00  0.00    +0.022 C 
ATOM     31  C   UNL     1       4.199  -3.256  12.877  0.00  0.00    +0.002 C 
ATOM     32  C   UNL     1       3.413  -2.879  14.134  0.00  0.00    +0.000 C 
ATOM     33  C   UNL     1       1.914  -3.014  13.858  0.00  0.00    +0.005 C 
ATOM     34  C   UNL     1       1.520  -2.082  12.710  0.00  0.00    +0.006 C 
ATOM     35  C   UNL     1       0.022  -2.217  12.434  0.00  0.00    +0.009 C 
ENDBRANCH  26  29
ENDBRANCH  20  21
ENDBRANCH   4  20
TORSDOF 7
