REMARK  Name = ZINC63588548
REMARK  12 active torsions:
REMARK  status: ('A' for Active; 'I' for Inactive)
REMARK    1  A    between atoms: C_1  and  C_2
REMARK    2  A    between atoms: C_2  and  C_3
REMARK    3  A    between atoms: C_7  and  N_9
REMARK    4  A    between atoms: N_11  and  C_12
REMARK    5  A    between atoms: C_12  and  C_13
REMARK    6  A    between atoms: C_13  and  C_14
REMARK    7  A    between atoms: N_23  and  C_24
REMARK    8  A    between atoms: C_24  and  C_26
REMARK    9  A    between atoms: C_29  and  O_34
REMARK   10  A    between atoms: C_30  and  O_32
REMARK   11  A    between atoms: O_32  and  C_33
REMARK   12  A    between atoms: O_34  and  C_35
REMARK                            x       y       z     vdW  Elec       q    Type
REMARK                         _______ _______ _______ _____ _____    ______ ____
ROOT
ATOM      1  N   UNL     1       3.962  -1.469  -2.829  0.00  0.00    -0.328 N 
ATOM      2  C   UNL     1       4.869  -1.907  -3.752  0.00  0.00    +0.194 C 
ATOM      3  N   UNL     1       6.201  -1.903  -3.454  0.00  0.00    -0.357 N 
ATOM      4  N   UNL     1       4.457  -2.334  -4.935  0.00  0.00    -0.143 NA
ATOM      5  H   UNL     1       6.857  -1.883  -4.168  0.00  0.00    +0.162 HD
ATOM      6  H   UNL     1       3.152  -1.978  -2.667  0.00  0.00    +0.169 HD
ENDROOT
BRANCH   1  11
ATOM      7  C   UNL     1       3.901   1.048  -0.150  0.00  0.00    -0.046 A 
ATOM      8  C   UNL     1       4.674   2.047  -0.713  0.00  0.00    +0.004 A 
ATOM      9  C   UNL     1       5.210   1.882  -1.977  0.00  0.00    +0.002 A 
ATOM     10  C   UNL     1       4.976   0.717  -2.681  0.00  0.00    +0.026 A 
ATOM     11  C   UNL     1       4.201  -0.289  -2.119  0.00  0.00    +0.042 A 
ATOM     12  C   UNL     1       3.669  -0.122  -0.847  0.00  0.00    +0.029 A 
BRANCH   7  14
ATOM     13  C   UNL     1       4.308   0.713   2.273  0.00  0.00    +0.009 C 
ATOM     14  C   UNL     1       3.319   1.232   1.227  0.00  0.00    +0.032 C 
ENDBRANCH   7  14
ENDBRANCH   1  11
BRANCH   4  15
ATOM     15  C   UNL     1       3.146  -2.383  -5.210  0.00  0.00    +0.270 C 
ATOM     16  O   UNL     1       2.338  -1.948  -4.408  0.00  0.00    -0.268 OA
BRANCH  15  17
ATOM     17  C   UNL     1       2.679  -2.963  -6.488  0.00  0.00    +0.043 A 
ATOM     18  C   UNL     1       3.592  -3.562  -7.358  0.00  0.00    +0.017 A 
ATOM     19  C   UNL     1       3.156  -4.103  -8.549  0.00  0.00    +0.050 A 
ATOM     20  C   UNL     1       1.810  -4.055  -8.885  0.00  0.00    +0.162 A 
ATOM     21  C   UNL     1       0.894  -3.459  -8.020  0.00  0.00    +0.162 A 
ATOM     22  C   UNL     1       1.325  -2.919  -6.823  0.00  0.00    +0.062 A 
BRANCH  21  23
ATOM     23  O   UNL     1      -0.424  -3.413  -8.352  0.00  0.00    -0.491 OA
ATOM     24  C   UNL     1      -1.307  -2.787  -7.418  0.00  0.00    +0.277 C 
ENDBRANCH  21  23
BRANCH  20  25
ATOM     25  O   UNL     1       1.385  -4.590 -10.059  0.00  0.00    -0.491 OA
ATOM     26  C   UNL     1       2.377  -5.184 -10.898  0.00  0.00    +0.277 C 
ENDBRANCH  20  25
ENDBRANCH  15  17
ENDBRANCH   4  15
BRANCH   3  27
ATOM     27  C   UNL     1       6.639  -1.930  -2.057  0.00  0.00    +0.120 C 
BRANCH  27  28
ATOM     28  C   UNL     1       8.163  -1.803  -1.997  0.00  0.00    +0.054 C 
BRANCH  28  29
ATOM     29  C   UNL     1       8.624  -1.954  -0.571  0.00  0.00    -0.040 C 
ATOM     30  C   UNL     1       9.004  -3.096   0.045  0.00  0.00    -0.001 A 
ATOM     31  C   UNL     1       9.096  -4.488  -0.411  0.00  0.00    +0.010 A 
ATOM     32  C   UNL     1       9.520  -5.436   0.456  0.00  0.00    +0.001 A 
ATOM     33  C   UNL     1       9.871  -5.123   1.776  0.00  0.00    +0.002 A 
ATOM     34  C   UNL     1       9.812  -3.868   2.268  0.00  0.00    +0.026 A 
ATOM     35  C   UNL     1       9.381  -2.792   1.444  0.00  0.00    +0.043 A 
ATOM     36  N   UNL     1       9.240  -1.511   1.684  0.00  0.00    -0.380 N 
ATOM     37  C   UNL     1       8.762  -0.856   0.461  0.00  0.00    +0.144 C 
ATOM     38  H   UNL     1       9.425  -1.069   2.527  0.00  0.00    +0.160 HD
ENDBRANCH  28  29
ENDBRANCH  27  28
ENDBRANCH   3  27
TORSDOF 9
