REMARK  Name = ZINC39673811
REMARK  9 active torsions:
REMARK  status: ('A' for Active; 'I' for Inactive)
REMARK    1  A    between atoms: C_1  and  C_2
REMARK    2  A    between atoms: C_2  and  C_3
REMARK    3  A    between atoms: C_3  and  C_4
REMARK    4  A    between atoms: C_4  and  C_6
REMARK    5  A    between atoms: C_4  and  N_7
REMARK    6  A    between atoms: C_8  and  C_10
REMARK    7  A    between atoms: C_21  and  C_23
REMARK    8  A    between atoms: C_26  and  O_29
REMARK    9  A    between atoms: O_29  and  C_30
REMARK                            x       y       z     vdW  Elec       q    Type
REMARK                         _______ _______ _______ _____ _____    ______ ____
ROOT
ATOM      1  C   UNL     1       1.268  -3.653  -1.919  0.00  0.00    +0.100 C 
ATOM      2  C   UNL     1       1.266  -2.931  -3.285  0.00  0.00    +0.121 C 
ATOM      3  N   UNL     1       1.408  -4.018  -4.283  0.00  0.00    -0.296 N 
ATOM      4  C   UNL     1       0.568  -5.118  -3.752  0.00  0.00    +0.115 C 
ATOM      5  C   UNL     1       0.809  -5.088  -2.230  0.00  0.00    -0.004 C 
ATOM      6  C   UNL     1      -0.485  -5.401  -1.485  0.00  0.00    -0.010 C 
ATOM      7  C   UNL     1      -0.890  -6.852  -1.762  0.00  0.00    -0.082 C 
ATOM      8  N   UNL     1       0.182  -7.754  -1.324  0.00  0.00    +0.379 N 
ATOM      9  C   UNL     1       1.397  -7.508  -2.111  0.00  0.00    -0.082 C 
ATOM     10  C   UNL     1       1.899  -6.085  -1.847  0.00  0.00    -0.010 C 
ATOM     11  C   UNL     1       2.136  -4.008  -5.417  0.00  0.00    +0.248 C 
ATOM     12  O   UNL     1       2.879  -3.075  -5.654  0.00  0.00    -0.270 OA
ATOM     13  H   UNL     1       0.377  -7.592  -0.347  0.00  0.00    -0.086 HD
ATOM     14  H   UNL     1      -0.112  -8.710  -1.452  0.00  0.00    -0.086 HD
ENDROOT
BRANCH  11  15
ATOM     15  C   UNL     1       2.031  -5.129  -6.371  0.00  0.00    +0.055 A 
ATOM     16  C   UNL     1       0.921  -5.987  -6.343  0.00  0.00    +0.020 A 
ATOM     17  C   UNL     1       0.869  -7.020  -7.255  0.00  0.00    +0.068 A 
ATOM     18  C   UNL     1       1.909  -7.178  -8.166  0.00  0.00    +0.220 A 
ATOM     19  N   UNL     1       2.944  -6.351  -8.167  0.00  0.00    -0.220 NA
ATOM     20  C   UNL     1       3.032  -5.348  -7.319  0.00  0.00    +0.127 A 
BRANCH  18  21
ATOM     21  O   UNL     1       1.863  -8.191  -9.064  0.00  0.00    -0.438 OA
BRANCH  21  22
ATOM     22  C   UNL     1       2.845  -8.259 -10.000  0.00  0.00    +0.130 A 
ATOM     23  C   UNL     1       4.088  -8.780  -9.667  0.00  0.00    +0.046 A 
ATOM     24  C   UNL     1       5.085  -8.848 -10.621  0.00  0.00    +0.004 A 
ATOM     25  C   UNL     1       4.846  -8.398 -11.906  0.00  0.00    +0.000 A 
ATOM     26  C   UNL     1       3.609  -7.880 -12.241  0.00  0.00    +0.004 A 
ATOM     27  C   UNL     1       2.606  -7.814 -11.293  0.00  0.00    +0.046 A 
ENDBRANCH  21  22
ENDBRANCH  18  21
ENDBRANCH  11  15
BRANCH   1  29
ATOM     28  N   UNL     1       0.531  -3.023   0.356  0.00  0.00    -0.312 N 
ATOM     29  C   UNL     1       0.304  -2.987  -0.972  0.00  0.00    +0.218 C 
ATOM     30  O   UNL     1      -0.676  -2.419  -1.404  0.00  0.00    -0.275 OA
ATOM     31  H   UNL     1       1.315  -3.477   0.702  0.00  0.00    +0.149 HD
BRANCH  28  32
ATOM     32  C   UNL     1      -0.406  -2.375   1.277  0.00  0.00    +0.070 C 
ATOM     33  C   UNL     1      -1.554  -3.336   1.596  0.00  0.00    +0.028 C 
BRANCH  32  34
ATOM     34  C   UNL     1       0.323  -2.005   2.570  0.00  0.00    +0.022 C 
BRANCH  34  36
ATOM     35  C   UNL     1       2.119  -0.580   3.564  0.00  0.00    +0.004 C 
ATOM     36  C   UNL     1       1.390  -0.950   2.270  0.00  0.00    -0.002 C 
ENDBRANCH  34  36
ENDBRANCH  32  34
ENDBRANCH  28  32
ENDBRANCH   1  29
TORSDOF 7
