REMARK  Name = ZINC34944684
REMARK  13 active torsions:
REMARK  status: ('A' for Active; 'I' for Inactive)
REMARK    1  A    between atoms: C_1  and  C_2
REMARK    2  A    between atoms: C_2  and  N_3
REMARK    3  A    between atoms: N_3  and  C_4
REMARK    4  A    between atoms: N_3  and  C_6
REMARK    5  A    between atoms: C_4  and  C_5
REMARK    6  A    between atoms: C_6  and  C_7
REMARK    7  A    between atoms: C_7  and  N_8
REMARK    8  A    between atoms: C_9  and  C_26
REMARK    9  A    between atoms: C_11  and  C_12
REMARK   10  A    between atoms: C_12  and  C_13
REMARK   11  A    between atoms: C_15  and  C_20
REMARK   12  A    between atoms: C_18  and  C_19
REMARK   13  A    between atoms: C_29  and  N_32
REMARK                            x       y       z     vdW  Elec       q    Type
REMARK                         _______ _______ _______ _____ _____    ______ ____
ROOT
ATOM      1  N   UNL     1      -1.520  -3.354  -1.371  0.00  0.00    -0.285 N 
ATOM      2  C   UNL     1      -1.399  -4.101  -2.629  0.00  0.00    +0.145 C 
ATOM      3  C   UNL     1      -1.892  -5.499  -2.339  0.00  0.00    +0.076 C 
ATOM      4  C   UNL     1      -2.254  -5.522  -1.035  0.00  0.00    +0.249 C 
ATOM      5  O   UNL     1      -2.751  -6.596  -0.379  0.00  0.00    -0.282 OA
ATOM      6  C   UNL     1      -2.016  -4.190  -0.441  0.00  0.00    +0.288 C 
ATOM      7  O   UNL     1      -2.237  -3.893   0.716  0.00  0.00    -0.266 OA
ENDROOT
BRANCH   2   8
ATOM      8  C   UNL     1       0.041  -4.140  -3.071  0.00  0.00    -0.022 A 
ATOM      9  C   UNL     1       1.026  -4.536  -2.185  0.00  0.00    +0.008 A 
ATOM     10  C   UNL     1       2.347  -4.572  -2.590  0.00  0.00    +0.033 A 
ATOM     11  C   UNL     1       2.683  -4.214  -3.882  0.00  0.00    +0.126 A 
ATOM     12  C   UNL     1       1.699  -3.820  -4.769  0.00  0.00    +0.033 A 
ATOM     13  C   UNL     1       0.378  -3.787  -4.365  0.00  0.00    +0.008 A 
BRANCH  11  14
ATOM     14  N   UNL     1       4.098  -4.252  -4.316  0.00  0.00    +0.056 N 
ATOM     15  O   UNL     1       4.959  -4.597  -3.540  0.00  0.00    -0.126 OA
ATOM     16  O   UNL     1       4.393  -3.939  -5.446  0.00  0.00    -0.126 OA
ENDBRANCH  11  14
ENDBRANCH   2   8
BRANCH   3  17
ATOM     17  C   UNL     1      -1.965  -6.615  -3.287  0.00  0.00    +0.195 C 
ATOM     18  O   UNL     1      -2.355  -7.705  -2.914  0.00  0.00    -0.287 OA
BRANCH  17  19
ATOM     19  C   UNL     1      -1.564  -6.415  -4.696  0.00  0.00    +0.025 A 
ATOM     20  C   UNL     1      -0.346  -6.920  -5.158  0.00  0.00    +0.015 A 
ATOM     21  C   UNL     1       0.021  -6.731  -6.473  0.00  0.00    -0.050 A 
ATOM     22  C   UNL     1      -0.814  -6.041  -7.336  0.00  0.00    +0.003 A 
ATOM     23  C   UNL     1      -2.021  -5.538  -6.885  0.00  0.00    +0.004 A 
ATOM     24  C   UNL     1      -2.404  -5.725  -5.573  0.00  0.00    -0.040 A 
ATOM     25  C   UNL     1      -3.722  -5.181  -5.086  0.00  0.00    +0.044 C 
ATOM     26  C   UNL     1       1.334  -7.275  -6.973  0.00  0.00    +0.044 C 
ENDBRANCH  17  19
ENDBRANCH   3  17
BRANCH   1  27
ATOM     27  C   UNL     1      -1.160  -1.950  -1.164  0.00  0.00    +0.090 C 
BRANCH  27  28
ATOM     28  C   UNL     1       0.306  -1.857  -0.734  0.00  0.00    -0.060 C 
BRANCH  28  29
ATOM     29  N   UNL     1       0.667  -0.449  -0.526  0.00  0.00    +0.380 N 
ATOM     30  H   UNL     1       0.459   0.079  -1.361  0.00  0.00    -0.082 HD
BRANCH  29  32
ATOM     31  C   UNL     1       0.191   1.588   0.748  0.00  0.00    -0.017 C 
ATOM     32  C   UNL     1      -0.103   0.093   0.601  0.00  0.00    -0.082 C 
ENDBRANCH  29  32
BRANCH  29  33
ATOM     33  C   UNL     1       2.103  -0.350  -0.231  0.00  0.00    -0.082 C 
ATOM     34  C   UNL     1       2.907  -0.790  -1.455  0.00  0.00    -0.017 C 
ENDBRANCH  29  33
ENDBRANCH  28  29
ENDBRANCH  27  28
ENDBRANCH   1  27
TORSDOF 9
