REMARK  Name = ZINC39360188
REMARK  11 active torsions:
REMARK  status: ('A' for Active; 'I' for Inactive)
REMARK    1  A    between atoms: C_1  and  C_2
REMARK    2  A    between atoms: C_2  and  C_3
REMARK    3  A    between atoms: C_3  and  C_4
REMARK    4  A    between atoms: C_4  and  C_18
REMARK    5  A    between atoms: N_7  and  C_11
REMARK    6  A    between atoms: C_11  and  C_12
REMARK    7  A    between atoms: N_21  and  C_24
REMARK    8  A    between atoms: C_24  and  C_25
REMARK    9  A    between atoms: C_30  and  C_31
REMARK   10  A    between atoms: C_34  and  O_37
REMARK   11  A    between atoms: O_37  and  C_38
REMARK                            x       y       z     vdW  Elec       q    Type
REMARK                         _______ _______ _______ _____ _____    ______ ____
ROOT
ATOM      1  C   UNL     1       1.726  -2.225  -2.666  0.00  0.00    +0.018 C 
ATOM      2  C   UNL     1       0.984  -1.831  -3.946  0.00  0.00    -0.013 C 
ATOM      3  C   UNL     1       1.625  -2.542  -5.140  0.00  0.00    -0.078 C 
ATOM      4  N   UNL     1       1.541  -3.995  -4.951  0.00  0.00    +0.380 N 
ATOM      5  C   UNL     1       2.310  -4.389  -3.764  0.00  0.00    -0.078 C 
ATOM      6  C   UNL     1       1.695  -3.748  -2.518  0.00  0.00    -0.013 C 
ATOM      7  H   UNL     1       0.575  -4.262  -4.828  0.00  0.00    -0.082 HD
ENDROOT
BRANCH   1   8
ATOM      8  C   UNL     1       1.041  -1.579  -1.459  0.00  0.00    +0.115 C 
ATOM      9  C   UNL     1       1.704  -2.017  -0.168  0.00  0.00    +0.247 C 
ATOM     10  O   UNL     1       2.855  -1.828   0.165  0.00  0.00    -0.273 OA
ATOM     11  N   UNL     1       0.749  -2.659   0.533  0.00  0.00    -0.222 N 
ATOM     12  C   UNL     1      -0.413  -2.688  -0.128  0.00  0.00    +0.309 C 
ATOM     13  O   UNL     1      -1.422  -3.212   0.301  0.00  0.00    -0.252 OA
ATOM     14  N   UNL     1      -0.341  -2.072  -1.322  0.00  0.00    -0.285 N 
ATOM     15  H   UNL     1      -1.058  -1.972  -1.967  0.00  0.00    +0.151 HD
BRANCH   8  16
ATOM     16  C   UNL     1       1.059  -0.055  -1.583  0.00  0.00    +0.035 C 
BRANCH  16  18
ATOM     17  C   UNL     1       0.434   2.091  -0.466  0.00  0.00    +0.004 C 
ATOM     18  C   UNL     1       0.416   0.566  -0.341  0.00  0.00    -0.001 C 
ENDBRANCH  16  18
ENDBRANCH   8  16
BRANCH  11  19
ATOM     19  C   UNL     1       0.958  -3.253   1.856  0.00  0.00    +0.149 C 
BRANCH  19  20
ATOM     20  C   UNL     1       0.649  -2.215   2.936  0.00  0.00    +0.136 C 
ATOM     21  C   UNL     1       0.898  -2.812   4.344  0.00  0.00    +0.035 C 
ATOM     22  C   UNL     1       1.166  -1.524   5.168  0.00  0.00    +0.031 C 
ATOM     23  C   UNL     1       1.887  -0.623   4.142  0.00  0.00    +0.160 C 
ATOM     24  O   UNL     1       1.553  -1.103   2.833  0.00  0.00    -0.375 OA
ENDBRANCH  19  20
ENDBRANCH  11  19
ENDBRANCH   1   8
BRANCH   4  25
ATOM     25  C   UNL     1       2.087  -4.674  -6.133  0.00  0.00    -0.063 C 
BRANCH  25  26
ATOM     26  C   UNL     1       1.190  -4.395  -7.341  0.00  0.00    +0.066 C 
ATOM     27  C   UNL     1      -0.143  -5.102  -7.191  0.00  0.00    +0.115 C 
ATOM     28  N   UNL     1      -0.225  -5.927  -8.184  0.00  0.00    -0.161 NA
ATOM     29  N   UNL     1       0.893  -5.881  -9.009  0.00  0.00    -0.153 NA
ATOM     30  C   UNL     1       1.778  -5.009  -8.597  0.00  0.00    +0.077 C 
BRANCH  30  31
ATOM     31  C   UNL     1       3.071  -4.690  -9.217  0.00  0.00    -0.001 A 
ATOM     32  C   UNL     1       3.909  -3.729  -8.640  0.00  0.00    +0.013 A 
ATOM     33  C   UNL     1       5.121  -3.435  -9.225  0.00  0.00    +0.046 A 
ATOM     34  C   UNL     1       5.511  -4.090 -10.387  0.00  0.00    +0.120 A 
ATOM     35  C   UNL     1       4.683  -5.045 -10.964  0.00  0.00    +0.046 A 
ATOM     36  C   UNL     1       3.472  -5.351 -10.384  0.00  0.00    +0.013 A 
BRANCH  34  37
ATOM     37  O   UNL     1       6.707  -3.796 -10.960  0.00  0.00    -0.495 OA
ATOM     38  C   UNL     1       7.046  -4.506 -12.153  0.00  0.00    +0.277 C 
ENDBRANCH  34  37
ENDBRANCH  30  31
ENDBRANCH  25  26
ENDBRANCH   4  25
TORSDOF 9
