REMARK  Name = ZINC19318974
REMARK  4 active torsions:
REMARK  status: ('A' for Active; 'I' for Inactive)
REMARK    1  A    between atoms: C_14  and  C_15
REMARK    2  A    between atoms: N_16  and  N_17
REMARK    3  A    between atoms: C_18  and  C_19
REMARK    4  A    between atoms: C_18  and  C_27
REMARK                            x       y       z     vdW  Elec       q    Type
REMARK                         _______ _______ _______ _____ _____    ______ ____
ROOT
ATOM      1  N   UNL     1      -2.527   5.213   0.223  0.00  0.00    -0.153 NA
ATOM      2  C   UNL     1      -2.516   3.905   0.205  0.00  0.00    +0.077 C 
ENDROOT
BRANCH   2   3
ATOM      3  C   UNL     1      -3.813   3.141   0.132  0.00  0.00    +0.026 C 
ATOM      4  C   UNL     1      -4.023   2.323   1.414  0.00  0.00    -0.059 C 
ATOM      5  N   UNL     1      -5.314   1.587   1.267  0.00  0.00    +0.397 N 
ATOM      6  C   UNL     1      -6.426   2.541   1.130  0.00  0.00    +0.011 C 
ATOM      7  N   UNL     1      -6.236   3.325  -0.101  0.00  0.00    -0.305 NA
ATOM      8  C   UNL     1      -4.994   4.111  -0.022  0.00  0.00    +0.096 C 
ATOM      9  C   UNL     1      -6.203   2.433  -1.272  0.00  0.00    +0.167 C 
ATOM     10  N   UNL     1      -5.093   1.479  -1.117  0.00  0.00    -0.305 NA
ATOM     11  C   UNL     1      -3.806   2.194  -1.076  0.00  0.00    +0.096 C 
ATOM     12  C   UNL     1      -5.274   0.681   0.107  0.00  0.00    +0.011 C 
ATOM     13  H   UNL     1      -5.484   0.974   2.165  0.00  0.00    -0.078 HD
ENDBRANCH   2   3
BRANCH   2  14
ATOM     14  C   UNL     1      -1.239   3.180   0.256  0.00  0.00    +0.000 A 
ATOM     15  C   UNL     1      -1.226   1.783   0.353  0.00  0.00    +0.011 A 
ATOM     16  C   UNL     1      -0.025   1.110   0.405  0.00  0.00    +0.022 A 
ATOM     17  C   UNL     1       1.169   1.811   0.351  0.00  0.00    +0.059 A 
ATOM     18  C   UNL     1       1.166   3.194   0.250  0.00  0.00    +0.060 A 
ATOM     19  C   UNL     1      -0.029   3.882   0.202  0.00  0.00    +0.031 A 
ATOM     20 CL   UNL     1       2.668   4.062   0.183  0.00  0.00    -0.082 Cl
ATOM     21 CL   UNL     1       2.678   0.954   0.411  0.00  0.00    -0.082 Cl
ENDBRANCH   2  14
BRANCH   1  23
ATOM     22  C   UNL     1      -3.653   7.157   0.417  0.00  0.00    +0.144 C 
ATOM     23  N   UNL     1      -3.647   5.848   0.312  0.00  0.00    -0.157 NA
BRANCH  22  37
ATOM     24  C   UNL     1      -7.348   6.891   3.883  0.00  0.00    +0.001 A 
ATOM     25  C   UNL     1      -6.149   6.212   3.680  0.00  0.00    +0.001 A 
ATOM     26  C   UNL     1      -5.332   6.504   2.631  0.00  0.00    +0.009 A 
ATOM     27  C   UNL     1      -5.701   7.511   1.724  0.00  0.00    -0.009 A 
ATOM     28  C   UNL     1      -6.957   8.230   1.938  0.00  0.00    -0.017 A 
ATOM     29  C   UNL     1      -7.760   7.878   3.044  0.00  0.00    +0.008 A 
ATOM     30  C   UNL     1      -7.351   9.239   1.058  0.00  0.00    +0.017 A 
ATOM     31  C   UNL     1      -6.542   9.572  -0.031  0.00  0.00    -0.017 A 
ATOM     32  C   UNL     1      -6.921  10.590  -0.932  0.00  0.00    +0.008 A 
ATOM     33  C   UNL     1      -6.112  10.891  -1.981  0.00  0.00    +0.001 A 
ATOM     34  C   UNL     1      -4.910  10.219  -2.194  0.00  0.00    +0.001 A 
ATOM     35  C   UNL     1      -4.490   9.228  -1.361  0.00  0.00    +0.009 A 
ATOM     36  C   UNL     1      -5.279   8.868  -0.257  0.00  0.00    -0.009 A 
ATOM     37  C   UNL     1      -4.872   7.844   0.628  0.00  0.00    +0.010 A 
ENDBRANCH  22  37
ENDBRANCH   1  23
TORSDOF 4
