REMARK  Name = ZINC08968961
REMARK  6 active torsions:
REMARK  status: ('A' for Active; 'I' for Inactive)
REMARK    1  A    between atoms: C_1  and  C_2
REMARK    2  A    between atoms: C_5  and  C_33
REMARK    3  A    between atoms: C_9  and  C_10
REMARK    4  A    between atoms: C_9  and  N_57
REMARK    5  A    between atoms: C_11  and  O_32
REMARK    6  A    between atoms: C_20  and  C_21
REMARK                            x       y       z     vdW  Elec       q    Type
REMARK                         _______ _______ _______ _____ _____    ______ ____
ROOT
ATOM      1  C   UNL     1       2.412   0.026  -0.021  0.00  0.00    +0.020 A 
ATOM      2  C   UNL     1       2.377   1.411  -0.014  0.00  0.00    +0.122 A 
ATOM      3  C   UNL     1       1.159   2.087   0.002  0.00  0.00    +0.046 A 
ATOM      4  C   UNL     1      -0.017   1.392   0.010  0.00  0.00    +0.016 A 
ATOM      5  C   UNL     1       0.002  -0.004   0.002  0.00  0.00    +0.026 A 
ATOM      6  C   UNL     1       1.226  -0.693  -0.013  0.00  0.00    +0.144 A 
ATOM      7  O   UNL     1       1.241  -2.044  -0.020  0.00  0.00    -0.422 OA
ATOM      8  C   UNL     1       0.110  -2.767  -0.012  0.00  0.00    +0.338 A 
ATOM      9  O   UNL     1       0.185  -3.983  -0.018  0.00  0.00    -0.245 OA
ATOM     10  C   UNL     1      -1.155  -2.162   0.003  0.00  0.00    +0.101 A 
ATOM     11  C   UNL     1      -1.251  -0.780   0.010  0.00  0.00    +0.006 A 
ENDROOT
BRANCH  11  12
ATOM     12  C   UNL     1      -2.563  -0.107   0.026  0.00  0.00    +0.068 A 
ATOM     13  C   UNL     1      -3.408  -0.239   1.112  0.00  0.00    +0.027 A 
ATOM     14  C   UNL     1      -4.661   0.426   1.085  0.00  0.00    +0.018 A 
ATOM     15  C   UNL     1      -5.543   0.313   2.171  0.00  0.00    +0.011 A 
ATOM     16  C   UNL     1      -6.747   0.955   2.138  0.00  0.00    +0.001 A 
ATOM     17  C   UNL     1      -7.108   1.719   1.037  0.00  0.00    +0.004 A 
ATOM     18  C   UNL     1      -6.256   1.844  -0.041  0.00  0.00    +0.047 A 
ATOM     19  C   UNL     1      -5.024   1.200  -0.031  0.00  0.00    +0.139 A 
ATOM     20  O   UNL     1      -4.192   1.323  -1.088  0.00  0.00    -0.422 OA
ATOM     21  C   UNL     1      -2.993   0.719  -1.109  0.00  0.00    +0.345 A 
ATOM     22  O   UNL     1      -2.262   0.853  -2.073  0.00  0.00    -0.245 OA
ENDBRANCH  11  12
BRANCH   2  23
ATOM     23  O   UNL     1       3.538   2.115  -0.021  0.00  0.00    -0.506 OA
ATOM     24  H   UNL     1       3.866   2.323  -0.907  0.00  0.00    +0.292 HD
ENDBRANCH   2  23
BRANCH   1  25
ATOM     25  C   UNL     1       3.735  -0.696  -0.037  0.00  0.00    -0.036 C 
BRANCH  25  33
ATOM     26  C   UNL     1       2.670  -2.929  -4.289  0.00  0.00    +0.005 C 
ATOM     27  C   UNL     1       3.612  -1.949  -3.586  0.00  0.00    -0.031 C 
ATOM     28  C   UNL     1       5.054  -2.450  -3.707  0.00  0.00    +0.003 C 
ATOM     29  C   UNL     1       5.983  -1.496  -2.950  0.00  0.00    -0.031 C 
ATOM     30  C   UNL     1       5.536  -1.409  -1.489  0.00  0.00    -0.075 C 
ATOM     31  C   UNL     1       3.234  -1.848  -2.107  0.00  0.00    -0.075 C 
ATOM     32  C   UNL     1       5.918  -0.107  -3.588  0.00  0.00    +0.005 C 
ATOM     33  N   UNL     1       4.149  -0.897  -1.441  0.00  0.00    +0.383 N 
ATOM     34  H   UNL     1       4.109   0.003  -1.933  0.00  0.00    -0.081 HD
ENDBRANCH  25  33
ENDBRANCH   1  25
TORSDOF 4
