REMARK  Name = ZINC39481020
REMARK  9 active torsions:
REMARK  status: ('A' for Active; 'I' for Inactive)
REMARK    1  A    between atoms: C_1  and  C_2
REMARK    2  A    between atoms: C_5  and  N_25
REMARK    3  A    between atoms: C_6  and  N_8
REMARK    4  A    between atoms: C_12  and  S_15
REMARK    5  A    between atoms: S_15  and  O_18
REMARK    6  A    between atoms: O_18  and  C_19
REMARK    7  A    between atoms: N_25  and  S_26
REMARK    8  A    between atoms: S_26  and  C_29
REMARK    9  A    between atoms: C_34  and  O_35
REMARK                            x       y       z     vdW  Elec       q    Type
REMARK                         _______ _______ _______ _____ _____    ______ ____
ROOT
ATOM      1  C   UNL     1       1.548   1.142   0.357  0.00  0.00    +0.044 C 
ATOM      2  C   UNL     1       1.217  -0.324   0.240  0.00  0.00    -0.049 A 
ATOM      3  C   UNL     1       0.967  -0.876  -1.002  0.00  0.00    +0.005 A 
ATOM      4  C   UNL     1       0.663  -2.220  -1.117  0.00  0.00    +0.026 A 
ATOM      5  C   UNL     1       0.609  -3.018   0.016  0.00  0.00    +0.069 A 
ATOM      6  C   UNL     1       0.862  -2.461   1.269  0.00  0.00    +0.053 A 
ATOM      7  C   UNL     1       1.171  -1.113   1.374  0.00  0.00    +0.028 A 
ENDROOT
BRANCH   6   8
ATOM      8  N   UNL     1       0.809  -3.261   2.417  0.00  0.00    -0.330 N 
ATOM      9  C   UNL     1       2.009  -3.955   2.912  0.00  0.00    +0.086 C 
ATOM     10  C   UNL     1       2.166  -3.649   4.405  0.00  0.00    -0.061 C 
ATOM     11  N   UNL     1       0.927  -4.003   5.109  0.00  0.00    +0.398 N 
ATOM     12  C   UNL     1      -0.174  -3.149   4.645  0.00  0.00    +0.133 C 
ATOM     13  C   UNL     1      -0.446  -3.426   3.167  0.00  0.00    +0.115 C 
ATOM     14  H   UNL     1       0.702  -4.969   4.926  0.00  0.00    -0.083 HD
ATOM     15  H   UNL     1       1.057  -3.873   6.101  0.00  0.00    -0.083 HD
BRANCH  12  16
ATOM     16  S   UNL     1      -1.665  -3.506   5.613  0.00  0.00    +0.109 S 
ATOM     17  O   UNL     1      -2.687  -2.569   5.301  0.00  0.00    -0.138 OA
ATOM     18  O   UNL     1      -1.934  -4.901   5.603  0.00  0.00    -0.138 OA
BRANCH  16  19
ATOM     19  O   UNL     1      -1.281  -3.195   7.053  0.00  0.00    -0.347 OA
BRANCH  19  20
ATOM     20  C   UNL     1      -1.212  -1.867   7.332  0.00  0.00    +0.156 A 
ATOM     21  C   UNL     1      -0.018  -1.181   7.158  0.00  0.00    +0.048 A 
ATOM     22  C   UNL     1       0.049   0.169   7.443  0.00  0.00    +0.004 A 
ATOM     23  C   UNL     1      -1.072   0.837   7.900  0.00  0.00    +0.000 A 
ATOM     24  C   UNL     1      -2.262   0.156   8.075  0.00  0.00    +0.004 A 
ATOM     25  C   UNL     1      -2.336  -1.193   7.786  0.00  0.00    +0.048 A 
ENDBRANCH  19  20
ENDBRANCH  16  19
ENDBRANCH  12  16
ENDBRANCH   6   8
BRANCH   5  26
ATOM     26  N   UNL     1       0.301  -4.379  -0.098  0.00  0.00    -0.214 N 
ATOM     27  H   UNL     1      -0.220  -4.818   0.593  0.00  0.00    +0.174 HD
BRANCH  26  28
ATOM     28  S   UNL     1       0.826  -5.240  -1.411  0.00  0.00    +0.076 S 
ATOM     29  O   UNL     1       2.194  -4.903  -1.597  0.00  0.00    -0.150 OA
ATOM     30  O   UNL     1       0.391  -6.579  -1.220  0.00  0.00    -0.150 OA
BRANCH  28  31
ATOM     31  C   UNL     1      -0.040  -4.625  -2.817  0.00  0.00    +0.150 A 
ATOM     32  C   UNL     1       0.653  -4.013  -3.843  0.00  0.00    +0.032 A 
ATOM     33  C   UNL     1      -0.026  -3.530  -4.946  0.00  0.00    +0.002 A 
ATOM     34  C   UNL     1      -1.401  -3.659  -5.026  0.00  0.00    +0.004 A 
ATOM     35  C   UNL     1      -2.099  -4.270  -4.003  0.00  0.00    +0.047 A 
ATOM     36  C   UNL     1      -1.419  -4.761  -2.897  0.00  0.00    +0.143 A 
BRANCH  36  37
ATOM     37  O   UNL     1      -2.102  -5.368  -1.891  0.00  0.00    -0.505 OA
ATOM     38  H   UNL     1      -2.414  -4.761  -1.206  0.00  0.00    +0.292 HD
ENDBRANCH  36  37
ENDBRANCH  28  31
ENDBRANCH  26  28
ENDBRANCH   5  26
TORSDOF 8
