REMARK  Name = ZINC40322146
REMARK  12 active torsions:
REMARK  status: ('A' for Active; 'I' for Inactive)
REMARK    1  A    between atoms: C_1  and  C_2
REMARK    2  A    between atoms: C_2  and  O_3
REMARK    3  A    between atoms: O_3  and  C_4
REMARK    4  A    between atoms: C_7  and  C_10
REMARK    5  A    between atoms: C_10  and  C_12
REMARK    6  A    between atoms: C_10  and  N_31
REMARK    7  A    between atoms: C_12  and  N_13
REMARK    8  A    between atoms: C_14  and  C_16
REMARK    9  A    between atoms: C_19  and  S_21
REMARK   10  A    between atoms: S_21  and  C_24
REMARK   11  A    between atoms: N_31  and  C_32
REMARK   12  A    between atoms: N_31  and  C_33
REMARK                            x       y       z     vdW  Elec       q    Type
REMARK                         _______ _______ _______ _____ _____    ______ ____
ROOT
ATOM      1  N   UNL     1       2.492  -6.225   0.135  0.00  0.00    -0.310 N 
ATOM      2  C   UNL     1       3.615  -6.517   0.822  0.00  0.00    +0.279 C 
ATOM      3  O   UNL     1       4.538  -7.083   0.267  0.00  0.00    -0.267 OA
ATOM      4  H   UNL     1       1.756  -5.774   0.577  0.00  0.00    +0.149 HD
ENDROOT
BRANCH   2   5
ATOM      5  C   UNL     1       3.723  -6.152   2.238  0.00  0.00    +0.192 A 
ATOM      6  C   UNL     1       4.799  -6.382   3.046  0.00  0.00    +0.056 A 
ATOM      7  C   UNL     1       4.471  -5.871   4.312  0.00  0.00    +0.070 A 
ATOM      8  C   UNL     1       3.224  -5.358   4.222  0.00  0.00    +0.246 A 
ATOM      9  O   UNL     1       2.779  -5.524   2.970  0.00  0.00    -0.433 OA
BRANCH   8  10
ATOM     10  S   UNL     1       2.333  -4.591   5.534  0.00  0.00    +0.058 S 
ATOM     11  O   UNL     1       0.954  -4.709   5.213  0.00  0.00    -0.161 OA
ATOM     12  O   UNL     1       2.879  -5.096   6.745  0.00  0.00    -0.161 OA
BRANCH  10  13
ATOM     13  C   UNL     1       2.715  -2.872   5.488  0.00  0.00    +0.097 A 
ATOM     14  C   UNL     1       3.794  -2.384   6.203  0.00  0.00    +0.029 A 
ATOM     15  C   UNL     1       4.094  -1.036   6.167  0.00  0.00    +0.022 A 
ATOM     16  C   UNL     1       3.315  -0.173   5.416  0.00  0.00    +0.041 A 
ATOM     17  C   UNL     1       2.236  -0.661   4.702  0.00  0.00    +0.022 A 
ATOM     18  C   UNL     1       1.940  -2.011   4.734  0.00  0.00    +0.029 A 
ATOM     19 CL   UNL     1       3.692   1.521   5.372  0.00  0.00    -0.084 Cl
ENDBRANCH  10  13
ENDBRANCH   8  10
ENDBRANCH   2   5
BRANCH   1  20
ATOM     20  C   UNL     1       2.384  -6.590  -1.280  0.00  0.00    +0.094 C 
BRANCH  20  21
ATOM     21  C   UNL     1       1.079  -6.034  -1.851  0.00  0.00    -0.021 C 
BRANCH  21  25
ATOM     22  C   UNL     1       1.204  -1.763  -1.795  0.00  0.00    +0.121 A 
ATOM     23  C   UNL     1       0.518  -2.451  -0.804  0.00  0.00    +0.046 A 
ATOM     24  C   UNL     1       0.479  -3.832  -0.825  0.00  0.00    +0.005 A 
ATOM     25  C   UNL     1       1.123  -4.528  -1.831  0.00  0.00    -0.059 A 
ATOM     26  C   UNL     1       1.807  -3.844  -2.820  0.00  0.00    +0.005 A 
ATOM     27  C   UNL     1       1.844  -2.463  -2.807  0.00  0.00    +0.046 A 
BRANCH  22  28
ATOM     28  O   UNL     1       1.244  -0.404  -1.777  0.00  0.00    -0.492 OA
BRANCH  28  30
ATOM     29  C   UNL     1       0.718   1.766  -0.852  0.00  0.00    +0.048 C 
ATOM     30  C   UNL     1       0.563   0.251  -0.705  0.00  0.00    +0.225 C 
ENDBRANCH  28  30
ENDBRANCH  22  28
ENDBRANCH  21  25
BRANCH  21  31
ATOM     31  N   UNL     1       0.911  -6.501  -3.234  0.00  0.00    +0.382 N 
ATOM     32  C   UNL     1       0.850  -7.968  -3.252  0.00  0.00    -0.096 C 
ATOM     33  C   UNL     1      -0.333  -5.952  -3.789  0.00  0.00    -0.096 C 
ATOM     34  H   UNL     1       1.693  -6.190  -3.791  0.00  0.00    -0.082 HD
ENDBRANCH  21  31
ENDBRANCH  20  21
ENDBRANCH   1  20
TORSDOF 9
