REMARK  Name = ZINC06445047
REMARK  8 active torsions:
REMARK  status: ('A' for Active; 'I' for Inactive)
REMARK    1  A    between atoms: C_6  and  C_7
REMARK    2  A    between atoms: N_10  and  C_12
REMARK    3  A    between atoms: C_12  and  C_13
REMARK    4  A    between atoms: N_15  and  C_16
REMARK    5  A    between atoms: N_15  and  C_23
REMARK    6  A    between atoms: C_23  and  C_25
REMARK    7  A    between atoms: C_23  and  C_31
REMARK    8  A    between atoms: N_33  and  C_34
REMARK                            x       y       z     vdW  Elec       q    Type
REMARK                         _______ _______ _______ _____ _____    ______ ____
ROOT
ATOM      1  C   UNL     1       0.879   1.998  -0.808  0.00  0.00    +0.244 C 
ATOM      2  O   UNL     1       2.015   1.576  -0.866  0.00  0.00    -0.273 OA
ATOM      3  N   UNL     1      -0.096   1.238  -0.271  0.00  0.00    -0.254 N 
ENDROOT
BRANCH   3   4
ATOM      4  C   UNL     1      -1.425   1.678  -0.304  0.00  0.00    +0.038 A 
ATOM      5  C   UNL     1      -2.346   1.048  -1.131  0.00  0.00    +0.026 A 
ATOM      6  C   UNL     1      -3.657   1.480  -1.158  0.00  0.00    +0.040 A 
ATOM      7  C   UNL     1      -4.051   2.548  -0.369  0.00  0.00    +0.124 A 
ATOM      8  C   UNL     1      -3.134   3.181   0.452  0.00  0.00    +0.040 A 
ATOM      9  C   UNL     1      -1.823   2.748   0.486  0.00  0.00    +0.026 A 
ATOM     10  F   UNL     1      -5.334   2.972  -0.401  0.00  0.00    -0.205 F 
ENDBRANCH   3   4
BRANCH   1  11
ATOM     11  C   UNL     1       0.558   3.372  -1.337  0.00  0.00    +0.264 C 
BRANCH  11  15
ATOM     12  C   UNL     1       3.553   4.967  -2.304  0.00  0.00    +0.205 A 
ATOM     13  N   UNL     1       3.154   4.421  -3.462  0.00  0.00    -0.108 NA
ATOM     14  N   UNL     1       2.047   3.800  -3.230  0.00  0.00    -0.045 NA
ATOM     15  N   UNL     1       1.744   3.935  -1.986  0.00  0.00    -0.154 N 
ATOM     16  N   UNL     1       2.646   4.648  -1.403  0.00  0.00    -0.130 NA
BRANCH  12  22
ATOM     17  C   UNL     1       5.058   6.285  -0.816  0.00  0.00    +0.014 A 
ATOM     18  C   UNL     1       6.199   7.034  -0.612  0.00  0.00    +0.039 A 
ATOM     19  C   UNL     1       7.059   7.290  -1.668  0.00  0.00    +0.123 A 
ATOM     20  C   UNL     1       6.780   6.792  -2.930  0.00  0.00    +0.039 A 
ATOM     21  C   UNL     1       5.644   6.037  -3.141  0.00  0.00    +0.014 A 
ATOM     22  C   UNL     1       4.777   5.778  -2.082  0.00  0.00    +0.023 A 
ATOM     23  F   UNL     1       8.173   8.028  -1.466  0.00  0.00    -0.205 F 
ENDBRANCH  12  22
ENDBRANCH  11  15
ENDBRANCH   1  11
BRANCH   3  24
ATOM     24  C   UNL     1       0.234  -0.052   0.341  0.00  0.00    +0.197 C 
BRANCH  24  25
ATOM     25  C   UNL     1      -1.035  -0.749   0.759  0.00  0.00    -0.015 A 
ATOM     26  C   UNL     1      -1.898  -0.164   1.674  0.00  0.00    +0.025 A 
ATOM     27  C   UNL     1      -3.054  -0.831   2.030  0.00  0.00    +0.111 A 
ATOM     28  N   UNL     1      -3.336  -2.013   1.519  0.00  0.00    -0.263 NA
ATOM     29  C   UNL     1      -2.537  -2.601   0.650  0.00  0.00    +0.111 A 
ATOM     30  C   UNL     1      -1.365  -1.992   0.243  0.00  0.00    +0.025 A 
ENDBRANCH  24  25
BRANCH  24  31
ATOM     31  C   UNL     1       1.105   0.174   1.550  0.00  0.00    +0.239 C 
ATOM     32  O   UNL     1       1.419   1.302   1.869  0.00  0.00    -0.273 OA
ATOM     33  N   UNL     1       1.534  -0.876   2.277  0.00  0.00    -0.311 N 
ATOM     34  H   UNL     1       1.283  -1.778   2.022  0.00  0.00    +0.149 HD
BRANCH  33  35
ATOM     35  C   UNL     1       2.381  -0.656   3.452  0.00  0.00    +0.073 C 
ATOM     36  C   UNL     1       3.865  -0.617   3.034  0.00  0.00    +0.022 C 
ATOM     37  C   UNL     1       4.607  -1.322   4.197  0.00  0.00    +0.002 C 
ATOM     38  C   UNL     1       3.632  -2.463   4.581  0.00  0.00    +0.002 C 
ATOM     39  C   UNL     1       2.233  -1.830   4.435  0.00  0.00    +0.022 C 
ENDBRANCH  33  35
ENDBRANCH  24  31
ENDBRANCH   3  24
TORSDOF 8
