REMARK  Name = ZINC09356877
REMARK  9 active torsions:
REMARK  status: ('A' for Active; 'I' for Inactive)
REMARK    1  A    between atoms: C_1  and  C_2
REMARK    2  A    between atoms: C_5  and  C_32
REMARK    3  A    between atoms: C_6  and  O_8
REMARK    4  A    between atoms: O_8  and  C_9
REMARK    5  A    between atoms: C_9  and  C_10
REMARK    6  A    between atoms: C_25  and  C_26
REMARK    7  A    between atoms: C_25  and  N_64
REMARK    8  A    between atoms: C_32  and  C_33
REMARK    9  A    between atoms: C_32  and  C_34
REMARK                            x       y       z     vdW  Elec       q    Type
REMARK                         _______ _______ _______ _____ _____    ______ ____
ROOT
ATOM      1  C   UNL     1      -0.742   1.585  -1.213  0.00  0.00    +0.189 A 
ATOM      2  N   UNL     1      -0.497   2.734  -1.835  0.00  0.00    -0.207 NA
ATOM      3  C   UNL     1      -1.313   2.860  -2.863  0.00  0.00    +0.168 A 
ATOM      4  C   UNL     1      -1.498   3.902  -3.892  0.00  0.00    +0.055 A 
ATOM      5  C   UNL     1      -0.781   5.160  -4.065  0.00  0.00    -0.028 A 
ATOM      6  C   UNL     1      -1.153   5.942  -5.104  0.00  0.00    -0.021 A 
ATOM      7  S   UNL     1      -2.463   5.055  -5.898  0.00  0.00    -0.075 S 
ATOM      8  C   UNL     1      -2.507   3.635  -4.832  0.00  0.00    +0.114 A 
ATOM      9  N   UNL     1      -3.235   2.526  -4.790  0.00  0.00    -0.228 NA
ATOM     10  C   UNL     1      -3.057   1.615  -3.873  0.00  0.00    +0.226 A 
ATOM     11  N   UNL     1      -2.111   1.753  -2.905  0.00  0.00    -0.201 N 
ATOM     12  N   UNL     1      -1.710   0.950  -1.828  0.00  0.00    -0.145 NA
ATOM     13  C   UNL     1      -0.567   7.269  -5.478  0.00  0.00    -0.035 C 
ATOM     14  C   UNL     1       1.141   6.707  -3.855  0.00  0.00    -0.073 C 
ATOM     15  C   UNL     1       0.346   5.612  -3.139  0.00  0.00    +0.018 C 
ATOM     16  N   UNL     1       0.215   7.761  -4.319  0.00  0.00    +0.386 N 
ATOM     17  H   UNL     1      -0.430   7.999  -3.556  0.00  0.00    -0.081 HD
ENDROOT
BRANCH   1  18
ATOM     18  C   UNL     1      -0.013   1.086   0.008  0.00  0.00    +0.306 C 
BRANCH  18  19
ATOM     19  O   UNL     1      -0.682   1.547   1.184  0.00  0.00    -0.484 OA
BRANCH  19  25
ATOM     20  C   UNL     1       2.776  -0.825   3.683  0.00  0.00    +0.044 C 
ATOM     21  C   UNL     1       1.534   0.028   3.637  0.00  0.00    -0.047 A 
ATOM     22  C   UNL     1       0.936   0.440   4.814  0.00  0.00    +0.004 A 
ATOM     23  C   UNL     1      -0.203   1.222   4.776  0.00  0.00    +0.008 A 
ATOM     24  C   UNL     1      -0.744   1.599   3.561  0.00  0.00    -0.003 A 
ATOM     25  C   UNL     1      -0.149   1.182   2.380  0.00  0.00    +0.125 A 
ATOM     26  C   UNL     1       0.994   0.397   2.421  0.00  0.00    +0.049 A 
BRANCH  24  27
ATOM     27  C   UNL     1      -1.982   2.457   3.520  0.00  0.00    +0.016 C 
ATOM     28  C   UNL     1      -3.127   1.734   4.231  0.00  0.00    +0.012 C 
ATOM     29  C   UNL     1      -1.704   3.787   4.223  0.00  0.00    +0.012 C 
ENDBRANCH  24  27
ENDBRANCH  19  25
ENDBRANCH  18  19
ENDBRANCH   1  18
BRANCH  16  30
ATOM     30  C   UNL     1       0.976   8.971  -4.699  0.00  0.00    -0.043 C 
BRANCH  30  31
ATOM     31  C   UNL     1       0.006  10.094  -4.964  0.00  0.00    -0.064 A 
ATOM     32  C   UNL     1      -0.482  10.299  -6.241  0.00  0.00    +0.002 A 
ATOM     33  C   UNL     1      -1.376  11.326  -6.482  0.00  0.00    +0.000 A 
ATOM     34  C   UNL     1      -1.772  12.154  -5.449  0.00  0.00    +0.000 A 
ATOM     35  C   UNL     1      -1.280  11.953  -4.174  0.00  0.00    +0.000 A 
ATOM     36  C   UNL     1      -0.390  10.922  -3.931  0.00  0.00    +0.002 A 
ENDBRANCH  30  31
ENDBRANCH  16  30
TORSDOF 6
