REMARK  Name = ZINC39698847
REMARK  8 active torsions:
REMARK  status: ('A' for Active; 'I' for Inactive)
REMARK    1  A    between atoms: C_1  and  C_2
REMARK    2  A    between atoms: C_2  and  C_3
REMARK    3  A    between atoms: C_3  and  C_4
REMARK    4  A    between atoms: C_10  and  C_12
REMARK    5  A    between atoms: C_12  and  C_14
REMARK    6  A    between atoms: C_12  and  S_16
REMARK    7  A    between atoms: C_14  and  C_15
REMARK    8  A    between atoms: S_16  and  C_17
REMARK                            x       y       z     vdW  Elec       q    Type
REMARK                         _______ _______ _______ _____ _____    ______ ____
ROOT
ATOM      1  C   UNL     1       1.227  -8.343  -1.066  0.00  0.00    +0.140 C 
ENDROOT
BRANCH   1   8
ATOM      2  C   UNL     1       1.292  -2.021  -1.459  0.00  0.00    +0.104 A 
ATOM      3  N   UNL     1       0.359  -2.815  -1.944  0.00  0.00    -0.145 NA
ATOM      4  N   UNL     1       0.474  -4.064  -1.792  0.00  0.00    -0.126 NA
ATOM      5  C   UNL     1       1.502  -4.597  -1.162  0.00  0.00    +0.188 A 
ATOM      6  S   UNL     1       2.398  -3.231  -0.745  0.00  0.00    -0.035 S 
ATOM      7  N   UNL     1       1.778  -5.937  -0.911  0.00  0.00    -0.262 N 
ATOM      8  C   UNL     1       0.928  -6.891  -1.338  0.00  0.00    +0.232 C 
ATOM      9  O   UNL     1      -0.078  -6.582  -1.941  0.00  0.00    -0.274 OA
ATOM     10  H   UNL     1       2.583  -6.184  -0.429  0.00  0.00    +0.157 HD
BRANCH   2  11
ATOM     11  C   UNL     1       1.401  -0.518  -1.499  0.00  0.00    +0.064 C 
BRANCH  11  13
ATOM     12  C   UNL     1       0.833   1.601  -0.304  0.00  0.00    +0.004 C 
ATOM     13  C   UNL     1       0.723   0.075  -0.263  0.00  0.00    +0.003 C 
ENDBRANCH  11  13
ENDBRANCH   2  11
ENDBRANCH   1   8
BRANCH   1  14
ATOM     14  C   UNL     1       0.716  -8.717   0.327  0.00  0.00    +0.020 C 
ATOM     15  C   UNL     1       1.144 -10.148   0.660  0.00  0.00    +0.005 C 
ENDBRANCH   1  14
BRANCH   1  16
ATOM     16  S   UNL     1       0.402  -9.374  -2.310  0.00  0.00    -0.072 S 
BRANCH  16  17
ATOM     17  C   UNL     1       1.256  -9.003  -3.806  0.00  0.00    +0.208 C 
ATOM     18  N   UNL     1       2.179  -8.072  -3.776  0.00  0.00    -0.227 NA
ATOM     19  C   UNL     1       2.937  -7.826  -5.000  0.00  0.00    +0.252 C 
ATOM     20  C   UNL     1       2.017  -8.198  -6.155  0.00  0.00    +0.117 C 
ATOM     21  C   UNL     1       2.071  -7.147  -7.019  0.00  0.00    +0.025 A 
ATOM     22  C   UNL     1       1.525  -6.947  -8.311  0.00  0.00    +0.012 A 
ATOM     23  C   UNL     1       1.758  -5.749  -8.910  0.00  0.00    +0.001 A 
ATOM     24  C   UNL     1       2.498  -4.712  -8.334  0.00  0.00    +0.002 A 
ATOM     25  C   UNL     1       3.073  -4.795  -7.105  0.00  0.00    +0.026 A 
ATOM     26  C   UNL     1       2.880  -6.062  -6.381  0.00  0.00    +0.046 A 
ATOM     27  N   UNL     1       3.317  -6.438  -5.218  0.00  0.00    -0.358 N 
ATOM     28  N   UNL     1       1.259  -9.298  -6.110  0.00  0.00    -0.147 NA
ATOM     29  N   UNL     1       0.924  -9.699  -4.921  0.00  0.00    -0.122 NA
ATOM     30  H   UNL     1       3.815  -5.884  -4.596  0.00  0.00    +0.162 HD
ENDBRANCH  16  17
ENDBRANCH   1  16
TORSDOF 6
