REMARK  Name = ZINC13048212
REMARK  15 active torsions:
REMARK  status: ('A' for Active; 'I' for Inactive)
REMARK    1  A    between atoms: C_1  and  C_2
REMARK    2  A    between atoms: C_2  and  C_3
REMARK    3  A    between atoms: C_3  and  N_4
REMARK    4  A    between atoms: N_4  and  C_5
REMARK    5  A    between atoms: C_5  and  C_6
REMARK    6  A    between atoms: C_9  and  C_12
REMARK    7  A    between atoms: C_13  and  C_15
REMARK    8  A    between atoms: C_15  and  S_16
REMARK    9  A    between atoms: S_16  and  C_17
REMARK   10  A    between atoms: C_21  and  C_33
REMARK   11  A    between atoms: N_27  and  C_28
REMARK   12  A    between atoms: C_28  and  C_29
REMARK   13  A    between atoms: C_29  and  C_30
REMARK   14  A    between atoms: C_30  and  O_31
REMARK   15  A    between atoms: O_31  and  C_32
REMARK                            x       y       z     vdW  Elec       q    Type
REMARK                         _______ _______ _______ _____ _____    ______ ____
ROOT
ATOM      1  C   UNL     1       1.091   2.051   0.003  0.00  0.00    +0.173 A 
ATOM      2  N   UNL     1      -0.016   1.350   0.009  0.00  0.00    -0.223 NA
ATOM      3  C   UNL     1       0.002  -0.004   0.002  0.00  0.00    +0.080 A 
ATOM      4  C   UNL     1      -1.180  -0.750   0.009  0.00  0.00    +0.043 A 
ATOM      5  C   UNL     1      -1.112  -2.137   0.000  0.00  0.00    +0.065 A 
ATOM      6  C   UNL     1       0.129  -2.788  -0.015  0.00  0.00    +0.016 A 
ATOM      7  C   UNL     1       1.290  -2.070  -0.022  0.00  0.00    +0.016 A 
ATOM      8  C   UNL     1       1.245  -0.676  -0.013  0.00  0.00    +0.065 A 
ATOM      9  C   UNL     1       2.472   0.137  -0.021  0.00  0.00    +0.262 A 
ATOM     10  O   UNL     1       3.572  -0.383  -0.035  0.00  0.00    -0.267 OA
ATOM     11  N   UNL     1       2.332   1.482  -0.012  0.00  0.00    -0.287 N 
ENDROOT
BRANCH   5  12
ATOM     12  C   UNL     1      -2.359  -2.934   0.007  0.00  0.00    +0.387 C 
ATOM     13  O   UNL     1      -3.437  -2.374   0.020  0.00  0.00    -0.241 OA
ATOM     14  O   UNL     1      -2.299  -4.279  -0.001  0.00  0.00    -0.241 OA
ENDBRANCH   5  12
BRANCH   1  15
ATOM     15  S   UNL     1       0.972   3.809   0.013  0.00  0.00    -0.078 S 
BRANCH  15  16
ATOM     16  C   UNL     1      -0.828   4.002   0.032  0.00  0.00    +0.173 C 
BRANCH  16  18
ATOM     17  N   UNL     1      -2.467   5.854   0.057  0.00  0.00    -0.296 N 
ATOM     18  C   UNL     1      -1.176   5.468   0.043  0.00  0.00    +0.226 C 
ATOM     19  O   UNL     1      -0.294   6.301   0.039  0.00  0.00    -0.275 OA
BRANCH  17  20
ATOM     20  C   UNL     1      -3.532   4.849   0.062  0.00  0.00    +0.108 C 
BRANCH  20  22
ATOM     21  C   UNL     1      -5.002   3.441   1.511  0.00  0.00    +0.005 C 
ATOM     22  C   UNL     1      -3.889   4.491   1.506  0.00  0.00    +0.016 C 
ENDBRANCH  20  22
ENDBRANCH  17  20
BRANCH  17  23
ATOM     23  C   UNL     1      -2.805   7.280   0.068  0.00  0.00    +0.142 C 
BRANCH  23  24
ATOM     24  C   UNL     1      -2.934   7.776  -1.349  0.00  0.00    -0.030 A 
ATOM     25  C   UNL     1      -1.830   8.285  -2.007  0.00  0.00    +0.005 A 
ATOM     26  C   UNL     1      -1.948   8.737  -3.308  0.00  0.00    +0.003 A 
ATOM     27  C   UNL     1      -3.172   8.688  -3.948  0.00  0.00    -0.050 A 
ATOM     28  C   UNL     1      -4.277   8.183  -3.289  0.00  0.00    +0.003 A 
ATOM     29  C   UNL     1      -4.159   7.728  -1.989  0.00  0.00    +0.005 A 
ATOM     30  C   UNL     1      -3.302   9.184  -5.365  0.00  0.00    +0.044 C 
ENDBRANCH  23  24
ENDBRANCH  17  23
ENDBRANCH  16  18
ENDBRANCH  15  16
ENDBRANCH   1  15
BRANCH  11  31
ATOM     31  C   UNL     1       3.522   2.336  -0.019  0.00  0.00    +0.129 C 
BRANCH  31  32
ATOM     32  C   UNL     1       3.922   2.642  -1.464  0.00  0.00    +0.050 C 
BRANCH  32  33
ATOM     33  C   UNL     1       5.165   3.534  -1.472  0.00  0.00    +0.161 C 
BRANCH  33  34
ATOM     34  O   UNL     1       5.539   3.819  -2.822  0.00  0.00    -0.383 OA
ATOM     35  C   UNL     1       6.695   4.650  -2.942  0.00  0.00    +0.193 C 
ENDBRANCH  33  34
ENDBRANCH  32  33
ENDBRANCH  31  32
ENDBRANCH  11  31
TORSDOF 12
