REMARK  Name = ZINC36313717
REMARK  18 active torsions:
REMARK  status: ('A' for Active; 'I' for Inactive)
REMARK    1  A    between atoms: C_1  and  C_2
REMARK    2  A    between atoms: C_2  and  C_3
REMARK    3  A    between atoms: C_3  and  C_4
REMARK    4  A    between atoms: C_4  and  O_5
REMARK    5  A    between atoms: O_5  and  C_6
REMARK    6  A    between atoms: C_6  and  C_7
REMARK    7  A    between atoms: C_7  and  C_9
REMARK    8  A    between atoms: C_7  and  O_35
REMARK    9  A    between atoms: C_9  and  N_10
REMARK   10  A    between atoms: N_10  and  C_11
REMARK   11  A    between atoms: N_10  and  C_32
REMARK   12  A    between atoms: C_11  and  C_12
REMARK   13  A    between atoms: C_13  and  C_31
REMARK   14  A    between atoms: N_15  and  C_25
REMARK   15  A    between atoms: C_16  and  O_17
REMARK   16  A    between atoms: O_17  and  C_18
REMARK   17  A    between atoms: C_32  and  C_33
REMARK   18  A    between atoms: C_32  and  C_34
REMARK                            x       y       z     vdW  Elec       q    Type
REMARK                         _______ _______ _______ _____ _____    ______ ____
ROOT
ATOM      1  C   UNL     1      -7.226  -8.515  -0.716  0.00  0.00    +0.021 A 
ATOM      2  C   UNL     1      -8.169  -8.719   0.295  0.00  0.00    +0.065 A 
ATOM      3  N   UNL     1      -9.316  -9.013  -0.262  0.00  0.00    -0.168 NA
ATOM      4  N   UNL     1      -9.147  -9.007  -1.652  0.00  0.00    -0.200 N 
ATOM      5  C   UNL     1      -7.850  -8.692  -1.911  0.00  0.00    +0.225 A 
ATOM      6  C   UNL     1      -7.909  -8.618   1.776  0.00  0.00    +0.068 C 
ENDROOT
BRANCH   4   7
ATOM      7  C   UNL     1     -10.139  -9.273  -2.606  0.00  0.00    +0.069 A 
ATOM      8  C   UNL     1     -10.166  -8.562  -3.798  0.00  0.00    +0.028 A 
ATOM      9  C   UNL     1     -11.144  -8.827  -4.737  0.00  0.00    +0.002 A 
ATOM     10  C   UNL     1     -12.096  -9.799  -4.490  0.00  0.00    +0.000 A 
ATOM     11  C   UNL     1     -12.072 -10.509  -3.303  0.00  0.00    +0.002 A 
ATOM     12  C   UNL     1     -11.093 -10.253  -2.363  0.00  0.00    +0.028 A 
ENDBRANCH   4   7
BRANCH   1  13
ATOM     13  C   UNL     1      -5.775  -8.157  -0.517  0.00  0.00    -0.035 C 
BRANCH  13  14
ATOM     14  N   UNL     1      -5.492  -6.876  -1.177  0.00  0.00    +0.386 N 
ATOM     15  H   UNL     1      -5.891  -6.880  -2.104  0.00  0.00    -0.081 HD
BRANCH  14  16
ATOM     16  C   UNL     1      -6.082  -5.781  -0.395  0.00  0.00    -0.074 C 
ATOM     17  C   UNL     1      -7.608  -5.887  -0.439  0.00  0.00    -0.014 C 
ATOM     18  C   UNL     1      -5.606  -5.878   1.056  0.00  0.00    -0.014 C 
ENDBRANCH  14  16
BRANCH  14  19
ATOM     19  C   UNL     1      -4.039  -6.684  -1.271  0.00  0.00    -0.044 C 
BRANCH  19  20
ATOM     20  C   UNL     1      -3.742  -5.448  -2.123  0.00  0.00    +0.124 C 
BRANCH  20  21
ATOM     21  O   UNL     1      -4.158  -4.274  -1.422  0.00  0.00    -0.391 OA
ATOM     22  H   UNL     1      -3.661  -4.104  -0.610  0.00  0.00    +0.210 HD
ENDBRANCH  20  21
BRANCH  20  23
ATOM     23  C   UNL     1      -2.239  -5.370  -2.401  0.00  0.00    +0.189 C 
BRANCH  23  24
ATOM     24  O   UNL     1      -1.976  -4.284  -3.292  0.00  0.00    -0.377 OA
BRANCH  24  25
ATOM     25  C   UNL     1      -0.594  -4.123  -3.619  0.00  0.00    +0.160 C 
BRANCH  25  26
ATOM     26  C   UNL     1      -0.431  -2.938  -4.573  0.00  0.00    +0.028 C 
BRANCH  26  28
ATOM     27  C   UNL     1       1.212  -1.580  -5.877  0.00  0.00    +0.004 C 
ATOM     28  C   UNL     1       1.049  -2.765  -4.923  0.00  0.00    -0.001 C 
ENDBRANCH  26  28
ENDBRANCH  25  26
ENDBRANCH  24  25
ENDBRANCH  23  24
ENDBRANCH  20  23
ENDBRANCH  19  20
ENDBRANCH  14  19
ENDBRANCH  13  14
ENDBRANCH   1  13
BRANCH   5  29
ATOM     29  O   UNL     1      -7.281  -8.577  -3.139  0.00  0.00    -0.438 OA
BRANCH  29  30
ATOM     30  C   UNL     1      -6.829  -9.709  -3.741  0.00  0.00    +0.130 A 
ATOM     31  C   UNL     1      -7.052 -10.945  -3.152  0.00  0.00    +0.048 A 
ATOM     32  C   UNL     1      -6.592 -12.094  -3.766  0.00  0.00    +0.023 A 
ATOM     33  C   UNL     1      -5.909 -12.012  -4.967  0.00  0.00    +0.041 A 
ATOM     34  C   UNL     1      -5.686 -10.780  -5.555  0.00  0.00    +0.023 A 
ATOM     35  C   UNL     1      -6.148  -9.629  -4.947  0.00  0.00    +0.048 A 
ATOM     36 CL   UNL     1      -5.332 -13.457  -5.736  0.00  0.00    -0.084 Cl
ENDBRANCH  29  30
ENDBRANCH   5  29
TORSDOF 14
