REMARK  Name = ZINC22740046
REMARK  9 active torsions:
REMARK  status: ('A' for Active; 'I' for Inactive)
REMARK    1  A    between atoms: C_1  and  O_2
REMARK    2  A    between atoms: O_2  and  C_3
REMARK    3  A    between atoms: C_7  and  C_9
REMARK    4  A    between atoms: C_9  and  C_11
REMARK    5  A    between atoms: C_9  and  N_31
REMARK    6  A    between atoms: C_11  and  N_12
REMARK    7  A    between atoms: C_13  and  C_15
REMARK    8  A    between atoms: C_15  and  C_16
REMARK    9  A    between atoms: C_16  and  N_17
REMARK                            x       y       z     vdW  Elec       q    Type
REMARK                         _______ _______ _______ _____ _____    ______ ____
ROOT
ATOM      1  N   UNL     1       3.201  -7.676  -3.630  0.00  0.00    -0.316 N 
ATOM      2  C   UNL     1       3.039  -7.186  -2.385  0.00  0.00    +0.215 C 
ATOM      3  O   UNL     1       3.588  -7.722  -1.446  0.00  0.00    -0.276 OA
ATOM      4  H   UNL     1       2.703  -7.189  -4.481  0.00  0.00    +0.149 HD
ENDROOT
BRANCH   1   5
ATOM      5  C   UNL     1       4.039  -8.857  -3.849  0.00  0.00    +0.093 C 
BRANCH   5   6
ATOM      6  C   UNL     1       3.961  -9.272  -5.319  0.00  0.00    -0.020 C 
BRANCH   6  11
ATOM      7  C   UNL     1       4.320  -6.301  -7.626  0.00  0.00    +0.120 A 
ATOM      8  C   UNL     1       5.699  -6.220  -7.757  0.00  0.00    +0.045 A 
ATOM      9  C   UNL     1       6.508  -7.125  -7.099  0.00  0.00    +0.004 A 
ATOM     10  C   UNL     1       5.945  -8.112  -6.310  0.00  0.00    +0.002 A 
ATOM     11  C   UNL     1       4.572  -8.195  -6.178  0.00  0.00    -0.056 A 
ATOM     12  C   UNL     1       3.757  -7.295  -6.838  0.00  0.00    +0.047 A 
BRANCH   7  14
ATOM     13  C   UNL     1       4.169  -4.419  -9.071  0.00  0.00    +0.277 C 
ATOM     14  O   UNL     1       3.521  -5.412  -8.273  0.00  0.00    -0.495 OA
ENDBRANCH   7  14
ENDBRANCH   6  11
BRANCH   6  15
ATOM     15  N   UNL     1       4.697 -10.529  -5.513  0.00  0.00    +0.385 N 
ATOM     16  C   UNL     1       4.141 -11.609  -4.658  0.00  0.00    -0.078 C 
ATOM     17  C   UNL     1       4.642 -12.902  -5.349  0.00  0.00    -0.020 C 
ATOM     18  C   UNL     1       4.548 -12.549  -6.851  0.00  0.00    -0.020 C 
ATOM     19  C   UNL     1       4.568 -11.010  -6.905  0.00  0.00    -0.078 C 
ATOM     20  H   UNL     1       5.744 -10.305  -5.259  0.00  0.00    -0.081 HD
ENDBRANCH   6  15
ENDBRANCH   5   6
ENDBRANCH   1   5
BRANCH   2  21
ATOM     21  C   UNL     1       2.176  -5.971  -2.159  0.00  0.00    +0.117 C 
BRANCH  21  22
ATOM     22  C   UNL     1       2.161  -5.625  -0.669  0.00  0.00    +0.135 C 
BRANCH  22  23
ATOM     23  N   UNL     1       1.322  -4.444  -0.450  0.00  0.00    -0.298 N 
ATOM     24  C   UNL     1       0.003  -4.626  -0.200  0.00  0.00    +0.203 A 
ATOM     25  N   UNL     1      -0.831  -3.631   0.008  0.00  0.00    -0.230 NA
ATOM     26  C   UNL     1      -0.334  -2.399  -0.033  0.00  0.00    +0.116 A 
ATOM     27  C   UNL     1       1.025  -2.106  -0.285  0.00  0.00    +0.076 A 
ATOM     28  C   UNL     1       1.902  -3.221  -0.506  0.00  0.00    +0.262 A 
ATOM     29  O   UNL     1       3.091  -3.077  -0.732  0.00  0.00    -0.267 OA
ATOM     30  C   UNL     1       1.387  -0.700  -0.292  0.00  0.00    -0.023 A 
ATOM     31  C   UNL     1       0.390   0.185  -0.058  0.00  0.00    -0.004 A 
ATOM     32  S   UNL     1      -1.063  -0.806   0.180  0.00  0.00    -0.073 S 
ATOM     33  C   UNL     1       0.495   1.678  -0.011  0.00  0.00    +0.043 C 
ATOM     34  C   UNL     1       1.978   2.058   0.100  0.00  0.00    +0.005 C 
ATOM     35  C   UNL     1       2.767   1.262  -0.944  0.00  0.00    +0.005 C 
ATOM     36  C   UNL     1       2.812  -0.213  -0.547  0.00  0.00    +0.037 C 
ENDBRANCH  22  23
ENDBRANCH  21  22
ENDBRANCH   2  21
TORSDOF 8
