REMARK  Name = ZINC03871189
REMARK  4 active torsions:
REMARK  status: ('A' for Active; 'I' for Inactive)
REMARK    1  A    between atoms: C_1  and  C_2
REMARK    2  A    between atoms: C_2  and  C_4
REMARK    3  A    between atoms: C_2  and  S_13
REMARK    4  A    between atoms: S_13  and  C_14
REMARK                            x       y       z     vdW  Elec       q    Type
REMARK                         _______ _______ _______ _____ _____    ______ ____
ROOT
ATOM      1  C   UNL     1      -3.718   2.336  -1.257  0.00  0.00    +0.026 C 
ATOM      2  C   UNL     1      -3.873   3.106   0.056  0.00  0.00    +0.100 C 
ENDROOT
BRANCH   2   3
ATOM      3  C   UNL     1      -5.298   3.577   0.196  0.00  0.00    +0.055 A 
ATOM      4  C   UNL     1      -6.008   3.246   1.317  0.00  0.00    +0.036 A 
ATOM      5  C   UNL     1      -7.326   3.691   1.431  0.00  0.00    +0.023 A 
ATOM      6  C   UNL     1      -8.389   3.563   2.428  0.00  0.00    +0.049 A 
ATOM      7  C   UNL     1      -9.444   4.232   1.937  0.00  0.00    +0.196 A 
ATOM      8  O   UNL     1      -9.140   4.761   0.739  0.00  0.00    -0.461 OA
ATOM      9  C   UNL     1      -7.875   4.463   0.389  0.00  0.00    +0.153 A 
ATOM     10  C   UNL     1      -7.078   4.748  -0.710  0.00  0.00    +0.157 A 
ATOM     11  N   UNL     1      -5.837   4.308  -0.765  0.00  0.00    -0.255 NA
ENDBRANCH   2   3
BRANCH   2  12
ATOM     12  S   UNL     1      -2.763   4.535   0.053  0.00  0.00    -0.077 S 
BRANCH  12  13
ATOM     13  C   UNL     1      -1.205   3.711   0.034  0.00  0.00    +0.192 A 
ATOM     14  N   UNL     1      -0.093   4.433   0.027  0.00  0.00    -0.207 NA
ATOM     15  C   UNL     1       1.098   3.842   0.012  0.00  0.00    +0.122 A 
ATOM     16  C   UNL     1       1.162   2.447   0.004  0.00  0.00    +0.083 A 
ATOM     17  C   UNL     1      -0.021   1.732   0.012  0.00  0.00    +0.135 A 
ATOM     18  N   UNL     1      -1.175   2.386   0.021  0.00  0.00    -0.210 NA
ATOM     19 CL   UNL     1       0.002  -0.004   0.002  0.00  0.00    -0.062 Cl
ATOM     20  N   UNL     1       2.258   4.599   0.006  0.00  0.00    -0.343 N 
ATOM     21  H   UNL     1       3.123   4.160  -0.005  0.00  0.00    +0.144 HD
ATOM     22  H   UNL     1       2.205   5.567   0.011  0.00  0.00    +0.144 HD
ENDBRANCH  12  13
ENDBRANCH   2  12
TORSDOF 3
