REMARK  Name = ZINC14750110
REMARK  8 active torsions:
REMARK  status: ('A' for Active; 'I' for Inactive)
REMARK    1  A    between atoms: C_1  and  C_2
REMARK    2  A    between atoms: C_2  and  C_3
REMARK    3  A    between atoms: C_6  and  C_8
REMARK    4  A    between atoms: C_13  and  O_14
REMARK    5  A    between atoms: O_14  and  C_15
REMARK    6  A    between atoms: N_18  and  C_20
REMARK    7  A    between atoms: C_20  and  C_21
REMARK    8  A    between atoms: C_24  and  O_27
REMARK                            x       y       z     vdW  Elec       q    Type
REMARK                         _______ _______ _______ _____ _____    ______ ____
ROOT
ATOM      1  C   UNL     1       0.710  -0.584   1.207  0.00  0.00    +0.038 A 
ATOM      2  C   UNL     1       0.214  -0.618   2.450  0.00  0.00    +0.054 A 
ATOM      3  N   UNL     1       1.232  -1.023   3.282  0.00  0.00    -0.326 N 
ATOM      4  C   UNL     1       2.324  -1.228   2.507  0.00  0.00    +0.123 A 
ATOM      5  N   UNL     1       1.996  -0.964   1.258  0.00  0.00    -0.343 N 
ATOM      6  C   UNL     1       1.077  -1.175   4.731  0.00  0.00    +0.139 C 
ATOM      7  C   UNL     1      -0.199  -0.435   5.155  0.00  0.00    +0.106 C 
ATOM      8  N   UNL     1      -1.320  -0.840   4.296  0.00  0.00    -0.291 NA
ATOM      9  C   UNL     1      -1.175  -0.294   2.934  0.00  0.00    +0.140 C 
ATOM     10  H   UNL     1       2.591  -1.031   0.495  0.00  0.00    +0.167 HD
ENDROOT
BRANCH   4  11
ATOM     11  C   UNL     1       3.651  -1.676   2.979  0.00  0.00    +0.057 A 
ATOM     12  C   UNL     1       3.756  -2.760   3.851  0.00  0.00    +0.015 A 
ATOM     13  C   UNL     1       4.997  -3.173   4.289  0.00  0.00    +0.001 A 
ATOM     14  C   UNL     1       6.140  -2.516   3.866  0.00  0.00    +0.004 A 
ATOM     15  C   UNL     1       6.049  -1.441   3.003  0.00  0.00    +0.046 A 
ATOM     16  C   UNL     1       4.810  -1.017   2.550  0.00  0.00    +0.131 A 
BRANCH  16  17
ATOM     17  O   UNL     1       4.719   0.035   1.697  0.00  0.00    -0.494 OA
ATOM     18  C   UNL     1       5.943   0.658   1.302  0.00  0.00    +0.277 C 
ENDBRANCH  16  17
ENDBRANCH   4  11
BRANCH   1  20
ATOM     19  C   UNL     1      -0.011   1.329  -0.198  0.00  0.00    +0.010 C 
ATOM     20  C   UNL     1      -0.048  -0.192  -0.036  0.00  0.00    +0.051 C 
ENDBRANCH   1  20
BRANCH   8  21
ATOM     21  C   UNL     1      -2.606  -0.445   4.888  0.00  0.00    +0.120 C 
BRANCH  21  22
ATOM     22  C   UNL     1      -2.831  -1.220   6.160  0.00  0.00    -0.033 A 
ATOM     23  C   UNL     1      -3.481  -2.439   6.120  0.00  0.00    +0.008 A 
ATOM     24  C   UNL     1      -3.690  -3.151   7.286  0.00  0.00    +0.046 A 
ATOM     25  C   UNL     1      -3.246  -2.641   8.498  0.00  0.00    +0.117 A 
ATOM     26  C   UNL     1      -2.594  -1.417   8.535  0.00  0.00    +0.046 A 
ATOM     27  C   UNL     1      -2.384  -0.712   7.366  0.00  0.00    +0.008 A 
BRANCH  25  28
ATOM     28  O   UNL     1      -3.451  -3.338   9.646  0.00  0.00    -0.507 OA
ATOM     29  H   UNL     1      -2.735  -3.950   9.867  0.00  0.00    +0.292 HD
ENDBRANCH  25  28
ENDBRANCH  21  22
ENDBRANCH   8  21
TORSDOF 6
