REMARK  Name = ZINC09877799
REMARK  13 active torsions:
REMARK  status: ('A' for Active; 'I' for Inactive)
REMARK    1  A    between atoms: C_1  and  C_2
REMARK    2  A    between atoms: C_3  and  C_32
REMARK    3  A    between atoms: C_4  and  C_31
REMARK    4  A    between atoms: C_7  and  C_8
REMARK    5  A    between atoms: C_8  and  C_10
REMARK    6  A    between atoms: C_10  and  C_12
REMARK    7  A    between atoms: C_10  and  S_13
REMARK    8  A    between atoms: S_13  and  C_14
REMARK    9  A    between atoms: C_17  and  C_25
REMARK   10  A    between atoms: N_18  and  C_19
REMARK   11  A    between atoms: C_25  and  N_65
REMARK   12  A    between atoms: C_32  and  O_34
REMARK   13  A    between atoms: O_34  and  C_35
REMARK                            x       y       z     vdW  Elec       q    Type
REMARK                         _______ _______ _______ _____ _____    ______ ____
ROOT
ATOM      1  C   UNL     1       3.735   3.001   5.769  0.00  0.00    +0.197 A 
ATOM      2  N   UNL     1       2.843   2.991   6.733  0.00  0.00    -0.122 NA
ATOM      3  N   UNL     1       3.375   3.403   7.827  0.00  0.00    -0.135 NA
ATOM      4  C   UNL     1       4.629   3.699   7.632  0.00  0.00    +0.122 A 
ATOM      5  N   UNL     1       4.907   3.448   6.314  0.00  0.00    -0.276 N 
ENDROOT
BRANCH   5   6
ATOM      6  C   UNL     1       6.135   3.618   5.660  0.00  0.00    +0.050 A 
ATOM      7  C   UNL     1       7.229   2.844   6.022  0.00  0.00    +0.026 A 
ATOM      8  C   UNL     1       8.436   3.009   5.371  0.00  0.00    +0.002 A 
ATOM      9  C   UNL     1       8.559   3.953   4.368  0.00  0.00    +0.000 A 
ATOM     10  C   UNL     1       7.473   4.729   4.009  0.00  0.00    +0.002 A 
ATOM     11  C   UNL     1       6.262   4.564   4.652  0.00  0.00    +0.026 A 
ENDBRANCH   5   6
BRANCH   1  12
ATOM     12  S   UNL     1       3.473   2.522   4.094  0.00  0.00    -0.074 S 
BRANCH  12  13
ATOM     13  C   UNL     1       1.724   2.061   4.168  0.00  0.00    +0.124 C 
ATOM     14  C   UNL     1       1.555   0.845   5.080  0.00  0.00    +0.028 C 
BRANCH  13  15
ATOM     15  C   UNL     1       1.235   1.722   2.783  0.00  0.00    +0.192 C 
ATOM     16  O   UNL     1       2.020   1.343   1.938  0.00  0.00    -0.289 OA
BRANCH  15  23
ATOM     17  C   UNL     1      -0.013   1.086   0.008  0.00  0.00    +0.047 C 
ATOM     18  C   UNL     1      -0.718   1.572   1.248  0.00  0.00    -0.008 A 
ATOM     19  C   UNL     1      -2.098   1.839   1.381  0.00  0.00    +0.083 A 
ATOM     20  C   UNL     1      -2.309   2.259   2.683  0.00  0.00    +0.028 A 
ATOM     21  N   UNL     1      -1.134   2.266   3.328  0.00  0.00    -0.355 N 
ATOM     22  H   UNL     1      -1.003   2.524   4.254  0.00  0.00    +0.166 HD
ATOM     23  C   UNL     1      -0.139   1.847   2.468  0.00  0.00    +0.087 A 
ATOM     24  C   UNL     1      -3.638   2.651   3.274  0.00  0.00    +0.064 C 
BRANCH  19  25
ATOM     25  C   UNL     1      -3.121   1.694   0.332  0.00  0.00    +0.341 C 
ATOM     26  O   UNL     1      -3.708   0.638   0.197  0.00  0.00    -0.245 OA
BRANCH  25  27
ATOM     27  O   UNL     1      -3.408   2.732  -0.478  0.00  0.00    -0.464 OA
ATOM     28  C   UNL     1      -4.427   2.518  -1.489  0.00  0.00    +0.280 C 
ENDBRANCH  25  27
ENDBRANCH  19  25
ENDBRANCH  15  23
ENDBRANCH  13  15
ENDBRANCH  12  13
ENDBRANCH   1  12
BRANCH   4  29
ATOM     29  C   UNL     1       5.597   4.215   8.666  0.00  0.00    -0.001 C 
BRANCH  29  35
ATOM     30  C   UNL     1       5.311   2.282  10.095  0.00  0.00    -0.078 C 
ATOM     31  C   UNL     1       6.012   1.035  10.638  0.00  0.00    -0.019 C 
ATOM     32  C   UNL     1       7.188   1.460  11.523  0.00  0.00    -0.004 C 
ATOM     33  C   UNL     1       8.143   2.333  10.703  0.00  0.00    -0.019 C 
ATOM     34  C   UNL     1       7.380   3.542  10.158  0.00  0.00    -0.078 C 
ATOM     35  N   UNL     1       6.278   3.066   9.296  0.00  0.00    +0.384 N 
ATOM     36  H   UNL     1       6.667   2.464   8.560  0.00  0.00    -0.081 HD
ENDBRANCH  29  35
ENDBRANCH   4  29
TORSDOF 9
