REMARK  Name = ZINC16862835
REMARK  8 active torsions:
REMARK  status: ('A' for Active; 'I' for Inactive)
REMARK    1  A    between atoms: C_1  and  C_2
REMARK    2  A    between atoms: C_5  and  N_8
REMARK    3  A    between atoms: C_9  and  C_28
REMARK    4  A    between atoms: C_12  and  S_13
REMARK    5  A    between atoms: S_13  and  C_14
REMARK    6  A    between atoms: C_14  and  C_16
REMARK    7  A    between atoms: C_14  and  C_17
REMARK    8  A    between atoms: N_19  and  C_20
REMARK                            x       y       z     vdW  Elec       q    Type
REMARK                         _______ _______ _______ _____ _____    ______ ____
ROOT
ATOM      1  N   UNL     1      -1.088  -0.831   0.013  0.00  0.00    -0.270 N 
ATOM      2  C   UNL     1      -0.581  -2.112  -0.003  0.00  0.00    +0.169 A 
ATOM      3  N   UNL     1       0.728  -2.008  -0.015  0.00  0.00    -0.128 NA
ATOM      4  N   UNL     1       1.071  -0.769  -0.012  0.00  0.00    -0.122 NA
ATOM      5  C   UNL     1       0.002  -0.004   0.002  0.00  0.00    +0.197 A 
ENDROOT
BRANCH   1  10
ATOM      6  C   UNL     1      -6.554   0.696   0.099  0.00  0.00    +0.044 C 
ATOM      7  C   UNL     1      -5.102   0.291   0.076  0.00  0.00    -0.050 A 
ATOM      8  C   UNL     1      -4.317   0.598  -1.019  0.00  0.00    +0.005 A 
ATOM      9  C   UNL     1      -2.987   0.228  -1.043  0.00  0.00    +0.026 A 
ATOM     10  C   UNL     1      -2.438  -0.454   0.035  0.00  0.00    +0.051 A 
ATOM     11  C   UNL     1      -3.230  -0.765   1.131  0.00  0.00    +0.026 A 
ATOM     12  C   UNL     1      -4.559  -0.388   1.151  0.00  0.00    +0.005 A 
ENDBRANCH   1  10
BRANCH   2  13
ATOM     13  C   UNL     1      -1.363  -3.366  -0.002  0.00  0.00    +0.020 A 
ATOM     14  C   UNL     1      -2.727  -3.342  -0.296  0.00  0.00    +0.013 A 
ATOM     15  C   UNL     1      -3.451  -4.516  -0.298  0.00  0.00    +0.021 A 
ATOM     16  C   UNL     1      -2.828  -5.717   0.000  0.00  0.00    +0.041 A 
ATOM     17  C   UNL     1      -1.476  -5.747   0.297  0.00  0.00    +0.021 A 
ATOM     18  C   UNL     1      -0.741  -4.580   0.298  0.00  0.00    +0.013 A 
ATOM     19 CL   UNL     1      -3.746  -7.190   0.002  0.00  0.00    -0.084 Cl
ENDBRANCH   2  13
BRANCH   5  20
ATOM     20  S   UNL     1      -0.022   1.758   0.012  0.00  0.00    -0.073 S 
BRANCH  20  21
ATOM     21  C   UNL     1       1.756   2.096  -0.004  0.00  0.00    +0.137 C 
ATOM     22  C   UNL     1       2.384   1.586   1.295  0.00  0.00    +0.029 C 
BRANCH  21  23
ATOM     23  C   UNL     1       1.984   3.581  -0.121  0.00  0.00    +0.226 C 
ATOM     24  O   UNL     1       1.131   4.357   0.256  0.00  0.00    -0.275 OA
ATOM     25  N   UNL     1       3.135   4.047  -0.646  0.00  0.00    -0.310 N 
ATOM     26  H   UNL     1       3.816   3.426  -0.948  0.00  0.00    +0.149 HD
BRANCH  25  27
ATOM     27  C   UNL     1       3.356   5.491  -0.761  0.00  0.00    +0.095 C 
ATOM     28  C   UNL     1       3.926   6.027   0.563  0.00  0.00    +0.046 C 
ATOM     29  C   UNL     1       4.439   7.474   0.319  0.00  0.00    +0.168 C 
ATOM     30  S   UNL     1       5.231   7.276  -1.333  0.00  0.00    -0.029 S 
ATOM     31  O   UNL     1       6.606   6.968  -1.153  0.00  0.00    -0.174 OA
ATOM     32  O   UNL     1       4.862   8.372  -2.158  0.00  0.00    -0.174 OA
ATOM     33  C   UNL     1       4.351   5.768  -1.913  0.00  0.00    +0.188 C 
ENDBRANCH  25  27
ENDBRANCH  21  23
ENDBRANCH  20  21
ENDBRANCH   5  20
TORSDOF 6
