REMARK  Name = ZINC63743549
REMARK  7 active torsions:
REMARK  status: ('A' for Active; 'I' for Inactive)
REMARK    1  A    between atoms: C_7  and  C_10
REMARK    2  A    between atoms: C_10  and  C_11
REMARK    3  A    between atoms: C_11  and  C_12
REMARK    4  A    between atoms: C_14  and  C_17
REMARK    5  A    between atoms: C_20  and  N_23
REMARK    6  A    between atoms: N_23  and  S_24
REMARK    7  A    between atoms: S_24  and  C_27
REMARK                            x       y       z     vdW  Elec       q    Type
REMARK                         _______ _______ _______ _____ _____    ______ ____
ROOT
ATOM      1  C   UNL     1      -0.484  -4.830  -1.460  0.00  0.00    +0.228 A 
ATOM      2  N   UNL     1      -1.783  -4.767  -1.545  0.00  0.00    -0.191 NA
ATOM      3  C   UNL     1      -2.307  -6.005  -1.514  0.00  0.00    +0.202 A 
ATOM      4  N   UNL     1      -1.329  -6.872  -1.409  0.00  0.00    -0.056 NA
ATOM      5  O   UNL     1      -0.126  -6.118  -1.377  0.00  0.00    -0.338 OA
ENDROOT
BRANCH   3   6
ATOM      6  C   UNL     1      -3.751  -6.335  -1.588  0.00  0.00    +0.023 A 
ATOM      7  C   UNL     1      -4.695  -5.316  -1.705  0.00  0.00    +0.013 A 
ATOM      8  C   UNL     1      -6.037  -5.625  -1.774  0.00  0.00    +0.027 A 
ATOM      9  C   UNL     1      -6.449  -6.952  -1.726  0.00  0.00    +0.074 A 
ATOM     10  C   UNL     1      -5.509  -7.970  -1.609  0.00  0.00    +0.027 A 
ATOM     11  C   UNL     1      -4.167  -7.666  -1.546  0.00  0.00    +0.013 A 
BRANCH   9  12
ATOM     12  N   UNL     1      -7.807  -7.262  -1.795  0.00  0.00    -0.097 NA
BRANCH  12  13
ATOM     13  S   UNL     1      -8.299  -8.842  -1.738  0.00  0.00    +0.098 S 
ATOM     14  O   UNL     1      -7.816  -9.461  -2.923  0.00  0.00    -0.148 OA
ATOM     15  O   UNL     1      -7.974  -9.322  -0.441  0.00  0.00    -0.148 OA
BRANCH  13  16
ATOM     16  C   UNL     1     -10.057  -8.844  -1.850  0.00  0.00    +0.148 A 
ATOM     17  C   UNL     1     -10.842  -8.909  -2.953  0.00  0.00    +0.037 A 
ATOM     18  C   UNL     1     -12.216  -8.897  -2.800  0.00  0.00    +0.010 A 
ATOM     19  C   UNL     1     -12.737  -8.821  -1.551  0.00  0.00    +0.047 A 
ATOM     20  S   UNL     1     -11.267  -8.769  -0.540  0.00  0.00    -0.077 S 
ENDBRANCH  13  16
ENDBRANCH  12  13
ENDBRANCH   9  12
ENDBRANCH   3   6
BRANCH   1  21
ATOM     21  C   UNL     1       0.457  -3.653  -1.462  0.00  0.00    +0.103 C 
BRANCH  21  22
ATOM     22  C   UNL     1       0.691  -3.186  -0.024  0.00  0.00    +0.042 C 
BRANCH  22  29
ATOM     23  C   UNL     1      -0.016   1.348   0.009  0.00  0.00    +0.001 A 
ATOM     24  C   UNL     1       1.166   2.101   0.002  0.00  0.00    +0.002 A 
ATOM     25  C   UNL     1       2.391   1.535  -0.013  0.00  0.00    +0.026 A 
ATOM     26  C   UNL     1       2.529   0.120  -0.022  0.00  0.00    +0.043 A 
ATOM     27  N   UNL     1       3.587  -0.654  -0.037  0.00  0.00    -0.380 N 
ATOM     28  C   UNL     1       3.143  -2.053  -0.041  0.00  0.00    +0.144 C 
ATOM     29  C   UNL     1       1.631  -2.008  -0.025  0.00  0.00    -0.041 C 
ATOM     30  C   UNL     1       1.295  -0.698  -0.014  0.00  0.00    -0.001 A 
ATOM     31  C   UNL     1       0.002  -0.004   0.002  0.00  0.00    +0.010 A 
ATOM     32  H   UNL     1       4.509  -0.353  -0.045  0.00  0.00    +0.160 HD
ENDBRANCH  22  29
ENDBRANCH  21  22
ENDBRANCH   1  21
TORSDOF 7
