REMARK  Name = ZINC16843171
REMARK  11 active torsions:
REMARK  status: ('A' for Active; 'I' for Inactive)
REMARK    1  A    between atoms: C_1  and  C_2
REMARK    2  A    between atoms: C_5  and  C_8
REMARK    3  A    between atoms: C_10  and  C_14
REMARK    4  A    between atoms: C_11  and  C_13
REMARK    5  A    between atoms: C_14  and  S_15
REMARK    6  A    between atoms: S_15  and  C_16
REMARK    7  A    between atoms: C_25  and  C_27
REMARK    8  A    between atoms: C_30  and  O_35
REMARK    9  A    between atoms: C_31  and  O_33
REMARK   10  A    between atoms: O_33  and  C_34
REMARK   11  A    between atoms: O_35  and  C_36
REMARK                            x       y       z     vdW  Elec       q    Type
REMARK                         _______ _______ _______ _____ _____    ______ ____
ROOT
ATOM      1  C   UNL     1      -1.041   2.321   0.029  0.00  0.00    +0.209 A 
ATOM      2  N   UNL     1      -0.805   3.598   0.030  0.00  0.00    -0.144 NA
ATOM      3  N   UNL     1       0.495   4.114   0.021  0.00  0.00    -0.239 N 
ATOM      4  H   UNL     1       0.637   5.073   0.025  0.00  0.00    +0.192 HD
ATOM      5  C   UNL     1       1.553   3.271   0.005  0.00  0.00    +0.290 A 
ATOM      6  O   UNL     1       2.694   3.698  -0.003  0.00  0.00    -0.264 OA
ATOM      7  C   UNL     1       1.287   1.828  -0.000  0.00  0.00    +0.136 A 
ATOM      8  N   UNL     1      -0.017   1.395   0.010  0.00  0.00    -0.202 N 
ATOM      9  N   UNL     1       0.002  -0.004   0.002  0.00  0.00    -0.164 NA
ATOM     10  C   UNL     1       1.258  -0.412  -0.012  0.00  0.00    +0.094 A 
ATOM     11  C   UNL     1       2.093   0.714  -0.014  0.00  0.00    +0.063 A 
ENDROOT
BRANCH  10  12
ATOM     12  C   UNL     1       1.709  -1.825  -0.024  0.00  0.00    +0.006 A 
ATOM     13  C   UNL     1       3.067  -2.125   0.066  0.00  0.00    +0.014 A 
ATOM     14  C   UNL     1       3.486  -3.440   0.055  0.00  0.00    +0.050 A 
ATOM     15  C   UNL     1       2.558  -4.465  -0.045  0.00  0.00    +0.162 A 
ATOM     16  C   UNL     1       1.200  -4.172  -0.137  0.00  0.00    +0.162 A 
ATOM     17  C   UNL     1       0.775  -2.855  -0.119  0.00  0.00    +0.059 A 
BRANCH  16  18
ATOM     18  O   UNL     1       0.292  -5.179  -0.236  0.00  0.00    -0.491 OA
ATOM     19  C   UNL     1      -1.084  -4.804  -0.326  0.00  0.00    +0.277 C 
ENDBRANCH  16  18
BRANCH  15  20
ATOM     20  O   UNL     1       2.975  -5.759  -0.056  0.00  0.00    -0.491 OA
ATOM     21  C   UNL     1       4.383  -5.988   0.041  0.00  0.00    +0.277 C 
ENDBRANCH  15  20
ENDBRANCH  10  12
BRANCH   1  22
ATOM     22  S   UNL     1      -2.709   1.755   0.050  0.00  0.00    -0.078 S 
BRANCH  22  23
ATOM     23  C   UNL     1      -3.579   3.342   0.071  0.00  0.00    +0.136 C 
BRANCH  23  26
ATOM     24  C   UNL     1      -7.072   2.768   0.808  0.00  0.00    +0.228 A 
ATOM     25  N   UNL     1      -5.831   2.967   1.185  0.00  0.00    -0.213 NA
ATOM     26  C   UNL     1      -5.066   3.100   0.090  0.00  0.00    +0.093 A 
ATOM     27  C   UNL     1      -5.864   2.984  -0.987  0.00  0.00    +0.127 A 
ATOM     28  O   UNL     1      -7.116   2.771  -0.536  0.00  0.00    -0.440 OA
ATOM     29  C   UNL     1      -5.437   3.073  -2.429  0.00  0.00    +0.088 C 
BRANCH  24  34
ATOM     30  C   UNL     1     -11.568   2.003   4.317  0.00  0.00    +0.044 C 
ATOM     31  C   UNL     1     -10.391   2.204   3.398  0.00  0.00    -0.050 A 
ATOM     32  C   UNL     1     -10.576   2.185   2.027  0.00  0.00    +0.004 A 
ATOM     33  C   UNL     1      -9.502   2.368   1.180  0.00  0.00    +0.013 A 
ATOM     34  C   UNL     1      -8.227   2.572   1.709  0.00  0.00    +0.037 A 
ATOM     35  C   UNL     1      -8.046   2.584   3.093  0.00  0.00    +0.013 A 
ATOM     36  C   UNL     1      -9.129   2.405   3.929  0.00  0.00    +0.004 A 
ENDBRANCH  24  34
ENDBRANCH  23  26
ENDBRANCH  22  23
ENDBRANCH   1  22
TORSDOF 7
