REMARK  Name = ZINC36521990
REMARK  18 active torsions:
REMARK  status: ('A' for Active; 'I' for Inactive)
REMARK    1  A    between atoms: C_1  and  C_2
REMARK    2  A    between atoms: C_2  and  C_3
REMARK    3  A    between atoms: C_3  and  C_4
REMARK    4  A    between atoms: C_4  and  C_5
REMARK    5  A    between atoms: C_5  and  C_6
REMARK    6  A    between atoms: C_6  and  N_7
REMARK    7  A    between atoms: N_7  and  C_8
REMARK    8  A    between atoms: C_8  and  C_10
REMARK    9  A    between atoms: C_8  and  C_19
REMARK   10  A    between atoms: C_11  and  O_18
REMARK   11  A    between atoms: C_13  and  O_17
REMARK   12  A    between atoms: C_15  and  O_16
REMARK   13  A    between atoms: N_21  and  C_22
REMARK   14  A    between atoms: C_22  and  C_23
REMARK   15  A    between atoms: C_22  and  C_24
REMARK   16  A    between atoms: C_22  and  C_25
REMARK   17  A    between atoms: C_26  and  C_28
REMARK   18  A    between atoms: C_31  and  N_34
REMARK                            x       y       z     vdW  Elec       q    Type
REMARK                         _______ _______ _______ _____ _____    ______ ____
ROOT
ATOM      1  C   UNL     1       3.089  -2.941  -3.790  0.00  0.00    +0.199 C 
ENDROOT
BRANCH   1   2
ATOM      2  C   UNL     1       2.672  -1.711  -4.555  0.00  0.00    +0.065 A 
ATOM      3  C   UNL     1       1.420  -1.155  -4.345  0.00  0.00    +0.129 A 
ATOM      4  C   UNL     1       1.036  -0.024  -5.049  0.00  0.00    +0.091 A 
ATOM      5  C   UNL     1       1.906   0.552  -5.963  0.00  0.00    +0.124 A 
ATOM      6  C   UNL     1       3.159  -0.004  -6.173  0.00  0.00    +0.091 A 
ATOM      7  C   UNL     1       3.544  -1.133  -5.466  0.00  0.00    +0.129 A 
BRANCH   7   8
ATOM      8  O   UNL     1       4.774  -1.675  -5.668  0.00  0.00    -0.506 OA
ATOM      9  H   UNL     1       4.817  -2.282  -6.419  0.00  0.00    +0.292 HD
ENDBRANCH   7   8
BRANCH   5  10
ATOM     10  O   UNL     1       1.530   1.660  -6.654  0.00  0.00    -0.507 OA
ATOM     11  H   UNL     1       1.754   2.492  -6.215  0.00  0.00    +0.292 HD
ENDBRANCH   5  10
BRANCH   3  12
ATOM     12  O   UNL     1       0.568  -1.719  -3.449  0.00  0.00    -0.506 OA
ATOM     13  H   UNL     1       0.600  -1.318  -2.570  0.00  0.00    +0.292 HD
ENDBRANCH   3  12
ENDBRANCH   1   2
BRANCH   1  14
ATOM     14  C   UNL     1       3.566  -2.541  -2.418  0.00  0.00    +0.239 C 
ATOM     15  O   UNL     1       2.794  -2.546  -1.482  0.00  0.00    -0.273 OA
ATOM     16  N   UNL     1       4.850  -2.178  -2.230  0.00  0.00    -0.309 N 
ATOM     17  H   UNL     1       5.468  -2.174  -2.978  0.00  0.00    +0.149 HD
BRANCH  16  18
ATOM     18  C   UNL     1       5.314  -1.789  -0.896  0.00  0.00    +0.026 C 
ATOM     19  C   UNL     1       5.114  -2.956   0.074  0.00  0.00    +0.031 C 
ATOM     20  C   UNL     1       6.799  -1.426  -0.958  0.00  0.00    +0.031 C 
ATOM     21  C   UNL     1       4.513  -0.579  -0.410  0.00  0.00    +0.031 C 
ENDBRANCH  16  18
ENDBRANCH   1  14
BRANCH   1  22
ATOM     22  N   UNL     1       1.946  -3.849  -3.664  0.00  0.00    -0.282 N 
ATOM     23  C   UNL     1       1.218  -4.170  -4.752  0.00  0.00    +0.247 C 
ATOM     24  O   UNL     1       0.284  -4.941  -4.652  0.00  0.00    -0.270 OA
BRANCH  23  25
ATOM     25  C   UNL     1       1.557  -3.586  -6.067  0.00  0.00    +0.037 A 
ATOM     26  C   UNL     1       2.856  -3.691  -6.567  0.00  0.00    +0.015 A 
ATOM     27  C   UNL     1       3.165  -3.143  -7.796  0.00  0.00    +0.033 A 
ATOM     28  C   UNL     1       2.191  -2.492  -8.531  0.00  0.00    +0.126 A 
ATOM     29  C   UNL     1       0.902  -2.385  -8.041  0.00  0.00    +0.033 A 
ATOM     30  C   UNL     1       0.578  -2.933  -6.817  0.00  0.00    +0.015 A 
BRANCH  28  31
ATOM     31  N   UNL     1       2.530  -1.907  -9.848  0.00  0.00    +0.056 N 
ATOM     32  O   UNL     1       3.656  -1.999 -10.278  0.00  0.00    -0.126 OA
ATOM     33  O   UNL     1       1.681  -1.337 -10.493  0.00  0.00    -0.126 OA
ENDBRANCH  28  31
ENDBRANCH  23  25
BRANCH  22  34
ATOM     34  C   UNL     1       1.594  -4.406  -2.356  0.00  0.00    +0.109 C 
BRANCH  34  35
ATOM     35  C   UNL     1       0.487  -3.561  -1.723  0.00  0.00    +0.019 C 
BRANCH  35  36
ATOM     36  C   UNL     1       0.093  -4.165  -0.373  0.00  0.00    +0.002 C 
BRANCH  36  37
ATOM     37  C   UNL     1      -1.013  -3.320   0.261  0.00  0.00    -0.000 C 
BRANCH  37  39
ATOM     38  C   UNL     1      -2.514  -3.079   2.244  0.00  0.00    +0.004 C 
ATOM     39  C   UNL     1      -1.407  -3.924   1.610  0.00  0.00    -0.003 C 
ENDBRANCH  37  39
ENDBRANCH  36  37
ENDBRANCH  35  36
ENDBRANCH  34  35
ENDBRANCH  22  34
ENDBRANCH   1  22
TORSDOF 14
