REMARK  Name = ZINC02622429
REMARK  9 active torsions:
REMARK  status: ('A' for Active; 'I' for Inactive)
REMARK    1  A    between atoms: C_1  and  C_2
REMARK    2  A    between atoms: C_7  and  N_8
REMARK    3  A    between atoms: C_9  and  C_30
REMARK    4  A    between atoms: C_12  and  S_13
REMARK    5  A    between atoms: S_13  and  C_14
REMARK    6  A    between atoms: C_14  and  C_16
REMARK    7  A    between atoms: C_14  and  C_17
REMARK    8  A    between atoms: N_19  and  C_20
REMARK    9  A    between atoms: C_22  and  N_27
REMARK                            x       y       z     vdW  Elec       q    Type
REMARK                         _______ _______ _______ _____ _____    ______ ____
ROOT
ATOM      1  N   UNL     1      -7.907  -4.357  -1.546  0.00  0.00    -0.270 N 
ATOM      2  C   UNL     1      -9.282  -4.371  -1.472  0.00  0.00    +0.171 A 
ATOM      3  N   UNL     1      -9.652  -3.218  -0.964  0.00  0.00    -0.128 NA
ATOM      4  N   UNL     1      -8.619  -2.496  -0.714  0.00  0.00    -0.122 NA
ATOM      5  C   UNL     1      -7.524  -3.139  -1.054  0.00  0.00    +0.197 A 
ENDROOT
BRANCH   1  12
ATOM      6  C   UNL     1      -7.249  -4.371  -4.315  0.00  0.00    +0.046 C 
ATOM      7  C   UNL     1      -6.728  -5.421  -3.368  0.00  0.00    -0.026 A 
ATOM      8  C   UNL     1      -5.903  -6.426  -3.836  0.00  0.00    +0.005 A 
ATOM      9  C   UNL     1      -5.429  -7.392  -2.968  0.00  0.00    +0.000 A 
ATOM     10  C   UNL     1      -5.775  -7.355  -1.630  0.00  0.00    +0.002 A 
ATOM     11  C   UNL     1      -6.596  -6.350  -1.156  0.00  0.00    +0.026 A 
ATOM     12  C   UNL     1      -7.073  -5.378  -2.024  0.00  0.00    +0.053 A 
ENDBRANCH   1  12
BRANCH   2  13
ATOM     13  C   UNL     1     -10.174  -5.474  -1.887  0.00  0.00    +0.038 A 
ATOM     14  C   UNL     1     -11.513  -5.499  -1.480  0.00  0.00    +0.014 A 
ATOM     15  C   UNL     1     -12.306  -6.554  -1.895  0.00  0.00    +0.020 A 
ATOM     16  C   UNL     1     -11.754  -7.543  -2.691  0.00  0.00    +0.111 A 
ATOM     17  N   UNL     1     -10.488  -7.494  -3.059  0.00  0.00    -0.263 NA
ATOM     18  C   UNL     1      -9.696  -6.507  -2.694  0.00  0.00    +0.122 A 
ENDBRANCH   2  13
BRANCH   5  19
ATOM     19  S   UNL     1      -5.872  -2.546  -0.898  0.00  0.00    -0.073 S 
BRANCH  19  20
ATOM     20  C   UNL     1      -6.191  -0.911  -0.190  0.00  0.00    +0.137 C 
ATOM     21  C   UNL     1      -6.811  -1.069   1.199  0.00  0.00    +0.029 C 
BRANCH  20  22
ATOM     22  C   UNL     1      -4.894  -0.151  -0.078  0.00  0.00    +0.230 C 
ATOM     23  O   UNL     1      -3.838  -0.748  -0.087  0.00  0.00    -0.274 OA
ATOM     24  N   UNL     1      -4.908   1.192   0.031  0.00  0.00    -0.283 N 
ATOM     25  H   UNL     1      -5.751   1.663   0.119  0.00  0.00    +0.155 HD
BRANCH  24  26
ATOM     26  C   UNL     1      -3.704   1.908   0.019  0.00  0.00    +0.054 A 
ATOM     27  C   UNL     1      -2.582   1.371  -0.597  0.00  0.00    +0.057 A 
ATOM     28  C   UNL     1      -1.396   2.079  -0.608  0.00  0.00    +0.128 A 
ATOM     29  C   UNL     1      -1.324   3.320  -0.002  0.00  0.00    +0.034 A 
ATOM     30  C   UNL     1      -2.441   3.861   0.608  0.00  0.00    +0.024 A 
ATOM     31  C   UNL     1      -3.631   3.157   0.623  0.00  0.00    +0.062 A 
ATOM     32 CL   UNL     1      -5.031   3.833   1.394  0.00  0.00    -0.082 Cl
BRANCH  28  33
ATOM     33  N   UNL     1      -0.200   1.507  -1.265  0.00  0.00    +0.056 N 
ATOM     34  O   UNL     1      -0.261   0.412  -1.795  0.00  0.00    -0.126 OA
ATOM     35  O   UNL     1       0.845   2.133  -1.280  0.00  0.00    -0.126 OA
ENDBRANCH  28  33
ENDBRANCH  24  26
ENDBRANCH  20  22
ENDBRANCH  19  20
ENDBRANCH   5  19
TORSDOF 7
