REMARK  Name = ZINC36083653
REMARK  13 active torsions:
REMARK  status: ('A' for Active; 'I' for Inactive)
REMARK    1  A    between atoms: C_1  and  C_2
REMARK    2  A    between atoms: C_2  and  O_3
REMARK    3  A    between atoms: O_3  and  C_4
REMARK    4  A    between atoms: C_4  and  C_6
REMARK    5  A    between atoms: C_7  and  C_25
REMARK    6  A    between atoms: N_8  and  C_24
REMARK    7  A    between atoms: C_12  and  C_14
REMARK    8  A    between atoms: C_16  and  O_22
REMARK    9  A    between atoms: C_18  and  O_20
REMARK   10  A    between atoms: O_20  and  C_21
REMARK   11  A    between atoms: O_22  and  C_23
REMARK   12  A    between atoms: C_25  and  O_26
REMARK   13  A    between atoms: O_26  and  C_27
REMARK                            x       y       z     vdW  Elec       q    Type
REMARK                         _______ _______ _______ _____ _____    ______ ____
ROOT
ATOM      1  C   UNL     1       1.326  -2.341  -2.533  0.00  0.00    +0.082 C 
ATOM      2  C   UNL     1       1.628  -3.654  -2.615  0.00  0.00    +0.064 C 
ATOM      3  N   UNL     1       2.356  -4.146  -3.660  0.00  0.00    -0.258 N 
ATOM      4  C   UNL     1       2.820  -3.389  -4.663  0.00  0.00    +0.307 C 
ATOM      5  O   UNL     1       3.460  -3.918  -5.551  0.00  0.00    -0.252 OA
ATOM      6  N   UNL     1       2.600  -2.061  -4.720  0.00  0.00    -0.288 N 
ATOM      7  C   UNL     1       1.818  -1.433  -3.642  0.00  0.00    +0.144 C 
ATOM      8  C   UNL     1       2.647  -5.582  -3.686  0.00  0.00    +0.139 C 
ATOM      9  H   UNL     1       2.946  -1.532  -5.455  0.00  0.00    +0.151 HD
ENDROOT
BRANCH   7  10
ATOM     10  C   UNL     1       2.673  -0.360  -3.019  0.00  0.00    -0.016 A 
ATOM     11  C   UNL     1       3.986  -0.631  -2.685  0.00  0.00    +0.051 A 
ATOM     12  C   UNL     1       4.775   0.356  -2.111  0.00  0.00    +0.124 A 
ATOM     13  C   UNL     1       4.245   1.615  -1.873  0.00  0.00    +0.091 A 
ATOM     14  C   UNL     1       2.927   1.884  -2.208  0.00  0.00    +0.124 A 
ATOM     15  C   UNL     1       2.144   0.896  -2.787  0.00  0.00    +0.051 A 
BRANCH  14  16
ATOM     16  O   UNL     1       2.405   3.117  -1.975  0.00  0.00    -0.495 OA
ATOM     17  C   UNL     1       3.270   4.087  -1.382  0.00  0.00    +0.277 C 
ENDBRANCH  14  16
BRANCH  12  18
ATOM     18  O   UNL     1       6.067   0.089  -1.783  0.00  0.00    -0.495 OA
ATOM     19  C   UNL     1       6.820   1.152  -1.196  0.00  0.00    +0.277 C 
ENDBRANCH  12  18
ENDBRANCH   7  10
BRANCH   1  20
ATOM     20  C   UNL     1       0.571  -1.830  -1.451  0.00  0.00    +0.339 C 
ATOM     21  O   UNL     1      -0.614  -1.592  -1.595  0.00  0.00    -0.245 OA
BRANCH  20  22
ATOM     22  O   UNL     1       1.164  -1.607  -0.260  0.00  0.00    -0.462 OA
BRANCH  22  24
ATOM     23  C   UNL     1       1.183  -0.905   2.053  0.00  0.00    +0.048 C 
ATOM     24  C   UNL     1       0.341  -1.091   0.788  0.00  0.00    +0.229 C 
ENDBRANCH  22  24
ENDBRANCH  20  22
ENDBRANCH   1  20
BRANCH   2  25
ATOM     25  C   UNL     1       1.153  -4.593  -1.536  0.00  0.00    +0.280 C 
BRANCH  25  26
ATOM     26  O   UNL     1       0.209  -5.513  -2.086  0.00  0.00    -0.483 OA
BRANCH  26  27
ATOM     27  C   UNL     1      -0.321  -6.435  -1.239  0.00  0.00    +0.156 A 
ATOM     28  C   UNL     1       0.056  -6.450   0.095  0.00  0.00    +0.048 A 
ATOM     29  C   UNL     1      -0.483  -7.388   0.955  0.00  0.00    +0.004 A 
ATOM     30  C   UNL     1      -1.398  -8.312   0.486  0.00  0.00    +0.003 A 
ATOM     31  C   UNL     1      -1.777  -8.302  -0.843  0.00  0.00    +0.042 A 
ATOM     32  C   UNL     1      -1.245  -7.361  -1.707  0.00  0.00    +0.165 A 
ATOM     33  F   UNL     1      -1.619  -7.346  -3.005  0.00  0.00    -0.202 F 
ENDBRANCH  26  27
ENDBRANCH  25  26
ENDBRANCH   2  25
TORSDOF 9
