REMARK  Name = ZINC40035978
REMARK  10 active torsions:
REMARK  status: ('A' for Active; 'I' for Inactive)
REMARK    1  A    between atoms: C_1  and  C_2
REMARK    2  A    between atoms: C_2  and  C_3
REMARK    3  A    between atoms: C_3  and  C_4
REMARK    4  A    between atoms: C_4  and  C_37
REMARK    5  A    between atoms: N_16  and  C_30
REMARK    6  A    between atoms: N_19  and  N_20
REMARK    7  A    between atoms: C_21  and  C_22
REMARK    8  A    between atoms: C_26  and  O_28
REMARK    9  A    between atoms: O_28  and  C_29
REMARK   10  A    between atoms: C_33  and  C_36
REMARK                            x       y       z     vdW  Elec       q    Type
REMARK                         _______ _______ _______ _____ _____    ______ ____
ROOT
ATOM      1  C   UNL     1       0.077  -1.266   1.322  0.00  0.00    +0.004 C 
ATOM      2  C   UNL     1       1.211  -1.312   2.343  0.00  0.00    +0.047 C 
ATOM      3  C   UNL     1       0.667  -1.533   3.728  0.00  0.00    -0.037 A 
ATOM      4  C   UNL     1       1.262  -0.931   4.817  0.00  0.00    +0.004 A 
ATOM      5  C   UNL     1       0.758  -1.142   6.088  0.00  0.00    +0.000 A 
ATOM      6  C   UNL     1      -0.344  -1.957   6.278  0.00  0.00    +0.001 A 
ATOM      7  C   UNL     1      -0.950  -2.565   5.196  0.00  0.00    +0.010 A 
ATOM      8  C   UNL     1      -0.447  -2.353   3.916  0.00  0.00    +0.004 A 
ATOM      9  C   UNL     1      -1.081  -2.982   2.735  0.00  0.00    +0.084 A 
ATOM     10  C   UNL     1      -0.823  -2.458   1.477  0.00  0.00    +0.050 A 
ATOM     11  C   UNL     1      -1.417  -3.060   0.360  0.00  0.00    +0.264 A 
ATOM     12  O   UNL     1      -1.212  -2.629  -0.763  0.00  0.00    -0.267 OA
ATOM     13  N   UNL     1      -2.221  -4.128   0.552  0.00  0.00    -0.248 N 
ATOM     14  C   UNL     1      -2.446  -4.601   1.812  0.00  0.00    +0.223 A 
ATOM     15  N   UNL     1      -1.889  -4.040   2.866  0.00  0.00    -0.214 NA
ATOM     16  N   UNL     1      -3.269  -5.683   1.985  0.00  0.00    -0.206 N 
ATOM     17  C   UNL     1       0.669  -1.261  -0.089  0.00  0.00    +0.017 C 
ATOM     18  H   UNL     1      -3.658  -6.125   1.214  0.00  0.00    +0.177 HD
ENDROOT
BRANCH  13  19
ATOM     19  C   UNL     1      -2.827  -4.753  -0.545  0.00  0.00    +0.053 A 
ATOM     20  C   UNL     1      -4.073  -4.328  -0.987  0.00  0.00    +0.026 A 
ATOM     21  C   UNL     1      -4.667  -4.946  -2.070  0.00  0.00    +0.005 A 
ATOM     22  C   UNL     1      -4.023  -5.986  -2.714  0.00  0.00    -0.050 A 
ATOM     23  C   UNL     1      -2.782  -6.412  -2.276  0.00  0.00    +0.005 A 
ATOM     24  C   UNL     1      -2.179  -5.794  -1.197  0.00  0.00    +0.026 A 
ATOM     25  C   UNL     1      -4.674  -6.658  -3.895  0.00  0.00    +0.044 C 
ENDBRANCH  13  19
BRANCH  16  26
ATOM     26  N   UNL     1      -3.548  -6.152   3.276  0.00  0.00    -0.188 NA
ATOM     27  C   UNL     1      -4.327  -7.176   3.440  0.00  0.00    +0.138 C 
BRANCH  27  28
ATOM     28  C   UNL     1      -4.622  -7.670   4.798  0.00  0.00    -0.002 A 
ATOM     29  C   UNL     1      -4.067  -7.032   5.911  0.00  0.00    +0.010 A 
ATOM     30  C   UNL     1      -4.345  -7.495   7.180  0.00  0.00    +0.004 A 
ATOM     31  C   UNL     1      -5.171  -8.591   7.356  0.00  0.00    +0.045 A 
ATOM     32  C   UNL     1      -5.726  -9.232   6.256  0.00  0.00    +0.121 A 
ATOM     33  C   UNL     1      -5.459  -8.772   4.978  0.00  0.00    +0.055 A 
BRANCH  32  34
ATOM     34  O   UNL     1      -6.537 -10.308   6.435  0.00  0.00    -0.495 OA
ATOM     35  C   UNL     1      -6.773 -10.725   7.781  0.00  0.00    +0.277 C 
ENDBRANCH  32  34
ENDBRANCH  27  28
ENDBRANCH  16  26
BRANCH   1  36
ATOM     36  C   UNL     1      -0.738   0.012   1.531  0.00  0.00    +0.011 C 
BRANCH  36  38
ATOM     37  C   UNL     1      -2.674   1.356   0.701  0.00  0.00    +0.004 C 
ATOM     38  C   UNL     1      -1.859   0.078   0.492  0.00  0.00    -0.003 C 
ENDBRANCH  36  38
ENDBRANCH   1  36
TORSDOF 6
