REMARK  Name = ZINC03011837
REMARK  6 active torsions:
REMARK  status: ('A' for Active; 'I' for Inactive)
REMARK    1  A    between atoms: C_1  and  C_2
REMARK    2  A    between atoms: C_5  and  C_8
REMARK    3  A    between atoms: C_11  and  C_33
REMARK    4  A    between atoms: C_17  and  C_19
REMARK    5  A    between atoms: N_21  and  C_22
REMARK    6  A    between atoms: C_27  and  C_28
REMARK                            x       y       z     vdW  Elec       q    Type
REMARK                         _______ _______ _______ _____ _____    ______ ____
ROOT
ATOM      1  C   UNL     1      -0.091  -3.340   0.304  0.00  0.00    +0.113 C 
ATOM      2  C   UNL     1       1.272  -4.033   0.315  0.00  0.00    +0.062 C 
ATOM      3  C   UNL     1       1.907  -3.904   1.708  0.00  0.00    +0.201 C 
ATOM      4  N   UNL     1       0.920  -4.384   2.682  0.00  0.00    -0.226 N 
ATOM      5  C   UNL     1      -0.447  -4.380   2.427  0.00  0.00    +0.114 C 
ATOM      6  N   UNL     1      -0.972  -3.919   1.325  0.00  0.00    -0.365 N 
ATOM      7  C   UNL     1      -1.091  -4.962   3.598  0.00  0.00    +0.072 C 
ATOM      8  C   UNL     1      -0.110  -5.262   4.492  0.00  0.00    +0.114 C 
ATOM      9  N   UNL     1       1.116  -4.905   3.955  0.00  0.00    -0.257 N 
ATOM     10  H   UNL     1       1.974  -5.005   4.397  0.00  0.00    +0.170 HD
ATOM     11  H   UNL     1      -1.931  -3.958   1.184  0.00  0.00    +0.161 HD
ENDROOT
BRANCH   1  16
ATOM     12  C   UNL     1       0.622   2.293   1.376  0.00  0.00    +0.044 C 
ATOM     13  C   UNL     1       0.436   0.824   1.096  0.00  0.00    -0.050 A 
ATOM     14  C   UNL     1       0.271   0.383  -0.204  0.00  0.00    +0.004 A 
ATOM     15  C   UNL     1       0.101  -0.964  -0.460  0.00  0.00    +0.006 A 
ATOM     16  C   UNL     1       0.096  -1.871   0.583  0.00  0.00    -0.025 A 
ATOM     17  C   UNL     1       0.261  -1.430   1.883  0.00  0.00    +0.006 A 
ATOM     18  C   UNL     1       0.436  -0.083   2.139  0.00  0.00    +0.004 A 
ENDBRANCH   1  16
BRANCH   3  19
ATOM     19  C   UNL     1       3.174  -4.759   1.784  0.00  0.00    +0.410 C 
ATOM     20  F   UNL     1       4.088  -4.325   0.818  0.00  0.00    -0.169 F 
ATOM     21  F   UNL     1       3.745  -4.635   3.055  0.00  0.00    -0.169 F 
ATOM     22  F   UNL     1       2.847  -6.099   1.548  0.00  0.00    -0.169 F 
ENDBRANCH   3  19
BRANCH   8  23
ATOM     23  C   UNL     1      -0.318  -5.869   5.818  0.00  0.00    +0.293 C 
ATOM     24  O   UNL     1       0.742  -6.121   6.621  0.00  0.00    -0.264 OA
ATOM     25  N   UNL     1      -1.529  -6.165   6.220  0.00  0.00    -0.207 NA
BRANCH  25  26
ATOM     26  C   UNL     1      -1.735  -6.616   7.492  0.00  0.00    +0.080 A 
ATOM     27  C   UNL     1      -1.189  -5.927   8.579  0.00  0.00    +0.030 A 
ATOM     28  C   UNL     1      -1.401  -6.388   9.861  0.00  0.00    +0.022 A 
ATOM     29  C   UNL     1      -2.154  -7.532  10.073  0.00  0.00    +0.042 A 
ATOM     30  C   UNL     1      -2.697  -8.220   9.001  0.00  0.00    +0.034 A 
ATOM     31  C   UNL     1      -2.498  -7.766   7.714  0.00  0.00    +0.082 A 
ATOM     32 CL   UNL     1      -2.415  -8.106  11.691  0.00  0.00    -0.084 Cl
BRANCH  31  33
ATOM     33  C   UNL     1      -3.096  -8.512   6.550  0.00  0.00    +0.419 C 
ATOM     34  F   UNL     1      -3.809  -9.619   7.021  0.00  0.00    -0.166 F 
ATOM     35  F   UNL     1      -3.960  -7.665   5.847  0.00  0.00    -0.166 F 
ATOM     36  F   UNL     1      -2.073  -8.945   5.699  0.00  0.00    -0.166 F 
ENDBRANCH  31  33
ENDBRANCH  25  26
ENDBRANCH   8  23
TORSDOF 5
