REMARK  Name = ZINC35643616
REMARK  13 active torsions:
REMARK  status: ('A' for Active; 'I' for Inactive)
REMARK    1  A    between atoms: C_1  and  C_2
REMARK    2  A    between atoms: C_2  and  C_3
REMARK    3  A    between atoms: N_8  and  C_13
REMARK    4  A    between atoms: C_10  and  C_12
REMARK    5  A    between atoms: C_13  and  C_14
REMARK    6  A    between atoms: C_15  and  C_34
REMARK    7  A    between atoms: C_16  and  C_24
REMARK    8  A    between atoms: N_21  and  C_22
REMARK    9  A    between atoms: C_22  and  C_23
REMARK   10  A    between atoms: C_27  and  C_30
REMARK   11  A    between atoms: C_34  and  O_36
REMARK   12  A    between atoms: O_36  and  C_37
REMARK   13  A    between atoms: C_37  and  C_38
REMARK                            x       y       z     vdW  Elec       q    Type
REMARK                         _______ _______ _______ _____ _____    ______ ____
ROOT
ATOM      1  C   UNL     1      -1.320  -6.834   1.581  0.00  0.00    +0.041 C 
ATOM      2  C   UNL     1      -0.358  -7.298   2.408  0.00  0.00    +0.080 C 
ATOM      3  C   UNL     1       0.515  -8.431   1.908  0.00  0.00    +0.144 C 
ATOM      4  N   UNL     1       0.242  -8.935   0.552  0.00  0.00    -0.288 N 
ATOM      5  C   UNL     1      -0.756  -8.368  -0.155  0.00  0.00    +0.307 C 
ATOM      6  O   UNL     1      -0.989  -8.777  -1.275  0.00  0.00    -0.252 OA
ATOM      7  N   UNL     1      -1.502  -7.372   0.339  0.00  0.00    -0.258 N 
ATOM      8  H   UNL     1       0.768  -9.659   0.176  0.00  0.00    +0.151 HD
ENDROOT
BRANCH   3   9
ATOM      9  C   UNL     1       1.948  -7.965   1.949  0.00  0.00    -0.022 A 
ATOM     10  C   UNL     1       2.441  -7.154   0.944  0.00  0.00    +0.006 A 
ATOM     11  C   UNL     1       3.755  -6.727   0.982  0.00  0.00    +0.013 A 
ATOM     12  C   UNL     1       4.576  -7.111   2.026  0.00  0.00    +0.055 A 
ATOM     13  C   UNL     1       4.083  -7.921   3.032  0.00  0.00    +0.013 A 
ATOM     14  C   UNL     1       2.768  -8.344   2.996  0.00  0.00    +0.006 A 
BRANCH  12  15
ATOM     15  C   UNL     1       6.009  -6.646   2.067  0.00  0.00    +0.417 C 
ATOM     16  F   UNL     1       6.087  -5.433   2.760  0.00  0.00    -0.166 F 
ATOM     17  F   UNL     1       6.793  -7.606   2.717  0.00  0.00    -0.166 F 
ATOM     18  F   UNL     1       6.479  -6.467   0.761  0.00  0.00    -0.166 F 
ENDBRANCH  12  15
ENDBRANCH   3   9
BRANCH   7  19
ATOM     19  C   UNL     1      -2.568  -6.823  -0.502  0.00  0.00    +0.111 C 
ATOM     20  C   UNL     1      -2.012  -5.674  -1.346  0.00  0.00    +0.025 C 
ENDBRANCH   7  19
BRANCH   2  21
ATOM     21  C   UNL     1      -0.173  -6.746   3.697  0.00  0.00    +0.339 C 
ATOM     22  O   UNL     1       0.765  -6.000   3.910  0.00  0.00    -0.245 OA
BRANCH  21  23
ATOM     23  O   UNL     1      -1.036  -7.045   4.690  0.00  0.00    -0.462 OA
BRANCH  23  24
ATOM     24  C   UNL     1      -0.787  -6.452   5.966  0.00  0.00    +0.229 C 
ATOM     25  C   UNL     1      -1.862  -6.905   6.957  0.00  0.00    +0.048 C 
ENDBRANCH  23  24
ENDBRANCH  21  23
ENDBRANCH   2  21
BRANCH   1  26
ATOM     26  C   UNL     1      -2.212  -5.709   2.039  0.00  0.00    +0.136 C 
BRANCH  26  32
ATOM     27  C   UNL     1      -1.006  -0.555   0.846  0.00  0.00    +0.216 C 
ATOM     28  O   UNL     1      -1.887   0.279   0.829  0.00  0.00    -0.276 OA
ATOM     29  N   UNL     1      -1.304  -1.854   0.649  0.00  0.00    -0.296 N 
ATOM     30  C   UNL     1      -0.241  -2.866   0.553  0.00  0.00    +0.123 C 
ATOM     31  C   UNL     1      -0.568  -4.008   1.522  0.00  0.00    +0.104 C 
ATOM     32  N   UNL     1      -1.923  -4.504   1.250  0.00  0.00    -0.294 NA
ATOM     33  C   UNL     1      -2.930  -3.462   1.494  0.00  0.00    +0.107 C 
ATOM     34  C   UNL     1      -2.701  -2.299   0.530  0.00  0.00    +0.087 C 
ATOM     35  C   UNL     1      -3.640  -1.145   0.887  0.00  0.00    +0.029 C 
BRANCH  27  37
ATOM     36  C   UNL     1       0.484   1.379   1.278  0.00  0.00    +0.013 C 
ATOM     37  C   UNL     1       0.422  -0.137   1.087  0.00  0.00    +0.092 C 
ENDBRANCH  27  37
ENDBRANCH  26  32
ENDBRANCH   1  26
TORSDOF 9
