REMARK  Name = ZINC35070298
REMARK  13 active torsions:
REMARK  status: ('A' for Active; 'I' for Inactive)
REMARK    1  A    between atoms: C_1  and  C_2
REMARK    2  A    between atoms: C_2  and  N_3
REMARK    3  A    between atoms: N_6  and  C_7
REMARK    4  A    between atoms: N_6  and  C_12
REMARK    5  A    between atoms: C_7  and  C_8
REMARK    6  A    between atoms: C_8  and  N_9
REMARK    7  A    between atoms: N_9  and  C_10
REMARK    8  A    between atoms: N_9  and  C_11
REMARK    9  A    between atoms: C_12  and  C_14
REMARK   10  A    between atoms: C_12  and  C_15
REMARK   11  A    between atoms: N_25  and  C_26
REMARK   12  A    between atoms: C_29  and  C_33
REMARK   13  A    between atoms: C_31  and  C_32
REMARK                            x       y       z     vdW  Elec       q    Type
REMARK                         _______ _______ _______ _____ _____    ______ ____
ROOT
ATOM      1  C   UNL     1       3.090  -0.518  -2.992  0.00  0.00    +0.138 A 
ATOM      2  N   UNL     1       3.322  -0.615  -1.719  0.00  0.00    -0.231 NA
ATOM      3  C   UNL     1       4.328   0.075  -1.125  0.00  0.00    +0.078 A 
ATOM      4  C   UNL     1       4.579  -0.028   0.245  0.00  0.00    +0.028 A 
ATOM      5  C   UNL     1       5.611   0.690   0.805  0.00  0.00    +0.002 A 
ATOM      6  C   UNL     1       6.407   1.518   0.025  0.00  0.00    +0.001 A 
ATOM      7  C   UNL     1       6.179   1.638  -1.328  0.00  0.00    +0.015 A 
ATOM      8  C   UNL     1       5.140   0.918  -1.915  0.00  0.00    +0.065 A 
ATOM      9  C   UNL     1       4.851   1.006  -3.354  0.00  0.00    +0.266 A 
ATOM     10  O   UNL     1       5.513   1.714  -4.090  0.00  0.00    -0.267 OA
ATOM     11  N   UNL     1       3.824   0.264  -3.829  0.00  0.00    -0.263 N 
ENDROOT
BRANCH  11  12
ATOM     12  C   UNL     1       3.510   0.306  -5.194  0.00  0.00    +0.054 A 
ATOM     13  C   UNL     1       2.718   1.333  -5.694  0.00  0.00    +0.027 A 
ATOM     14  C   UNL     1       2.411   1.372  -7.039  0.00  0.00    +0.005 A 
ATOM     15  C   UNL     1       2.890   0.391  -7.889  0.00  0.00    -0.050 A 
ATOM     16  C   UNL     1       3.677  -0.632  -7.394  0.00  0.00    +0.008 A 
ATOM     17  C   UNL     1       3.993  -0.674  -6.050  0.00  0.00    -0.026 A 
ATOM     18  C   UNL     1       4.857  -1.785  -5.512  0.00  0.00    +0.046 C 
ATOM     19  C   UNL     1       2.552   0.437  -9.357  0.00  0.00    +0.044 C 
ENDBRANCH  11  12
BRANCH   1  20
ATOM     20  C   UNL     1       1.953  -1.318  -3.575  0.00  0.00    +0.141 C 
ATOM     21  C   UNL     1       0.769  -0.391  -3.858  0.00  0.00    +0.036 C 
BRANCH  20  25
ATOM     22  N   UNL     1       1.035  -0.705  -1.047  0.00  0.00    -0.299 N 
ATOM     23  C   UNL     1       1.148  -2.006  -1.380  0.00  0.00    +0.303 C 
ATOM     24  O   UNL     1       0.892  -2.867  -0.561  0.00  0.00    -0.253 OA
ATOM     25  N   UNL     1       1.544  -2.352  -2.620  0.00  0.00    -0.278 N 
ATOM     26  H   UNL     1       1.313  -0.018  -1.673  0.00  0.00    +0.150 HD
BRANCH  22  28
ATOM     27  C   UNL     1       0.474   1.198   0.384  0.00  0.00    +0.024 C 
ATOM     28  C   UNL     1       0.494  -0.327   0.261  0.00  0.00    +0.102 C 
ENDBRANCH  22  28
BRANCH  25  29
ATOM     29  C   UNL     1       1.567  -3.763  -3.015  0.00  0.00    +0.091 C 
BRANCH  29  30
ATOM     30  C   UNL     1       0.214  -4.146  -3.617  0.00  0.00    -0.060 C 
BRANCH  30  31
ATOM     31  N   UNL     1       0.236  -5.560  -4.013  0.00  0.00    +0.377 N 
ATOM     32  C   UNL     1       0.381  -6.401  -2.817  0.00  0.00    -0.097 C 
ATOM     33  C   UNL     1      -1.018  -5.897  -4.699  0.00  0.00    -0.097 C 
ATOM     34  H   UNL     1       1.014  -5.723  -4.635  0.00  0.00    -0.083 HD
ENDBRANCH  30  31
ENDBRANCH  29  30
ENDBRANCH  25  29
ENDBRANCH  20  25
ENDBRANCH   1  20
TORSDOF 7
