REMARK  Name = ZINC09812543
REMARK  4 active torsions:
REMARK  status: ('A' for Active; 'I' for Inactive)
REMARK    1  A    between atoms: C_10  and  N_12
REMARK    2  A    between atoms: N_12  and  S_13
REMARK    3  A    between atoms: S_13  and  C_16
REMARK    4  A    between atoms: C_18  and  C_23
REMARK                            x       y       z     vdW  Elec       q    Type
REMARK                         _______ _______ _______ _____ _____    ______ ____
ROOT
ATOM      1  C   UNL     1      -0.399   6.789   0.707  0.00  0.00    +0.124 A 
ATOM      2  C   UNL     1       0.518   7.667   0.169  0.00  0.00    +0.043 A 
ATOM      3  C   UNL     1       1.874   7.336   0.158  0.00  0.00    +0.039 A 
ATOM      4  C   UNL     1       2.294   6.116   0.693  0.00  0.00    +0.014 A 
ATOM      5  C   UNL     1       1.368   5.247   1.228  0.00  0.00    +0.023 A 
ATOM      6  C   UNL     1       0.024   5.583   1.241  0.00  0.00    +0.067 A 
ATOM      7 CL   UNL     1      -1.136   4.486   1.923  0.00  0.00    -0.082 Cl
ENDROOT
BRANCH   3   8
ATOM      8  C   UNL     1       2.862   8.273  -0.417  0.00  0.00    +0.251 C 
ATOM      9  O   UNL     1       2.543   9.006  -1.333  0.00  0.00    -0.270 OA
ATOM     10  N   UNL     1       4.116   8.315   0.074  0.00  0.00    -0.257 N 
ATOM     11  C   UNL     1       4.549   7.388   1.131  0.00  0.00    +0.210 C 
ATOM     12  C   UNL     1       5.377   8.137   2.138  0.00  0.00    +0.235 C 
ATOM     13  O   UNL     1       5.396   7.766   3.293  0.00  0.00    -0.274 OA
ATOM     14  N   UNL     1       6.095   9.216   1.775  0.00  0.00    -0.283 N 
ATOM     15  C   UNL     1       6.052   9.694   0.460  0.00  0.00    +0.055 A 
ATOM     16  C   UNL     1       5.050   9.247  -0.403  0.00  0.00    +0.058 A 
ATOM     17  C   UNL     1       4.987   9.720  -1.701  0.00  0.00    +0.025 A 
ATOM     18  C   UNL     1       5.925  10.637  -2.143  0.00  0.00    +0.002 A 
ATOM     19  C   UNL     1       6.921  11.078  -1.292  0.00  0.00    +0.002 A 
ATOM     20  C   UNL     1       6.988  10.610   0.008  0.00  0.00    +0.025 A 
ATOM     21  H   UNL     1       6.649   9.668   2.431  0.00  0.00    +0.155 HD
ENDBRANCH   3   8
BRANCH   1  22
ATOM     22  S   UNL     1      -2.111   7.205   0.722  0.00  0.00    +0.060 S 
ATOM     23  O   UNL     1      -2.201   8.569   0.333  0.00  0.00    -0.153 OA
ATOM     24  O   UNL     1      -2.634   6.729   1.955  0.00  0.00    -0.153 OA
BRANCH  22  25
ATOM     25  N   UNL     1      -2.840   6.322  -0.474  0.00  0.00    -0.183 NA
ATOM     26  H   UNL     1      -3.060   6.741  -1.321  0.00  0.00    +0.149 HD
BRANCH  25  36
ATOM     27  C   UNL     1      -1.015   2.599  -3.150  0.00  0.00    +0.000 A 
ATOM     28  C   UNL     1      -0.416   3.674  -2.519  0.00  0.00    +0.000 A 
ATOM     29  C   UNL     1      -1.127   4.407  -1.592  0.00  0.00    +0.005 A 
ATOM     30  C   UNL     1      -2.441   4.074  -1.286  0.00  0.00    -0.026 A 
ATOM     31  C   UNL     1      -3.041   3.011  -1.923  0.00  0.00    -0.043 A 
ATOM     32  C   UNL     1      -2.321   2.269  -2.850  0.00  0.00    +0.004 A 
ATOM     33  C   UNL     1      -4.468   2.608  -1.657  0.00  0.00    +0.035 C 
ATOM     34  C   UNL     1      -4.960   3.211  -0.344  0.00  0.00    +0.007 C 
ATOM     35  C   UNL     1      -4.668   4.716  -0.363  0.00  0.00    +0.025 C 
ATOM     36  C   UNL     1      -3.153   4.908  -0.253  0.00  0.00    +0.107 C 
ENDBRANCH  25  36
ENDBRANCH  22  25
ENDBRANCH   1  22
TORSDOF 4
