REMARK  Name = ZINC20082464
REMARK  10 active torsions:
REMARK  status: ('A' for Active; 'I' for Inactive)
REMARK    1  A    between atoms: C_1  and  C_2
REMARK    2  A    between atoms: C_2  and  C_3
REMARK    3  A    between atoms: C_10  and  C_15
REMARK    4  A    between atoms: C_15  and  C_17
REMARK    5  A    between atoms: C_15  and  N_27
REMARK    6  A    between atoms: N_21  and  C_22
REMARK    7  A    between atoms: N_27  and  C_28
REMARK    8  A    between atoms: N_27  and  C_34
REMARK    9  A    between atoms: C_28  and  C_29
REMARK   10  A    between atoms: C_34  and  C_35
REMARK                            x       y       z     vdW  Elec       q    Type
REMARK                         _______ _______ _______ _____ _____    ______ ____
ROOT
ATOM      1  C   UNL     1      -1.737   7.322  -0.035  0.00  0.00    +0.163 C 
ENDROOT
BRANCH   1   9
ATOM      2  C   UNL     1       1.948   2.355   0.135  0.00  0.00    -0.047 A 
ATOM      3  C   UNL     1       0.934   1.412   0.236  0.00  0.00    +0.005 A 
ATOM      4  C   UNL     1      -0.388   1.801   0.259  0.00  0.00    +0.026 A 
ATOM      5  C   UNL     1      -0.711   3.152   0.191  0.00  0.00    +0.049 A 
ATOM      6  C   UNL     1       0.320   4.105   0.088  0.00  0.00    -0.001 A 
ATOM      7  C   UNL     1       1.654   3.687   0.061  0.00  0.00    +0.013 A 
ATOM      8  C   UNL     1      -0.031   5.524   0.012  0.00  0.00    +0.021 A 
ATOM      9  C   UNL     1      -1.342   5.870   0.043  0.00  0.00    +0.042 A 
ATOM     10  C   UNL     1      -2.337   4.875   0.146  0.00  0.00    +0.254 A 
ATOM     11  O   UNL     1      -3.510   5.208   0.172  0.00  0.00    -0.268 OA
ATOM     12  N   UNL     1      -2.025   3.569   0.217  0.00  0.00    -0.322 N 
ATOM     13  H   UNL     1      -2.835   2.830   0.298  0.00  0.00    +0.169 HD
BRANCH   2  15
ATOM     14  C   UNL     1       3.815   1.660  -1.342  0.00  0.00    +0.009 C 
ATOM     15  C   UNL     1       3.386   1.905   0.106  0.00  0.00    +0.032 C 
ENDBRANCH   2  15
ENDBRANCH   1   9
BRANCH   1  16
ATOM     16  C   UNL     1      -2.540   7.690   1.186  0.00  0.00    +0.173 A 
ATOM     17  N   UNL     1      -3.773   7.331   1.449  0.00  0.00    -0.111 NA
ATOM     18  N   UNL     1      -4.104   7.844   2.584  0.00  0.00    -0.023 NA
ATOM     19  N   UNL     1      -3.114   8.521   3.052  0.00  0.00    -0.044 NA
ATOM     20  N   UNL     1      -2.129   8.446   2.221  0.00  0.00    -0.224 N 
BRANCH  20  21
ATOM     21  C   UNL     1      -0.812   9.070   2.374  0.00  0.00    +0.111 C 
ATOM     22  C   UNL     1      -0.086   8.476   3.599  0.00  0.00    +0.027 C 
ATOM     23  C   UNL     1       0.668   9.683   4.214  0.00  0.00    +0.002 C 
ATOM     24  C   UNL     1      -0.336  10.847   4.023  0.00  0.00    +0.002 C 
ATOM     25  C   UNL     1      -0.971  10.576   2.643  0.00  0.00    +0.027 C 
ENDBRANCH  20  21
ENDBRANCH   1  16
BRANCH   1  26
ATOM     26  N   UNL     1      -2.547   7.546  -1.239  0.00  0.00    -0.277 NA
BRANCH  26  27
ATOM     27  C   UNL     1      -1.872   7.019  -2.433  0.00  0.00    +0.160 C 
BRANCH  27  28
ATOM     28  C   UNL     1      -2.142   5.541  -2.550  0.00  0.00    +0.119 A 
ATOM     29  C   UNL     1      -3.250   4.982  -3.068  0.00  0.00    +0.046 A 
ATOM     30  C   UNL     1      -3.082   3.581  -2.981  0.00  0.00    +0.041 A 
ATOM     31  C   UNL     1      -1.881   3.367  -2.414  0.00  0.00    +0.195 A 
ATOM     32  O   UNL     1      -1.313   4.558  -2.161  0.00  0.00    -0.467 OA
ENDBRANCH  27  28
ENDBRANCH  26  27
BRANCH  26  33
ATOM     33  C   UNL     1      -2.867   8.971  -1.402  0.00  0.00    +0.128 C 
BRANCH  33  34
ATOM     34  C   UNL     1      -4.029   9.329  -0.512  0.00  0.00    +0.004 A 
ATOM     35  C   UNL     1      -4.023   9.960   0.688  0.00  0.00    +0.012 A 
ATOM     36  C   UNL     1      -5.225  10.187   1.332  0.00  0.00    +0.008 A 
ATOM     37  C   UNL     1      -6.374   9.771   0.746  0.00  0.00    +0.045 A 
ATOM     38  S   UNL     1      -5.772   9.039  -0.768  0.00  0.00    -0.100 S 
ENDBRANCH  33  34
ENDBRANCH  26  33
ENDBRANCH   1  26
TORSDOF 9
