REMARK  Name = ZINC13729968
REMARK  13 active torsions:
REMARK  status: ('A' for Active; 'I' for Inactive)
REMARK    1  A    between atoms: C_1  and  C_2
REMARK    2  A    between atoms: C_2  and  O_3
REMARK    3  A    between atoms: O_3  and  C_4
REMARK    4  A    between atoms: C_8  and  C_19
REMARK    5  A    between atoms: C_9  and  O_10
REMARK    6  A    between atoms: O_10  and  C_11
REMARK    7  A    between atoms: C_11  and  C_12
REMARK    8  A    between atoms: C_19  and  N_57
REMARK    9  A    between atoms: C_20  and  C_21
REMARK   10  A    between atoms: C_20  and  N_57
REMARK   11  A    between atoms: C_21  and  N_22
REMARK   12  A    between atoms: N_22  and  C_23
REMARK   13  A    between atoms: C_26  and  N_29
REMARK                            x       y       z     vdW  Elec       q    Type
REMARK                         _______ _______ _______ _____ _____    ______ ____
ROOT
ATOM      1  C   UNL     1       1.174   2.087   0.002  0.00  0.00    +0.162 A 
ATOM      2  C   UNL     1      -0.017   1.378   0.010  0.00  0.00    +0.049 A 
ATOM      3  C   UNL     1       0.002  -0.004   0.002  0.00  0.00    +0.004 A 
ATOM      4  C   UNL     1       1.207  -0.682  -0.013  0.00  0.00    +0.005 A 
ATOM      5  C   UNL     1       2.398   0.019  -0.021  0.00  0.00    -0.019 A 
ATOM      6  C   UNL     1       2.386   1.405  -0.014  0.00  0.00    +0.164 A 
ENDROOT
BRANCH   1   7
ATOM      7  O   UNL     1       1.157   3.447   0.009  0.00  0.00    -0.489 OA
BRANCH   7   9
ATOM      8  C   UNL     1       0.058   5.599   0.030  0.00  0.00    +0.048 C 
ATOM      9  C   UNL     1      -0.124   4.080   0.024  0.00  0.00    +0.226 C 
ENDBRANCH   7   9
ENDBRANCH   1   7
BRANCH   6  10
ATOM     10  O   UNL     1       3.557   2.096  -0.022  0.00  0.00    -0.483 OA
BRANCH  10  11
ATOM     11  C   UNL     1       4.103   2.433  -1.299  0.00  0.00    +0.267 C 
BRANCH  11  12
ATOM     12  C   UNL     1       5.391   3.192  -1.111  0.00  0.00    +0.025 A 
ATOM     13  C   UNL     1       5.857   3.458   0.163  0.00  0.00    +0.010 A 
ATOM     14  C   UNL     1       7.042   4.149   0.336  0.00  0.00    +0.001 A 
ATOM     15  C   UNL     1       7.757   4.584  -0.765  0.00  0.00    +0.003 A 
ATOM     16  C   UNL     1       7.290   4.323  -2.039  0.00  0.00    +0.039 A 
ATOM     17  C   UNL     1       6.106   3.626  -2.214  0.00  0.00    +0.130 A 
ATOM     18  F   UNL     1       5.649   3.371  -3.459  0.00  0.00    -0.205 F 
ENDBRANCH  11  12
ENDBRANCH  10  11
ENDBRANCH   6  10
BRANCH   5  19
ATOM     19  C   UNL     1       3.709  -0.723  -0.038  0.00  0.00    -0.043 C 
BRANCH  19  20
ATOM     20  N   UNL     1       4.263  -0.757   1.329  0.00  0.00    +0.383 N 
ATOM     21  H   UNL     1       3.599  -1.235   1.951  0.00  0.00    -0.085 HD
ATOM     22  H   UNL     1       4.410   0.203   1.659  0.00  0.00    -0.085 HD
BRANCH  20  23
ATOM     23  C   UNL     1       5.549  -1.480   1.343  0.00  0.00    -0.063 C 
BRANCH  23  24
ATOM     24  C   UNL     1       6.098  -1.499   2.771  0.00  0.00    +0.082 C 
BRANCH  24  25
ATOM     25  N   UNL     1       7.376  -2.215   2.794  0.00  0.00    -0.346 N 
ATOM     26  H   UNL     1       7.738  -2.585   1.974  0.00  0.00    +0.146 HD
BRANCH  25  27
ATOM     27  C   UNL     1       8.072  -2.363   3.995  0.00  0.00    +0.027 A 
ATOM     28  C   UNL     1       7.557  -1.828   5.169  0.00  0.00    +0.025 A 
ATOM     29  C   UNL     1       8.245  -1.982   6.357  0.00  0.00    +0.034 A 
ATOM     30  C   UNL     1       9.451  -2.658   6.376  0.00  0.00    +0.126 A 
ATOM     31  C   UNL     1       9.970  -3.187   5.208  0.00  0.00    +0.034 A 
ATOM     32  C   UNL     1       9.284  -3.042   4.019  0.00  0.00    +0.025 A 
BRANCH  30  33
ATOM     33  N   UNL     1      10.188  -2.816   7.650  0.00  0.00    +0.056 N 
ATOM     34  O   UNL     1      11.251  -3.411   7.668  0.00  0.00    -0.126 OA
ATOM     35  O   UNL     1       9.733  -2.350   8.679  0.00  0.00    -0.126 OA
ENDBRANCH  30  33
ENDBRANCH  25  27
ENDBRANCH  24  25
ENDBRANCH  23  24
ENDBRANCH  20  23
ENDBRANCH  19  20
ENDBRANCH   5  19
TORSDOF 12
