REMARK  Name = ZINC01925337
REMARK  10 active torsions:
REMARK  status: ('A' for Active; 'I' for Inactive)
REMARK    1  A    between atoms: C_1  and  C_2
REMARK    2  A    between atoms: C_2  and  C_4
REMARK    3  A    between atoms: C_2  and  O_14
REMARK    4  A    between atoms: N_6  and  C_7
REMARK    5  A    between atoms: O_14  and  C_15
REMARK    6  A    between atoms: C_25  and  C_26
REMARK    7  A    between atoms: C_29  and  C_32
REMARK    8  A    between atoms: C_32  and  C_33
REMARK    9  A    between atoms: C_32  and  C_34
REMARK   10  A    between atoms: C_32  and  C_35
REMARK                            x       y       z     vdW  Elec       q    Type
REMARK                         _______ _______ _______ _____ _____    ______ ____
ROOT
ATOM      1  C   UNL     1       3.804  -6.281  -0.389  0.00  0.00    +0.212 A 
ATOM      2  C   UNL     1       3.973  -6.538  -1.774  0.00  0.00    +0.235 A 
ATOM      3  O   UNL     1       4.057  -5.628  -2.582  0.00  0.00    -0.283 OA
ATOM      4  C   UNL     1       4.042  -7.949  -2.198  0.00  0.00    +0.069 A 
ATOM      5  C   UNL     1       4.207  -8.295  -3.539  0.00  0.00    +0.035 A 
ATOM      6  C   UNL     1       4.268  -9.625  -3.896  0.00  0.00    +0.042 A 
ATOM      7  C   UNL     1       4.165 -10.615  -2.927  0.00  0.00    +0.023 A 
ATOM      8  C   UNL     1       4.002 -10.285  -1.599  0.00  0.00    +0.048 A 
ATOM      9  C   UNL     1       3.939  -8.949  -1.218  0.00  0.00    +0.140 A 
ATOM     10  O   UNL     1       3.780  -8.607   0.077  0.00  0.00    -0.451 OA
ATOM     11  C   UNL     1       3.720  -7.327   0.481  0.00  0.00    +0.181 A 
ATOM     12 CL   UNL     1       4.473 -10.065  -5.562  0.00  0.00    -0.084 Cl
ENDROOT
BRANCH  11  13
ATOM     13  C   UNL     1       3.551  -7.043   1.919  0.00  0.00    +0.021 A 
ATOM     14  C   UNL     1       2.571  -6.144   2.346  0.00  0.00    +0.012 A 
ATOM     15  C   UNL     1       2.415  -5.888   3.693  0.00  0.00    +0.005 A 
ATOM     16  C   UNL     1       3.235  -6.510   4.618  0.00  0.00    -0.042 A 
ATOM     17  C   UNL     1       4.211  -7.398   4.202  0.00  0.00    +0.005 A 
ATOM     18  C   UNL     1       4.374  -7.668   2.859  0.00  0.00    +0.012 A 
BRANCH  16  19
ATOM     19  C   UNL     1       3.063  -6.220   6.087  0.00  0.00    -0.013 C 
ATOM     20  C   UNL     1       4.361  -5.634   6.646  0.00  0.00    +0.015 C 
ATOM     21  C   UNL     1       1.925  -5.214   6.278  0.00  0.00    +0.015 C 
ATOM     22  C   UNL     1       2.727  -7.516   6.827  0.00  0.00    +0.015 C 
ENDBRANCH  16  19
ENDBRANCH  11  13
BRANCH   1  23
ATOM     23  O   UNL     1       3.733  -5.002   0.068  0.00  0.00    -0.473 OA
BRANCH  23  25
ATOM     24  C   UNL     1       5.671  -3.768  -0.681  0.00  0.00    +0.062 C 
ATOM     25  C   UNL     1       4.952  -4.402   0.511  0.00  0.00    +0.256 C 
BRANCH  25  26
ATOM     26  C   UNL     1       4.647  -3.341   1.537  0.00  0.00    +0.258 C 
ATOM     27  O   UNL     1       3.495  -3.057   1.790  0.00  0.00    -0.271 OA
ATOM     28  N   UNL     1       5.653  -2.708   2.172  0.00  0.00    -0.282 N 
ATOM     29  H   UNL     1       6.573  -2.885   1.920  0.00  0.00    +0.155 HD
BRANCH  28  30
ATOM     30  C   UNL     1       5.371  -1.795   3.195  0.00  0.00    +0.034 A 
ATOM     31  C   UNL     1       4.265  -1.988   4.013  0.00  0.00    +0.026 A 
ATOM     32  C   UNL     1       3.989  -1.087   5.022  0.00  0.00    +0.040 A 
ATOM     33  C   UNL     1       4.813   0.009   5.219  0.00  0.00    +0.124 A 
ATOM     34  C   UNL     1       5.916   0.203   4.404  0.00  0.00    +0.040 A 
ATOM     35  C   UNL     1       6.196  -0.696   3.394  0.00  0.00    +0.026 A 
ATOM     36  F   UNL     1       4.541   0.889   6.207  0.00  0.00    -0.205 F 
ENDBRANCH  28  30
ENDBRANCH  25  26
ENDBRANCH  23  25
ENDBRANCH   1  23
TORSDOF 6
