REMARK  Name = ZINC40826409
REMARK  5 active torsions:
REMARK  status: ('A' for Active; 'I' for Inactive)
REMARK    1  A    between atoms: C_1  and  C_2
REMARK    2  A    between atoms: C_6  and  C_7
REMARK    3  A    between atoms: N_14  and  N_15
REMARK    4  A    between atoms: C_16  and  C_18
REMARK    5  A    between atoms: C_23  and  O_24
REMARK                            x       y       z     vdW  Elec       q    Type
REMARK                         _______ _______ _______ _____ _____    ______ ____
ROOT
ATOM      1  C   UNL     1      -0.018   1.503   0.010  0.00  0.00    +0.048 C 
ATOM      2  C   UNL     1       0.002  -0.004   0.002  0.00  0.00    +0.009 A 
ATOM      3  C   UNL     1       0.009  -0.838  -1.123  0.00  0.00    +0.042 A 
ATOM      4  C   UNL     1       0.027  -2.138  -0.673  0.00  0.00    +0.115 A 
ATOM      5  O   UNL     1       0.035  -2.112   0.658  0.00  0.00    -0.454 OA
ATOM      6  C   UNL     1       0.024  -0.830   1.091  0.00  0.00    +0.193 A 
ATOM      7  C   UNL     1       0.033  -3.327  -1.599  0.00  0.00    +0.075 C 
ATOM      8  C   UNL     1      -0.492  -2.903  -2.974  0.00  0.00    +0.014 C 
ATOM      9  C   UNL     1       0.279  -1.685  -3.495  0.00  0.00    +0.058 C 
ATOM     10  C   UNL     1       0.001  -0.512  -2.566  0.00  0.00    +0.070 C 
ATOM     11  N   UNL     1      -0.228   0.686  -3.008  0.00  0.00    -0.184 NA
ENDROOT
BRANCH   6  12
ATOM     12  C   UNL     1       0.032  -0.399   2.493  0.00  0.00    +0.277 C 
ATOM     13  O   UNL     1       0.018   0.786   2.766  0.00  0.00    -0.267 OA
ATOM     14  N   UNL     1       0.054  -1.317   3.480  0.00  0.00    -0.323 N 
ATOM     15  H   UNL     1       0.065  -2.263   3.263  0.00  0.00    +0.145 HD
ATOM     16  H   UNL     1       0.059  -1.032   4.407  0.00  0.00    +0.145 HD
ENDBRANCH   6  12
BRANCH  11  17
ATOM     17  N   UNL     1      -0.223   0.938  -4.386  0.00  0.00    -0.203 N 
ATOM     18  C   UNL     1      -0.460   2.183  -4.845  0.00  0.00    +0.267 C 
ATOM     19  O   UNL     1      -0.678   3.088  -4.062  0.00  0.00    -0.268 OA
ATOM     20  H   UNL     1      -0.049   0.216  -5.010  0.00  0.00    +0.178 HD
BRANCH  18  21
ATOM     21  C   UNL     1      -0.455   2.447  -6.296  0.00  0.00    +0.080 A 
ATOM     22  C   UNL     1      -0.211   1.409  -7.198  0.00  0.00    +0.017 A 
ATOM     23  C   UNL     1      -0.207   1.663  -8.553  0.00  0.00    +0.001 A 
ATOM     24  C   UNL     1      -0.445   2.944  -9.024  0.00  0.00    +0.004 A 
ATOM     25  C   UNL     1      -0.688   3.979  -8.143  0.00  0.00    +0.046 A 
ATOM     26  C   UNL     1      -0.701   3.740  -6.777  0.00  0.00    +0.129 A 
BRANCH  26  27
ATOM     27  O   UNL     1      -0.945   4.755  -5.910  0.00  0.00    -0.506 OA
ATOM     28  H   UNL     1      -0.151   5.227  -5.623  0.00  0.00    +0.292 HD
ENDBRANCH  26  27
ENDBRANCH  18  21
ENDBRANCH  11  17
TORSDOF 4
