REMARK  Name = ZINC49464020
REMARK  5 active torsions:
REMARK  status: ('A' for Active; 'I' for Inactive)
REMARK    1  A    between atoms: C_1  and  C_2
REMARK    2  A    between atoms: C_2  and  C_4
REMARK    3  A    between atoms: C_7  and  S_10
REMARK    4  A    between atoms: S_10  and  N_13
REMARK    5  A    between atoms: N_13  and  C_14
REMARK                            x       y       z     vdW  Elec       q    Type
REMARK                         _______ _______ _______ _____ _____    ______ ____
ROOT
ATOM      1  C   UNL     1      -4.620  -4.199  -2.306  0.00  0.00    +0.049 A 
ATOM      2  C   UNL     1      -3.245  -4.173  -2.094  0.00  0.00    +0.028 A 
ATOM      3  C   UNL     1      -2.416  -5.012  -2.811  0.00  0.00    +0.048 A 
ATOM      4  C   UNL     1      -2.951  -5.882  -3.745  0.00  0.00    +0.133 A 
ATOM      5  C   UNL     1      -4.334  -5.914  -3.971  0.00  0.00    +0.080 A 
ATOM      6  C   UNL     1      -5.167  -5.066  -3.234  0.00  0.00    +0.041 A 
ATOM      7  C   UNL     1      -4.909  -6.824  -4.973  0.00  0.00    +0.250 C 
ATOM      8  O   UNL     1      -5.753  -7.630  -4.632  0.00  0.00    -0.270 OA
ATOM      9  N   UNL     1      -4.516  -6.782  -6.262  0.00  0.00    -0.294 N 
ATOM     10  C   UNL     1      -5.038  -7.778  -7.199  0.00  0.00    +0.108 C 
ATOM     11  C   UNL     1      -5.505  -7.091  -8.482  0.00  0.00    +0.019 C 
ATOM     12  C   UNL     1      -4.370  -6.226  -9.033  0.00  0.00    +0.003 C 
ATOM     13  C   UNL     1      -4.023  -5.133  -8.027  0.00  0.00    +0.023 C 
ATOM     14  C   UNL     1      -3.590  -5.741  -6.699  0.00  0.00    +0.080 C 
ATOM     15  C   UNL     1      -2.184  -6.332  -6.842  0.00  0.00    +0.063 C 
ATOM     16  C   UNL     1      -1.414  -6.147  -5.535  0.00  0.00    +0.231 C 
ATOM     17  O   UNL     1      -2.143  -6.721  -4.450  0.00  0.00    -0.491 OA
ENDROOT
BRANCH   1  18
ATOM     18  N   UNL     1      -5.454  -3.346  -1.573  0.00  0.00    -0.216 N 
ATOM     19  H   UNL     1      -5.840  -2.563  -1.996  0.00  0.00    +0.174 HD
BRANCH  18  20
ATOM     20  S   UNL     1      -5.782  -3.675   0.016  0.00  0.00    +0.072 S 
ATOM     21  O   UNL     1      -6.690  -2.675   0.459  0.00  0.00    -0.150 OA
ATOM     22  O   UNL     1      -4.531  -3.902   0.651  0.00  0.00    -0.150 OA
BRANCH  20  26
ATOM     23  C   UNL     1      -8.028  -7.609   0.136  0.00  0.00    +0.017 A 
ATOM     24  C   UNL     1      -6.642  -7.585   0.323  0.00  0.00    +0.013 A 
ATOM     25  C   UNL     1      -5.966  -6.384   0.285  0.00  0.00    +0.029 A 
ATOM     26  C   UNL     1      -6.655  -5.204   0.063  0.00  0.00    +0.109 A 
ATOM     27  C   UNL     1      -8.027  -5.220  -0.123  0.00  0.00    +0.029 A 
ATOM     28  C   UNL     1      -8.716  -6.414  -0.094  0.00  0.00    +0.013 A 
BRANCH  23  30
ATOM     29  C   UNL     1      -8.011 -10.173   0.422  0.00  0.00    +0.091 C 
ATOM     30  C   UNL     1      -8.757  -8.887   0.174  0.00  0.00    +0.160 C 
ATOM     31  O   UNL     1      -9.958  -8.905   0.007  0.00  0.00    -0.292 OA
ENDBRANCH  23  30
ENDBRANCH  20  26
ENDBRANCH  18  20
ENDBRANCH   1  18
TORSDOF 4
