REMARK  Name = ZINC30822908
REMARK  6 active torsions:
REMARK  status: ('A' for Active; 'I' for Inactive)
REMARK    1  A    between atoms: C_1  and  C_2
REMARK    2  A    between atoms: N_8  and  C_9
REMARK    3  A    between atoms: C_9  and  C_10
REMARK    4  A    between atoms: C_10  and  C_11
REMARK    5  A    between atoms: C_14  and  S_17
REMARK    6  A    between atoms: S_17  and  N_20
REMARK                            x       y       z     vdW  Elec       q    Type
REMARK                         _______ _______ _______ _____ _____    ______ ____
ROOT
ATOM      1  C   UNL     1      -0.018   1.503   0.010  0.00  0.00    +0.064 C 
ATOM      2  C   UNL     1       0.002  -0.004   0.002  0.00  0.00    +0.033 A 
ATOM      3  C   UNL     1       0.006  -0.682  -1.190  0.00  0.00    +0.085 A 
ATOM      4  C   UNL     1       0.026  -2.152  -1.178  0.00  0.00    +0.075 A 
ATOM      5  C   UNL     1       0.041  -2.795   0.041  0.00  0.00    +0.098 A 
ATOM      6  C   UNL     1       0.035  -2.026   1.211  0.00  0.00    +0.254 A 
ATOM      7  O   UNL     1       0.049  -2.587   2.295  0.00  0.00    -0.268 OA
ATOM      8  N   UNL     1       0.022  -0.684   1.167  0.00  0.00    -0.311 N 
ATOM      9  N   UNL     1       0.026  -2.555  -2.491  0.00  0.00    -0.288 N 
ATOM     10  H   UNL     1       0.037  -3.478  -2.790  0.00  0.00    +0.188 HD
ATOM     11  N   UNL     1       0.007  -1.438  -3.330  0.00  0.00    -0.194 N 
ATOM     12  C   UNL     1      -0.006  -0.300  -2.608  0.00  0.00    +0.283 A 
ATOM     13  O   UNL     1      -0.024   0.833  -3.050  0.00  0.00    -0.265 OA
ATOM     14  C   UNL     1       0.002  -1.493  -4.714  0.00  0.00    +0.196 A 
ATOM     15  N   UNL     1      -0.010  -0.504  -5.577  0.00  0.00    -0.221 NA
ATOM     16  C   UNL     1      -0.013  -0.707  -6.912  0.00  0.00    +0.081 A 
ATOM     17  C   UNL     1      -0.025   0.262  -7.942  0.00  0.00    +0.029 A 
ATOM     18  C   UNL     1      -0.028  -0.116  -9.259  0.00  0.00    +0.002 A 
ATOM     19  C   UNL     1      -0.019  -1.453  -9.630  0.00  0.00    +0.001 A 
ATOM     20  C   UNL     1      -0.007  -2.427  -8.649  0.00  0.00    +0.017 A 
ATOM     21  C   UNL     1      -0.004  -2.058  -7.327  0.00  0.00    +0.041 A 
ATOM     22  S   UNL     1       0.016  -2.929  -5.779  0.00  0.00    -0.048 S 
ENDROOT
BRANCH   8  23
ATOM     23  C   UNL     1       0.024   0.067   2.425  0.00  0.00    +0.130 C 
BRANCH  23  24
ATOM     24  C   UNL     1      -1.418   0.308   2.877  0.00  0.00    +0.057 C 
BRANCH  24  25
ATOM     25  C   UNL     1      -1.417   1.080   4.171  0.00  0.00    -0.046 A 
ATOM     26  C   UNL     1      -1.391   0.406   5.378  0.00  0.00    +0.005 A 
ATOM     27  C   UNL     1      -1.390   1.114   6.565  0.00  0.00    +0.029 A 
ATOM     28  C   UNL     1      -1.414   2.496   6.545  0.00  0.00    +0.105 A 
ATOM     29  C   UNL     1      -1.440   3.170   5.339  0.00  0.00    +0.029 A 
ATOM     30  C   UNL     1      -1.437   2.462   4.152  0.00  0.00    +0.005 A 
BRANCH  28  31
ATOM     31  S   UNL     1      -1.414   3.398   8.059  0.00  0.00    +0.056 S 
ATOM     32  O   UNL     1      -1.990   4.666   7.776  0.00  0.00    -0.153 OA
ATOM     33  O   UNL     1      -1.939   2.527   9.051  0.00  0.00    -0.153 OA
BRANCH  31  34
ATOM     34  N   UNL     1       0.168   3.677   8.462  0.00  0.00    -0.204 NA
ATOM     35  H   UNL     1       0.407   4.471   8.965  0.00  0.00    +0.144 HD
ATOM     36  H   UNL     1       0.855   3.046   8.196  0.00  0.00    +0.144 HD
ENDBRANCH  31  34
ENDBRANCH  28  31
ENDBRANCH  24  25
ENDBRANCH  23  24
ENDBRANCH   8  23
TORSDOF 5
