REMARK  Name = ZINC35345451
REMARK  3 active torsions:
REMARK  status: ('A' for Active; 'I' for Inactive)
REMARK    1  A    between atoms: C_3  and  N_9
REMARK    2  A    between atoms: N_9  and  C_10
REMARK    3  A    between atoms: C_15  and  N_16
REMARK                            x       y       z     vdW  Elec       q    Type
REMARK                         _______ _______ _______ _____ _____    ______ ____
ROOT
ATOM      1  C   UNL     1       3.513   3.522  -0.106  0.00  0.00    +0.054 A 
ATOM      2  C   UNL     1       2.281   4.154  -0.077  0.00  0.00    +0.048 A 
ATOM      3  C   UNL     1       2.205   5.543  -0.161  0.00  0.00    +0.039 A 
ATOM      4  C   UNL     1       3.378   6.279  -0.273  0.00  0.00    -0.016 A 
ATOM      5  C   UNL     1       4.607   5.655  -0.302  0.00  0.00    +0.030 A 
ATOM      6  C   UNL     1       4.684   4.272  -0.213  0.00  0.00    +0.046 A 
ATOM      7  C   UNL     1       2.965   7.731  -0.343  0.00  0.00    +0.133 C 
ATOM      8  C   UNL     1       1.454   7.689  -0.255  0.00  0.00    +0.222 C 
ATOM      9  O   UNL     1       0.705   8.643  -0.273  0.00  0.00    -0.275 OA
ATOM     10  N   UNL     1       1.099   6.397  -0.153  0.00  0.00    -0.285 N 
ATOM     11  H   UNL     1       0.181   6.093  -0.083  0.00  0.00    +0.155 HD
ENDROOT
BRANCH   6  12
ATOM     12  N   UNL     1       5.931   3.633  -0.237  0.00  0.00    -0.357 N 
ATOM     13  H   UNL     1       5.982   2.666  -0.178  0.00  0.00    +0.142 HD
ATOM     14  H   UNL     1       6.744   4.157  -0.312  0.00  0.00    +0.142 HD
ENDBRANCH   6  12
BRANCH   1  15
ATOM     15  N   UNL     1       3.583   2.126  -0.021  0.00  0.00    -0.312 N 
ATOM     16  H   UNL     1       4.436   1.677  -0.125  0.00  0.00    +0.152 HD
BRANCH  15  19
ATOM     17  C   UNL     1       0.361   1.065   1.395  0.00  0.00    +0.040 A 
ATOM     18  C   UNL     1       1.506   1.803   1.165  0.00  0.00    +0.027 A 
ATOM     19  C   UNL     1       2.424   1.381   0.213  0.00  0.00    +0.046 A 
ATOM     20  C   UNL     1       2.187   0.216  -0.508  0.00  0.00    +0.042 A 
ATOM     21  C   UNL     1       1.041  -0.518  -0.276  0.00  0.00    +0.055 A 
ATOM     22  C   UNL     1       0.127  -0.095   0.675  0.00  0.00    +0.125 A 
ATOM     23  F   UNL     1      -0.994  -0.815   0.902  0.00  0.00    -0.205 F 
ATOM     24 BR   UNL     1       3.434  -0.362  -1.807  0.00  0.00    -0.048 Br
ENDBRANCH  15  19
ENDBRANCH   1  15
TORSDOF 3
