REMARK  Name = ZINC35165540
REMARK  14 active torsions:
REMARK  status: ('A' for Active; 'I' for Inactive)
REMARK    1  A    between atoms: C_1  and  C_2
REMARK    2  A    between atoms: C_2  and  O_3
REMARK    3  A    between atoms: O_3  and  C_4
REMARK    4  A    between atoms: C_7  and  C_10
REMARK    5  A    between atoms: C_12  and  C_32
REMARK    6  A    between atoms: C_17  and  C_30
REMARK    7  A    between atoms: C_17  and  O_31
REMARK    8  A    between atoms: C_18  and  C_20
REMARK    9  A    between atoms: C_20  and  O_22
REMARK   10  A    between atoms: O_22  and  C_23
REMARK   11  A    between atoms: C_23  and  C_24
REMARK   12  A    between atoms: C_32  and  O_34
REMARK   13  A    between atoms: O_34  and  C_35
REMARK   14  A    between atoms: C_35  and  C_36
REMARK                            x       y       z     vdW  Elec       q    Type
REMARK                         _______ _______ _______ _____ _____    ______ ____
ROOT
ATOM      1  C   UNL     1      -0.581  -5.593  -2.198  0.00  0.00    +0.056 C 
ATOM      2  C   UNL     1       0.312  -6.470  -3.083  0.00  0.00    +0.172 C 
ATOM      3  C   UNL     1       1.510  -6.910  -2.272  0.00  0.00    +0.150 C 
ATOM      4  O   UNL     1       1.821  -8.075  -2.209  0.00  0.00    -0.296 OA
ATOM      5  C   UNL     1       2.309  -5.853  -1.542  0.00  0.00    +0.110 C 
ATOM      6  C   UNL     1       1.345  -4.999  -0.713  0.00  0.00    +0.083 C 
ATOM      7  C   UNL     1       0.247  -4.443  -1.622  0.00  0.00    +0.138 C 
ATOM      8  C   UNL     1       0.713  -5.861   0.382  0.00  0.00    +0.042 C 
ENDROOT
BRANCH   1  12
ATOM      9  C   UNL     1      -3.790  -4.009  -4.532  0.00  0.00    +0.121 A 
ATOM     10  C   UNL     1      -4.017  -5.071  -3.670  0.00  0.00    +0.046 A 
ATOM     11  C   UNL     1      -2.978  -5.582  -2.917  0.00  0.00    +0.007 A 
ATOM     12  C   UNL     1      -1.712  -5.035  -3.021  0.00  0.00    -0.042 A 
ATOM     13  C   UNL     1      -1.484  -3.975  -3.880  0.00  0.00    +0.007 A 
ATOM     14  C   UNL     1      -2.518  -3.465  -4.640  0.00  0.00    +0.046 A 
BRANCH   9  15
ATOM     15  O   UNL     1      -4.811  -3.505  -5.275  0.00  0.00    -0.492 OA
BRANCH  15  17
ATOM     16  C   UNL     1      -7.107  -3.418  -6.023  0.00  0.00    +0.048 C 
ATOM     17  C   UNL     1      -6.093  -4.114  -5.113  0.00  0.00    +0.225 C 
ENDBRANCH  15  17
ENDBRANCH   9  15
ENDBRANCH   1  12
BRANCH   7  18
ATOM     18  C   UNL     1      -0.649  -3.531  -0.825  0.00  0.00    +0.314 C 
ATOM     19  O   UNL     1      -1.828  -3.776  -0.728  0.00  0.00    -0.250 OA
BRANCH  18  20
ATOM     20  O   UNL     1      -0.138  -2.446  -0.222  0.00  0.00    -0.460 OA
BRANCH  20  21
ATOM     21  C   UNL     1      -1.045  -1.625   0.516  0.00  0.00    +0.267 C 
BRANCH  21  22
ATOM     22  C   UNL     1      -0.297  -0.464   1.117  0.00  0.00    -0.010 A 
ATOM     23  C   UNL     1       0.267  -0.580   2.374  0.00  0.00    +0.007 A 
ATOM     24  C   UNL     1       0.953   0.485   2.926  0.00  0.00    +0.000 A 
ATOM     25  C   UNL     1       1.077   1.667   2.220  0.00  0.00    +0.000 A 
ATOM     26  C   UNL     1       0.514   1.784   0.963  0.00  0.00    +0.000 A 
ATOM     27  C   UNL     1      -0.168   0.717   0.409  0.00  0.00    +0.007 A 
ENDBRANCH  21  22
ENDBRANCH  20  21
ENDBRANCH  18  20
ENDBRANCH   7  18
BRANCH   6  28
ATOM     28  O   UNL     1       2.061  -3.917  -0.114  0.00  0.00    -0.388 OA
ATOM     29  H   UNL     1       2.774  -4.196   0.477  0.00  0.00    +0.210 HD
ENDBRANCH   6  28
BRANCH   2  30
ATOM     30  C   UNL     1       0.769  -5.678  -4.281  0.00  0.00    +0.318 C 
ATOM     31  O   UNL     1       1.704  -4.919  -4.183  0.00  0.00    -0.250 OA
BRANCH  30  32
ATOM     32  O   UNL     1       0.138  -5.817  -5.458  0.00  0.00    -0.459 OA
BRANCH  32  33
ATOM     33  C   UNL     1       0.625  -5.036  -6.551  0.00  0.00    +0.267 C 
BRANCH  33  34
ATOM     34  C   UNL     1      -0.200  -5.321  -7.779  0.00  0.00    -0.010 A 
ATOM     35  C   UNL     1       0.168  -6.340  -8.637  0.00  0.00    +0.007 A 
ATOM     36  C   UNL     1      -0.589  -6.602  -9.764  0.00  0.00    +0.000 A 
ATOM     37  C   UNL     1      -1.714  -5.845 -10.032  0.00  0.00    +0.000 A 
ATOM     38  C   UNL     1      -2.083  -4.827  -9.174  0.00  0.00    +0.000 A 
ATOM     39  C   UNL     1      -1.328  -4.568  -8.044  0.00  0.00    +0.007 A 
ENDBRANCH  33  34
ENDBRANCH  32  33
ENDBRANCH  30  32
ENDBRANCH   2  30
TORSDOF 12
