REMARK  Name = ZINC22183932
REMARK  6 active torsions:
REMARK  status: ('A' for Active; 'I' for Inactive)
REMARK    1  A    between atoms: C_3  and  S_26
REMARK    2  A    between atoms: C_6  and  C_7
REMARK    3  A    between atoms: C_8  and  C_9
REMARK    4  A    between atoms: N_11  and  N_12
REMARK    5  A    between atoms: C_13  and  C_15
REMARK    6  A    between atoms: S_26  and  C_27
REMARK                            x       y       z     vdW  Elec       q    Type
REMARK                         _______ _______ _______ _____ _____    ______ ____
ROOT
ATOM      1  C   UNL     1      -2.295  -2.784   0.008  0.00  0.00    +0.253 C 
ATOM      2  O   UNL     1      -3.357  -2.190   0.021  0.00  0.00    -0.269 OA
ATOM      3  N   UNL     1      -1.137  -2.095   0.001  0.00  0.00    -0.231 N 
ATOM      4  H   UNL     1      -0.177  -2.632  -0.010  0.00  0.00    +0.173 HD
ENDROOT
BRANCH   3   5
ATOM      5  N   UNL     1      -1.156  -0.694   0.009  0.00  0.00    -0.229 N 
ATOM      6  C   UNL     1       0.002  -0.004   0.002  0.00  0.00    +0.279 C 
ATOM      7  O   UNL     1       1.064  -0.598  -0.011  0.00  0.00    -0.267 OA
ATOM      8  H   UNL     1      -2.116  -0.157   0.021  0.00  0.00    +0.173 HD
BRANCH   6   9
ATOM      9  C   UNL     1      -0.018   1.467   0.010  0.00  0.00    +0.136 A 
ATOM     10  C   UNL     1       1.155   2.180   0.003  0.00  0.00    +0.081 A 
ATOM     11  S   UNL     1       0.528   3.854   0.018  0.00  0.00    -0.060 S 
ATOM     12  C   UNL     1      -1.211   3.446   0.032  0.00  0.00    +0.162 A 
ATOM     13  N   UNL     1      -1.177   2.129   0.019  0.00  0.00    -0.220 NA
ATOM     14  N   UNL     1      -2.307   4.293   0.048  0.00  0.00    -0.305 N 
ATOM     15  C   UNL     1      -3.200   4.019  -1.087  0.00  0.00    +0.135 C 
ATOM     16  C   UNL     1      -4.425   4.934  -0.998  0.00  0.00    +0.179 C 
ATOM     17  O   UNL     1      -3.994   6.297  -0.964  0.00  0.00    -0.377 OA
ATOM     18  C   UNL     1      -3.123   6.598   0.130  0.00  0.00    +0.179 C 
ATOM     19  C   UNL     1      -1.885   5.701   0.052  0.00  0.00    +0.135 C 
ENDBRANCH   6   9
ENDBRANCH   3   5
BRANCH   1  21
ATOM     20  C   UNL     1      -3.436  -4.937   0.007  0.00  0.00    +0.013 C 
ATOM     21  C   UNL     1      -2.275  -4.246   0.000  0.00  0.00    +0.069 C 
BRANCH  20  27
ATOM     22  C   UNL     1      -2.194  -7.091  -0.022  0.00  0.00    +0.009 A 
ATOM     23  C   UNL     1      -2.180  -8.457  -0.023  0.00  0.00    +0.015 A 
ATOM     24  C   UNL     1      -3.378  -9.168  -0.016  0.00  0.00    +0.016 A 
ATOM     25  C   UNL     1      -4.595  -8.490  -0.002  0.00  0.00    +0.015 A 
ATOM     26  C   UNL     1      -4.618  -7.124   0.006  0.00  0.00    +0.009 A 
ATOM     27  C   UNL     1      -3.416  -6.406  -0.001  0.00  0.00    -0.025 A 
BRANCH  24  28
ATOM     28  S   UNL     1      -3.354 -10.930  -0.025  0.00  0.00    -0.016 S 
BRANCH  28  29
ATOM     29  C   UNL     1      -1.588 -11.345  -0.043  0.00  0.00    +0.448 C 
ATOM     30  F   UNL     1      -0.974 -10.816   1.097  0.00  0.00    -0.160 F 
ATOM     31  F   UNL     1      -1.436 -12.735  -0.052  0.00  0.00    -0.160 F 
ATOM     32  F   UNL     1      -0.994 -10.803  -1.188  0.00  0.00    -0.160 F 
ENDBRANCH  28  29
ENDBRANCH  24  28
ENDBRANCH  20  27
ENDBRANCH   1  21
TORSDOF 6
