REMARK  Name = ZINC02707457
REMARK  4 active torsions:
REMARK  status: ('A' for Active; 'I' for Inactive)
REMARK    1  A    between atoms: C_1  and  S_2
REMARK    2  A    between atoms: S_2  and  C_3
REMARK    3  A    between atoms: C_6  and  C_9
REMARK    4  A    between atoms: C_20  and  C_22
REMARK                            x       y       z     vdW  Elec       q    Type
REMARK                         _______ _______ _______ _____ _____    ______ ____
ROOT
ATOM      1  C   UNL     1       4.192   2.980   2.271  0.00  0.00    +0.172 C 
ATOM      2  C   UNL     1       4.327   1.773   1.377  0.00  0.00    +0.026 C 
ATOM      3  C   UNL     1       4.920   0.648   1.781  0.00  0.00    +0.050 C 
ATOM      4  C   UNL     1       5.020  -0.480   0.824  0.00  0.00    +0.039 A 
ATOM      5  C   UNL     1       5.305  -1.771   1.251  0.00  0.00    +0.033 A 
ATOM      6  C   UNL     1       5.389  -2.792   0.322  0.00  0.00    +0.042 A 
ATOM      7  C   UNL     1       5.192  -2.530  -1.024  0.00  0.00    +0.023 A 
ATOM      8  C   UNL     1       4.908  -1.247  -1.455  0.00  0.00    +0.048 A 
ATOM      9  C   UNL     1       4.819  -0.218  -0.537  0.00  0.00    +0.131 A 
ATOM     10  O   UNL     1       4.539   1.054  -0.920  0.00  0.00    -0.479 OA
ATOM     11  C   UNL     1       3.761   1.845  -0.023  0.00  0.00    +0.241 C 
ATOM     12 CL   UNL     1       5.745  -4.409   0.845  0.00  0.00    -0.084 Cl
ATOM     13  N   UNL     1       5.460   0.509   3.065  0.00  0.00    -0.283 N 
ATOM     14  C   UNL     1       5.621   1.662   3.816  0.00  0.00    +0.219 A 
ATOM     15  N   UNL     1       5.038   2.831   3.450  0.00  0.00    -0.221 N 
ATOM     16  N   UNL     1       5.414   3.776   4.404  0.00  0.00    -0.156 NA
ATOM     17  C   UNL     1       6.173   3.155   5.272  0.00  0.00    +0.247 A 
ATOM     18  N   UNL     1       6.295   1.873   4.912  0.00  0.00    -0.201 NA
ATOM     19  H   UNL     1       5.711  -0.360   3.415  0.00  0.00    +0.155 HD
ENDROOT
BRANCH   1  23
ATOM     20  C   UNL     1       0.117   3.388   3.494  0.00  0.00    +0.008 A 
ATOM     21  C   UNL     1       0.735   4.407   2.779  0.00  0.00    +0.015 A 
ATOM     22  C   UNL     1       2.052   4.272   2.386  0.00  0.00    +0.007 A 
ATOM     23  C   UNL     1       2.755   3.124   2.703  0.00  0.00    -0.019 A 
ATOM     24  C   UNL     1       2.142   2.105   3.409  0.00  0.00    +0.007 A 
ATOM     25  C   UNL     1       0.827   2.236   3.810  0.00  0.00    +0.015 A 
BRANCH  20  27
ATOM     26  C   UNL     1      -1.914   2.008   4.878  0.00  0.00    +0.090 C 
ATOM     27  S   UNL     1      -1.563   3.555   3.998  0.00  0.00    -0.129 S 
ENDBRANCH  20  27
ENDBRANCH   1  23
BRANCH  11  28
ATOM     28  C   UNL     1       2.343   1.336  -0.013  0.00  0.00    +0.034 A 
ATOM     29  C   UNL     1       1.183   2.038   0.002  0.00  0.00    +0.015 A 
ATOM     30  C   UNL     1      -0.016   1.351   0.009  0.00  0.00    +0.008 A 
ATOM     31  C   UNL     1       0.002  -0.004   0.002  0.00  0.00    +0.045 A 
ATOM     32  S   UNL     1       1.754  -0.349  -0.017  0.00  0.00    -0.098 S 
ENDBRANCH  11  28
TORSDOF 3
