REMARK  Name = ZINC39356963
REMARK  5 active torsions:
REMARK  status: ('A' for Active; 'I' for Inactive)
REMARK    1  A    between atoms: C_10  and  C_12
REMARK    2  A    between atoms: C_12  and  N_13
REMARK    3  A    between atoms: C_14  and  C_16
REMARK    4  A    between atoms: C_16  and  N_17
REMARK    5  A    between atoms: C_26  and  C_29
REMARK                            x       y       z     vdW  Elec       q    Type
REMARK                         _______ _______ _______ _____ _____    ______ ____
ROOT
ATOM      1  N   UNL     1       9.170  -0.280  -2.809  0.00  0.00    -0.286 NA
ATOM      2  C   UNL     1       8.656  -0.396  -4.178  0.00  0.00    +0.124 C 
ATOM      3  C   UNL     1       9.112   0.811  -4.975  0.00  0.00    +0.008 A 
ATOM      4  C   UNL     1       8.194   1.750  -5.398  0.00  0.00    +0.008 A 
ATOM      5  C   UNL     1       8.620   2.838  -6.140  0.00  0.00    +0.001 A 
ATOM      6  C   UNL     1       9.958   2.980  -6.457  0.00  0.00    +0.004 A 
ATOM      7  C   UNL     1      10.879   2.043  -6.027  0.00  0.00    +0.046 A 
ATOM      8  C   UNL     1      10.453   0.958  -5.274  0.00  0.00    +0.126 A 
ATOM      9  O   UNL     1      11.357   0.056  -4.803  0.00  0.00    -0.483 OA
ATOM     10  C   UNL     1      11.565   0.079  -3.385  0.00  0.00    +0.220 C 
ATOM     11  C   UNL     1      10.537  -0.778  -2.679  0.00  0.00    +0.134 C 
ENDROOT
BRANCH  10  12
ATOM     12  C   UNL     1      12.943  -0.445  -3.077  0.00  0.00    +0.029 A 
ATOM     13  C   UNL     1      13.572  -1.300  -3.962  0.00  0.00    +0.010 A 
ATOM     14  C   UNL     1      14.837  -1.781  -3.679  0.00  0.00    +0.001 A 
ATOM     15  C   UNL     1      15.474  -1.407  -2.511  0.00  0.00    +0.003 A 
ATOM     16  C   UNL     1      14.848  -0.552  -1.625  0.00  0.00    +0.039 A 
ATOM     17  C   UNL     1      13.583  -0.066  -1.909  0.00  0.00    +0.130 A 
ATOM     18  F   UNL     1      12.972   0.774  -1.046  0.00  0.00    -0.205 F 
ENDBRANCH  10  12
BRANCH   1  19
ATOM     19  C   UNL     1       8.275  -0.944  -1.852  0.00  0.00    +0.180 C 
BRANCH  19  21
ATOM     20  N   UNL     1       5.956  -0.680  -1.033  0.00  0.00    -0.311 N 
ATOM     21  C   UNL     1       6.941  -0.242  -1.841  0.00  0.00    +0.227 C 
ATOM     22  O   UNL     1       6.755   0.718  -2.560  0.00  0.00    -0.274 OA
ATOM     23  H   UNL     1       6.104  -1.447  -0.459  0.00  0.00    +0.149 HD
BRANCH  20  24
ATOM     24  C   UNL     1       4.660   0.003  -1.023  0.00  0.00    +0.140 C 
BRANCH  24  34
ATOM     25  C   UNL     1      -0.017   1.377   0.010  0.00  0.00    +0.000 A 
ATOM     26  C   UNL     1       1.173   2.081   0.002  0.00  0.00    +0.000 A 
ATOM     27  C   UNL     1       2.375   1.402  -0.011  0.00  0.00    +0.006 A 
ATOM     28  C   UNL     1       2.395   0.016  -0.018  0.00  0.00    -0.014 A 
ATOM     29  C   UNL     1       1.208  -0.686  -0.015  0.00  0.00    -0.040 A 
ATOM     30  C   UNL     1       0.002  -0.004   0.002  0.00  0.00    +0.004 A 
ATOM     31  C   UNL     1       1.189  -2.194  -0.035  0.00  0.00    +0.063 C 
ATOM     32  C   UNL     1       2.563  -2.734   0.365  0.00  0.00    +0.165 C 
ATOM     33  O   UNL     1       3.561  -2.055  -0.404  0.00  0.00    -0.370 OA
ATOM     34  C   UNL     1       3.727  -0.688  -0.026  0.00  0.00    +0.165 C 
ENDBRANCH  24  34
ENDBRANCH  20  24
ENDBRANCH  19  21
ENDBRANCH   1  19
TORSDOF 5
