REMARK  Name = ZINC13266911
REMARK  9 active torsions:
REMARK  status: ('A' for Active; 'I' for Inactive)
REMARK    1  A    between atoms: C_1  and  C_2
REMARK    2  A    between atoms: C_5  and  C_8
REMARK    3  A    between atoms: C_8  and  N_9
REMARK    4  A    between atoms: N_9  and  C_10
REMARK    5  A    between atoms: C_11  and  C_13
REMARK    6  A    between atoms: C_13  and  S_14
REMARK    7  A    between atoms: S_14  and  C_15
REMARK    8  A    between atoms: C_19  and  C_32
REMARK    9  A    between atoms: N_25  and  C_26
REMARK                            x       y       z     vdW  Elec       q    Type
REMARK                         _______ _______ _______ _____ _____    ______ ____
ROOT
ATOM      1  C   UNL     1       1.138  -0.590   0.487  0.00  0.00    +0.177 A 
ATOM      2  N   UNL     1       2.300   0.015   0.511  0.00  0.00    -0.223 NA
ATOM      3  C   UNL     1       2.450   1.279   0.049  0.00  0.00    +0.080 A 
ATOM      4  C   UNL     1       3.690   1.923   0.075  0.00  0.00    +0.043 A 
ATOM      5  C   UNL     1       3.797   3.220  -0.410  0.00  0.00    +0.065 A 
ATOM      6  C   UNL     1       2.673   3.882  -0.922  0.00  0.00    +0.016 A 
ATOM      7  C   UNL     1       1.456   3.264  -0.952  0.00  0.00    +0.016 A 
ATOM      8  C   UNL     1       1.326   1.961  -0.470  0.00  0.00    +0.065 A 
ATOM      9  C   UNL     1       0.034   1.258  -0.485  0.00  0.00    +0.267 A 
ATOM     10  O   UNL     1      -0.969   1.790  -0.924  0.00  0.00    -0.267 OA
ATOM     11  N   UNL     1       0.002  -0.004   0.002  0.00  0.00    -0.255 N 
ENDROOT
BRANCH  11  12
ATOM     12  C   UNL     1      -1.204  -0.715   0.010  0.00  0.00    +0.052 A 
ATOM     13  C   UNL     1      -1.559  -1.496  -1.083  0.00  0.00    +0.026 A 
ATOM     14  C   UNL     1      -2.747  -2.200  -1.070  0.00  0.00    +0.002 A 
ATOM     15  C   UNL     1      -3.588  -2.120   0.025  0.00  0.00    +0.000 A 
ATOM     16  C   UNL     1      -3.241  -1.339   1.112  0.00  0.00    +0.002 A 
ATOM     17  C   UNL     1      -2.051  -0.637   1.107  0.00  0.00    +0.026 A 
ENDBRANCH  11  12
BRANCH   5  18
ATOM     18  C   UNL     1       5.107   3.908  -0.386  0.00  0.00    +0.387 C 
ATOM     19  O   UNL     1       6.084   3.338   0.056  0.00  0.00    -0.241 OA
ATOM     20  O   UNL     1       5.215   5.165  -0.855  0.00  0.00    -0.241 OA
ENDBRANCH   5  18
BRANCH   1  21
ATOM     21  S   UNL     1       1.036  -2.236   1.108  0.00  0.00    -0.078 S 
BRANCH  21  22
ATOM     22  C   UNL     1       2.759  -2.495   1.597  0.00  0.00    +0.173 C 
BRANCH  22  25
ATOM     23  N   UNL     1       4.120  -4.296   2.609  0.00  0.00    -0.300 N 
ATOM     24  C   UNL     1       5.279  -3.405   2.520  0.00  0.00    +0.132 C 
ATOM     25  C   UNL     1       2.915  -3.879   2.174  0.00  0.00    +0.226 C 
ATOM     26  O   UNL     1       1.955  -4.617   2.247  0.00  0.00    -0.275 OA
BRANCH  23  27
ATOM     27  C   UNL     1       4.272  -5.641   3.169  0.00  0.00    +0.142 C 
BRANCH  27  32
ATOM     28  C   UNL     1       5.587  -9.354  -1.059  0.00  0.00    +0.044 C 
ATOM     29  C   UNL     1       5.244  -8.386   0.044  0.00  0.00    -0.050 A 
ATOM     30  C   UNL     1       6.252  -7.735   0.731  0.00  0.00    +0.003 A 
ATOM     31  C   UNL     1       5.937  -6.847   1.742  0.00  0.00    +0.005 A 
ATOM     32  C   UNL     1       4.615  -6.609   2.067  0.00  0.00    -0.030 A 
ATOM     33  C   UNL     1       3.607  -7.264   1.383  0.00  0.00    +0.005 A 
ATOM     34  C   UNL     1       3.922  -8.149   0.369  0.00  0.00    +0.003 A 
ENDBRANCH  27  32
ENDBRANCH  23  27
ENDBRANCH  22  25
ENDBRANCH  21  22
ENDBRANCH   1  21
TORSDOF 7
