REMARK  Name = ZINC63362332
REMARK  6 active torsions:
REMARK  status: ('A' for Active; 'I' for Inactive)
REMARK    1  A    between atoms: C_1  and  C_2
REMARK    2  A    between atoms: C_2  and  C_3
REMARK    3  A    between atoms: C_8  and  N_9
REMARK    4  A    between atoms: C_10  and  C_12
REMARK    5  A    between atoms: C_15  and  N_18
REMARK    6  A    between atoms: C_21  and  C_37
REMARK                            x       y       z     vdW  Elec       q    Type
REMARK                         _______ _______ _______ _____ _____    ______ ____
ROOT
ATOM      1  N   UNL     1       7.093   0.484   4.638  0.00  0.00    -0.192 N 
ATOM      2  C   UNL     1       8.437   0.410   4.724  0.00  0.00    +0.253 C 
ATOM      3  O   UNL     1       9.212   0.108   3.842  0.00  0.00    -0.272 OA
ATOM      4  C   UNL     1       8.778   0.782   6.151  0.00  0.00    +0.137 C 
ATOM      5  C   UNL     1       9.467  -0.394   6.852  0.00  0.00    +0.139 C 
ATOM      6  C   UNL     1       9.281  -0.173   8.349  0.00  0.00    -0.034 C 
ATOM      7  C   UNL     1      10.501  -0.144   8.877  0.00  0.00    -0.001 A 
ATOM      8  C   UNL     1      10.959  -0.022  10.270  0.00  0.00    +0.010 A 
ATOM      9  C   UNL     1      12.305  -0.016  10.459  0.00  0.00    +0.001 A 
ATOM     10  C   UNL     1      13.229  -0.117   9.414  0.00  0.00    +0.002 A 
ATOM     11  C   UNL     1      12.896  -0.238   8.104  0.00  0.00    +0.026 A 
ATOM     12  C   UNL     1      11.508  -0.260   7.780  0.00  0.00    +0.043 A 
ATOM     13  N   UNL     1      10.913  -0.383   6.617  0.00  0.00    -0.375 N 
ATOM     14  C   UNL     1       7.932   0.030   8.994  0.00  0.00    +0.052 C 
ATOM     15  C   UNL     1       7.221   1.157   8.217  0.00  0.00    +0.115 C 
ATOM     16  N   UNL     1       7.449   0.941   6.785  0.00  0.00    -0.268 N 
ATOM     17  C   UNL     1       6.540   0.820   5.810  0.00  0.00    +0.316 C 
ATOM     18  O   UNL     1       5.347   0.991   5.972  0.00  0.00    -0.252 OA
ATOM     19  C   UNL     1       9.606   2.067   6.224  0.00  0.00    +0.044 C 
ATOM     20  H   UNL     1      11.347  -0.452   5.752  0.00  0.00    +0.160 HD
ENDROOT
BRANCH   1  24
ATOM     21  C   UNL     1       4.930  -0.223   1.145  0.00  0.00    +0.037 A 
ATOM     22  C   UNL     1       4.279   0.243   2.289  0.00  0.00    +0.015 A 
ATOM     23  C   UNL     1       4.996   0.475   3.441  0.00  0.00    +0.025 A 
ATOM     24  C   UNL     1       6.368   0.247   3.466  0.00  0.00    +0.045 A 
ATOM     25  C   UNL     1       7.020  -0.217   2.329  0.00  0.00    +0.025 A 
ATOM     26  C   UNL     1       6.308  -0.457   1.175  0.00  0.00    +0.015 A 
BRANCH  21  28
ATOM     27  N   UNL     1       2.836  -0.248  -0.120  0.00  0.00    -0.281 N 
ATOM     28  C   UNL     1       4.165  -0.474  -0.092  0.00  0.00    +0.248 C 
ATOM     29  O   UNL     1       4.732  -0.884  -1.086  0.00  0.00    -0.270 OA
ATOM     30  H   UNL     1       2.394   0.139   0.652  0.00  0.00    +0.155 HD
BRANCH  27  36
ATOM     31  C   UNL     1       0.794  -1.042  -1.135  0.00  0.00    -0.026 A 
ATOM     32  C   UNL     1       0.063  -1.355  -2.264  0.00  0.00    +0.005 A 
ATOM     33  C   UNL     1       0.627  -1.208  -3.518  0.00  0.00    +0.000 A 
ATOM     34  C   UNL     1       1.925  -0.747  -3.646  0.00  0.00    +0.002 A 
ATOM     35  C   UNL     1       2.661  -0.431  -2.521  0.00  0.00    +0.023 A 
ATOM     36  C   UNL     1       2.095  -0.572  -1.261  0.00  0.00    +0.037 A 
BRANCH  31  38
ATOM     37  C   UNL     1      -0.416   0.132   0.683  0.00  0.00    +0.009 C 
ATOM     38  C   UNL     1       0.179  -1.203   0.231  0.00  0.00    +0.033 C 
ENDBRANCH  31  38
ENDBRANCH  27  36
ENDBRANCH  21  28
ENDBRANCH   1  24
TORSDOF 4
