REMARK  Name = ZINC31057181
REMARK  8 active torsions:
REMARK  status: ('A' for Active; 'I' for Inactive)
REMARK    1  A    between atoms: N_9  and  C_10
REMARK    2  A    between atoms: C_10  and  C_11
REMARK    3  A    between atoms: C_11  and  C_12
REMARK    4  A    between atoms: C_12  and  N_13
REMARK    5  A    between atoms: C_14  and  C_16
REMARK    6  A    between atoms: N_21  and  C_23
REMARK    7  A    between atoms: C_23  and  C_24
REMARK    8  A    between atoms: C_26  and  C_29
REMARK                            x       y       z     vdW  Elec       q    Type
REMARK                         _______ _______ _______ _____ _____    ______ ____
ROOT
ATOM      1  C   UNL     1      -3.792   2.631  -2.874  0.00  0.00    +0.058 C 
ATOM      2  C   UNL     1      -2.669   3.255  -3.707  0.00  0.00    +0.009 C 
ATOM      3  C   UNL     1      -1.424   2.367  -3.618  0.00  0.00    -0.018 C 
ATOM      4  C   UNL     1      -1.019   2.211  -2.151  0.00  0.00    -0.078 C 
ATOM      5  N   UNL     1      -2.126   1.609  -1.397  0.00  0.00    +0.386 N 
ATOM      6  C   UNL     1      -3.318   2.467  -1.429  0.00  0.00    -0.065 C 
ATOM      7  H   UNL     1      -2.385   0.657  -1.884  0.00  0.00    -0.081 HD
ENDROOT
BRANCH   1   9
ATOM      8  N   UNL     1      -5.595   3.816  -4.084  0.00  0.00    -0.315 N 
ATOM      9  C   UNL     1      -5.002   3.529  -2.908  0.00  0.00    +0.214 C 
ATOM     10  O   UNL     1      -5.442   3.992  -1.878  0.00  0.00    -0.276 OA
ATOM     11  H   UNL     1      -5.195   3.396  -5.019  0.00  0.00    +0.149 HD
BRANCH   8  12
ATOM     12  C   UNL     1      -6.771   4.689  -4.117  0.00  0.00    +0.105 C 
BRANCH  12  13
ATOM     13  C   UNL     1      -7.244   4.853  -5.563  0.00  0.00    +0.037 C 
BRANCH  13  14
ATOM     14  C   UNL     1      -8.473   5.764  -5.597  0.00  0.00    +0.106 C 
BRANCH  14  23
ATOM     15  C   UNL     1      -5.788   7.312  -9.502  0.00  0.00    +0.000 A 
ATOM     16  C   UNL     1      -5.825   7.855  -8.230  0.00  0.00    +0.002 A 
ATOM     17  C   UNL     1      -6.809   7.476  -7.341  0.00  0.00    +0.023 A 
ATOM     18  C   UNL     1      -7.773   6.543  -7.718  0.00  0.00    +0.033 A 
ATOM     19  C   UNL     1      -7.724   5.999  -8.996  0.00  0.00    -0.025 A 
ATOM     20  C   UNL     1      -6.740   6.383  -9.882  0.00  0.00    +0.005 A 
ATOM     21  C   UNL     1      -8.870   5.016  -9.130  0.00  0.00    +0.056 C 
ATOM     22  C   UNL     1      -9.291   4.777  -7.661  0.00  0.00    +0.110 C 
ATOM     23  N   UNL     1      -8.852   6.022  -6.993  0.00  0.00    -0.329 N 
ENDBRANCH  14  23
ENDBRANCH  13  14
ENDBRANCH  12  13
ENDBRANCH   8  12
ENDBRANCH   1   9
BRANCH   5  24
ATOM     24  C   UNL     1      -1.725   1.317  -0.015  0.00  0.00    +0.022 C 
BRANCH  24  25
ATOM     25  C   UNL     1      -0.662   0.248  -0.016  0.00  0.00    +0.211 A 
ATOM     26  N   UNL     1       0.632   0.439  -0.082  0.00  0.00    -0.192 NA
ATOM     27  C   UNL     1       1.183  -0.798  -0.059  0.00  0.00    +0.209 A 
ATOM     28  N   UNL     1       0.197  -1.658   0.019  0.00  0.00    -0.056 NA
ATOM     29  O   UNL     1      -0.864  -1.072   0.044  0.00  0.00    -0.340 OA
BRANCH  27  30
ATOM     30  C   UNL     1       2.624  -1.117  -0.111  0.00  0.00    +0.060 A 
ATOM     31  C   UNL     1       3.239  -2.341  -0.091  0.00  0.00    +0.019 A 
ATOM     32  C   UNL     1       4.613  -2.394  -0.151  0.00  0.00    +0.008 A 
ATOM     33  C   UNL     1       5.317  -1.234  -0.228  0.00  0.00    +0.046 A 
ATOM     34  S   UNL     1       4.019  -0.008  -0.225  0.00  0.00    -0.093 S 
ENDBRANCH  27  30
ENDBRANCH  24  25
ENDBRANCH   5  24
TORSDOF 8
