REMARK  Name = ZINC44713815
REMARK  8 active torsions:
REMARK  status: ('A' for Active; 'I' for Inactive)
REMARK    1  A    between atoms: C_1  and  C_2
REMARK    2  A    between atoms: C_3  and  C_9
REMARK    3  A    between atoms: C_4  and  C_8
REMARK    4  A    between atoms: C_9  and  C_11
REMARK    5  A    between atoms: C_9  and  N_12
REMARK    6  A    between atoms: C_13  and  C_15
REMARK    7  A    between atoms: C_26  and  C_28
REMARK    8  A    between atoms: C_28  and  C_29
REMARK                            x       y       z     vdW  Elec       q    Type
REMARK                         _______ _______ _______ _____ _____    ______ ____
ROOT
ATOM      1  C   UNL     1       2.526  -1.343  -5.213  0.00  0.00    +0.100 C 
ATOM      2  C   UNL     1       1.927  -2.694  -5.663  0.00  0.00    +0.121 C 
ATOM      3  N   UNL     1       1.418  -2.441  -7.031  0.00  0.00    -0.300 N 
ATOM      4  C   UNL     1       2.442  -1.567  -7.650  0.00  0.00    +0.115 C 
ATOM      5  C   UNL     1       2.866  -0.607  -6.520  0.00  0.00    -0.004 C 
ATOM      6  C   UNL     1       2.079   0.696  -6.613  0.00  0.00    -0.010 C 
ATOM      7  C   UNL     1       2.476   1.437  -7.893  0.00  0.00    -0.082 C 
ATOM      8  N   UNL     1       3.918   1.713  -7.873  0.00  0.00    +0.379 N 
ATOM      9  C   UNL     1       4.669   0.452  -7.877  0.00  0.00    -0.082 C 
ATOM     10  C   UNL     1       4.364  -0.330  -6.596  0.00  0.00    -0.010 C 
ATOM     11  C   UNL     1       0.280  -2.902  -7.588  0.00  0.00    +0.220 C 
ATOM     12  O   UNL     1      -0.001  -2.604  -8.730  0.00  0.00    -0.275 OA
ATOM     13  H   UNL     1       4.167   2.254  -8.688  0.00  0.00    -0.086 HD
ATOM     14  H   UNL     1       4.147   2.237  -7.042  0.00  0.00    -0.086 HD
ENDROOT
BRANCH   1  16
ATOM     15  N   UNL     1       1.926   0.317  -3.480  0.00  0.00    -0.308 N 
ATOM     16  C   UNL     1       1.514  -0.559  -4.418  0.00  0.00    +0.219 C 
ATOM     17  O   UNL     1       0.329  -0.716  -4.622  0.00  0.00    -0.275 OA
ATOM     18  H   UNL     1       2.874   0.443  -3.317  0.00  0.00    +0.149 HD
BRANCH  15  19
ATOM     19  C   UNL     1       0.942   1.079  -2.707  0.00  0.00    +0.104 C 
ATOM     20  C   UNL     1       0.475   0.245  -1.513  0.00  0.00    +0.033 C 
BRANCH  19  23
ATOM     21  C   UNL     1      -0.350   3.927  -2.802  0.00  0.00    +0.065 C 
ATOM     22  C   UNL     1       1.012   3.587  -2.254  0.00  0.00    +0.038 A 
ATOM     23  C   UNL     1       1.571   2.356  -2.213  0.00  0.00    +0.015 A 
ATOM     24  C   UNL     1       2.837   2.478  -1.630  0.00  0.00    +0.065 A 
ATOM     25  N   UNL     1       3.031   3.737  -1.332  0.00  0.00    -0.179 NA
ATOM     26  N   UNL     1       1.894   4.458  -1.721  0.00  0.00    -0.281 N 
ATOM     27  H   UNL     1       1.764   5.415  -1.623  0.00  0.00    +0.189 HD
ATOM     28  C   UNL     1       3.810   1.353  -1.387  0.00  0.00    +0.068 C 
ENDBRANCH  19  23
ENDBRANCH  15  19
ENDBRANCH   1  16
BRANCH  11  29
ATOM     29  C   UNL     1      -0.643  -3.788  -6.792  0.00  0.00    +0.131 C 
BRANCH  29  30
ATOM     30  C   UNL     1      -1.833  -4.162  -7.637  0.00  0.00    -0.039 A 
ATOM     31  C   UNL     1      -2.962  -3.364  -7.633  0.00  0.00    +0.005 A 
ATOM     32  C   UNL     1      -4.054  -3.707  -8.408  0.00  0.00    +0.020 A 
ATOM     33  C   UNL     1      -4.017  -4.849  -9.188  0.00  0.00    +0.041 A 
ATOM     34  C   UNL     1      -2.887  -5.647  -9.192  0.00  0.00    +0.020 A 
ATOM     35  C   UNL     1      -1.794  -5.300  -8.421  0.00  0.00    +0.005 A 
ATOM     36 CL   UNL     1      -5.388  -5.281 -10.162  0.00  0.00    -0.084 Cl
ENDBRANCH  29  30
ENDBRANCH  11  29
TORSDOF 5
