REMARK  Name = ZINC03581443
REMARK  9 active torsions:
REMARK  status: ('A' for Active; 'I' for Inactive)
REMARK    1  A    between atoms: C_1  and  C_2
REMARK    2  A    between atoms: C_2  and  O_3
REMARK    3  A    between atoms: O_3  and  C_4
REMARK    4  A    between atoms: C_4  and  C_6
REMARK    5  A    between atoms: C_10  and  N_11
REMARK    6  A    between atoms: C_12  and  C_14
REMARK    7  A    between atoms: C_14  and  C_16
REMARK    8  A    between atoms: C_14  and  S_17
REMARK    9  A    between atoms: S_17  and  C_18
REMARK                            x       y       z     vdW  Elec       q    Type
REMARK                         _______ _______ _______ _____ _____    ______ ____
ROOT
ATOM      1  N   UNL     1      -3.272  10.413   0.848  0.00  0.00    -0.278 N 
ATOM      2  C   UNL     1      -3.852   9.288   0.384  0.00  0.00    +0.231 C 
ATOM      3  O   UNL     1      -5.029   9.288   0.095  0.00  0.00    -0.274 OA
ATOM      4  H   UNL     1      -2.330  10.413   1.079  0.00  0.00    +0.155 HD
ENDROOT
BRANCH   1   9
ATOM      5  C   UNL     1      -3.611  12.811   1.457  0.00  0.00    +0.091 A 
ATOM      6  C   UNL     1      -4.604  13.877   1.509  0.00  0.00    -0.021 A 
ATOM      7  C   UNL     1      -5.843  13.520   1.108  0.00  0.00    -0.004 A 
ATOM      8  S   UNL     1      -5.702  11.813   0.653  0.00  0.00    -0.077 S 
ATOM      9  C   UNL     1      -4.022  11.569   0.995  0.00  0.00    +0.086 A 
ATOM     10  C   UNL     1      -7.072  14.373   1.070  0.00  0.00    +0.043 C 
ATOM     11  C   UNL     1      -6.745  15.703   0.378  0.00  0.00    +0.005 C 
ATOM     12  C   UNL     1      -6.270  16.693   1.437  0.00  0.00    +0.001 C 
ATOM     13  C   UNL     1      -5.515  15.958   2.543  0.00  0.00    +0.005 C 
ATOM     14  C   UNL     1      -4.268  15.286   1.980  0.00  0.00    +0.037 C 
BRANCH   5  15
ATOM     15  C   UNL     1      -2.227  13.043   1.875  0.00  0.00    +0.342 C 
ATOM     16  O   UNL     1      -1.404  13.424   1.065  0.00  0.00    -0.245 OA
BRANCH  15  17
ATOM     17  O   UNL     1      -1.866  12.835   3.158  0.00  0.00    -0.461 OA
BRANCH  17  19
ATOM     18  C   UNL     1      -0.259  12.798   4.987  0.00  0.00    +0.048 C 
ATOM     19  C   UNL     1      -0.477  13.086   3.500  0.00  0.00    +0.229 C 
ENDBRANCH  17  19
ENDBRANCH  15  17
ENDBRANCH   5  15
ENDBRANCH   1   9
BRANCH   2  20
ATOM     20  C   UNL     1      -3.036   8.031   0.224  0.00  0.00    +0.136 C 
ATOM     21  C   UNL     1      -2.231   8.107  -1.076  0.00  0.00    +0.029 C 
BRANCH  20  22
ATOM     22  S   UNL     1      -4.141   6.598   0.166  0.00  0.00    -0.085 S 
BRANCH  22  23
ATOM     23  C   UNL     1      -2.953   5.298   0.132  0.00  0.00    +0.156 C 
ATOM     24  N   UNL     1      -1.655   5.371   0.144  0.00  0.00    -0.164 NA
ATOM     25  N   UNL     1      -0.876   4.208   0.112  0.00  0.00    -0.202 N 
ATOM     26  C   UNL     1       0.592   4.325   0.130  0.00  0.00    +0.134 C 
ATOM     27  C   UNL     1       1.289   3.183   0.803  0.00  0.00    +0.030 C 
ATOM     28  C   UNL     1       1.301   1.908  -0.000  0.00  0.00    +0.099 C 
ATOM     29  C   UNL     1      -0.014   1.212   0.009  0.00  0.00    +0.238 C 
ATOM     30  O   UNL     1       0.002  -0.004   0.002  0.00  0.00    -0.274 OA
ATOM     31  N   UNL     1      -1.174   1.786   0.018  0.00  0.00    -0.157 NA
ATOM     32  C   UNL     1      -1.550   3.038   0.065  0.00  0.00    +0.175 C 
ATOM     33  S   UNL     1      -3.216   3.537   0.069  0.00  0.00    -0.027 S 
ENDBRANCH  22  23
ENDBRANCH  20  22
ENDBRANCH   2  20
TORSDOF 7
