REMARK  Name = ZINC09379942
REMARK  19 active torsions:
REMARK  status: ('A' for Active; 'I' for Inactive)
REMARK    1  A    between atoms: C_1  and  C_2
REMARK    2  A    between atoms: C_2  and  O_3
REMARK    3  A    between atoms: O_3  and  C_4
REMARK    4  A    between atoms: C_6  and  C_11
REMARK    5  A    between atoms: C_9  and  O_10
REMARK    6  A    between atoms: C_13  and  C_23
REMARK    7  A    between atoms: C_14  and  O_22
REMARK    8  A    between atoms: N_17  and  C_18
REMARK    9  A    between atoms: C_18  and  C_19
REMARK   10  A    between atoms: C_19  and  N_72
REMARK   11  A    between atoms: C_20  and  N_72
REMARK   12  A    between atoms: C_21  and  N_72
REMARK   13  A    between atoms: C_23  and  C_25
REMARK   14  A    between atoms: C_28  and  O_32
REMARK   15  A    between atoms: C_30  and  C_31
REMARK   16  A    between atoms: O_32  and  C_33
REMARK   17  A    between atoms: C_33  and  C_34
REMARK   18  A    between atoms: C_34  and  C_35
REMARK   19  A    between atoms: C_34  and  C_36
REMARK                            x       y       z     vdW  Elec       q    Type
REMARK                         _______ _______ _______ _____ _____    ______ ____
ROOT
ATOM      1  C   UNL     1       2.253   3.984  -0.078  0.00  0.00    +0.144 C 
ATOM      2  C   UNL     1       3.653   3.417  -0.042  0.00  0.00    +0.071 C 
ATOM      3  C   UNL     1       4.501   4.461  -0.191  0.00  0.00    +0.188 C 
ATOM      4  C   UNL     1       3.718   5.706  -0.335  0.00  0.00    +0.282 C 
ATOM      5  O   UNL     1       4.193   6.814  -0.487  0.00  0.00    -0.267 OA
ATOM      6  N   UNL     1       2.403   5.432  -0.266  0.00  0.00    -0.285 N 
ENDROOT
BRANCH   1   9
ATOM      7  C   UNL     1      -0.150   2.530   2.449  0.00  0.00    +0.162 A 
ATOM      8  C   UNL     1       0.502   2.793   1.255  0.00  0.00    +0.055 A 
ATOM      9  C   UNL     1       1.545   3.700   1.222  0.00  0.00    -0.019 A 
ATOM     10  C   UNL     1       1.944   4.341   2.379  0.00  0.00    +0.009 A 
ATOM     11  C   UNL     1       1.294   4.087   3.573  0.00  0.00    +0.049 A 
ATOM     12  C   UNL     1       0.248   3.180   3.613  0.00  0.00    +0.158 A 
BRANCH  12  13
ATOM     13  O   UNL     1      -0.388   2.925   4.787  0.00  0.00    -0.503 OA
ATOM     14  H   UNL     1      -0.000   2.199   5.295  0.00  0.00    +0.292 HD
ENDBRANCH  12  13
BRANCH   7  15
ATOM     15  O   UNL     1      -1.176   1.638   2.483  0.00  0.00    -0.489 OA
BRANCH  15  17
ATOM     16  C   UNL     1      -2.696   0.051   1.478  0.00  0.00    +0.048 C 
ATOM     17  C   UNL     1      -1.458   0.927   1.276  0.00  0.00    +0.226 C 
ENDBRANCH  15  17
ENDBRANCH   7  15
ENDBRANCH   1   9
BRANCH   3  18
ATOM     18  O   UNL     1       5.851   4.377  -0.209  0.00  0.00    -0.502 OA
ATOM     19  H   UNL     1       6.240   5.290  -0.332  0.00  0.00    +0.292 HD
ENDBRANCH   3  18
BRANCH   2  20
ATOM     20  C   UNL     1       4.021   2.008   0.127  0.00  0.00    +0.195 C 
ATOM     21  O   UNL     1       3.157   1.151   0.153  0.00  0.00    -0.287 OA
BRANCH  20  22
ATOM     22  C   UNL     1       5.441   1.628   0.268  0.00  0.00    +0.025 A 
ATOM     23  C   UNL     1       6.111   1.016  -0.796  0.00  0.00    +0.015 A 
ATOM     24  C   UNL     1       7.435   0.664  -0.662  0.00  0.00    +0.046 A 
ATOM     25  C   UNL     1       8.105   0.916   0.530  0.00  0.00    +0.121 A 
ATOM     26  C   UNL     1       7.443   1.523   1.591  0.00  0.00    +0.049 A 
ATOM     27  C   UNL     1       6.119   1.879   1.464  0.00  0.00    -0.036 A 
ATOM     28  C   UNL     1       5.401   2.538   2.614  0.00  0.00    +0.044 C 
BRANCH  25  29
ATOM     29  O   UNL     1       9.411   0.567   0.659  0.00  0.00    -0.492 OA
BRANCH  29  30
ATOM     30  C   UNL     1       9.999  -0.155  -0.425  0.00  0.00    +0.232 C 
BRANCH  30  31
ATOM     31  C   UNL     1      11.426  -0.562  -0.051  0.00  0.00    +0.020 C 
ATOM     32  C   UNL     1      12.015  -1.433  -1.163  0.00  0.00    +0.010 C 
ATOM     33  C   UNL     1      12.285   0.693   0.123  0.00  0.00    +0.010 C 
ENDBRANCH  30  31
ENDBRANCH  29  30
ENDBRANCH  25  29
ENDBRANCH  20  22
ENDBRANCH   2  20
BRANCH   6  34
ATOM     34  C   UNL     1       1.313   6.407  -0.360  0.00  0.00    +0.090 C 
BRANCH  34  35
ATOM     35  C   UNL     1       0.971   6.927   1.037  0.00  0.00    -0.060 C 
BRANCH  35  38
ATOM     36  C   UNL     1      -1.364   7.262   0.494  0.00  0.00    -0.097 C 
ATOM     37  C   UNL     1      -0.319   8.600   2.221  0.00  0.00    -0.097 C 
ATOM     38  N   UNL     1      -0.114   7.924   0.922  0.00  0.00    +0.377 N 
ATOM     39  H   UNL     1       0.150   8.625   0.219  0.00  0.00    -0.083 HD
ENDBRANCH  35  38
ENDBRANCH  34  35
ENDBRANCH   6  34
TORSDOF 13
