REMARK  Name = ZINC16037683
REMARK  6 active torsions:
REMARK  status: ('A' for Active; 'I' for Inactive)
REMARK    1  A    between atoms: C_1  and  C_2
REMARK    2  A    between atoms: C_5  and  N_9
REMARK    3  A    between atoms: C_6  and  C_8
REMARK    4  A    between atoms: N_18  and  C_30
REMARK    5  A    between atoms: C_20  and  C_21
REMARK    6  A    between atoms: C_24  and  N_27
REMARK                            x       y       z     vdW  Elec       q    Type
REMARK                         _______ _______ _______ _____ _____    ______ ____
ROOT
ATOM      1  N   UNL     1      -0.603  -4.404  -1.011  0.00  0.00    -0.204 N 
ATOM      2  C   UNL     1      -1.526  -5.344  -0.743  0.00  0.00    +0.257 C 
ATOM      3  O   UNL     1      -2.728  -5.148  -0.705  0.00  0.00    -0.269 OA
ATOM      4  C   UNL     1      -0.912  -6.576  -0.516  0.00  0.00    +0.069 C 
ATOM      5  H   UNL     1       0.714  -9.270  -0.191  0.00  0.00    +0.170 HD
ATOM      6  C   UNL     1       0.533  -6.188  -0.167  0.00  0.00    +0.217 C 
ATOM      7  C   UNL     1       0.661  -4.845  -0.821  0.00  0.00    +0.253 C 
ATOM      8  O   UNL     1       1.687  -4.271  -1.118  0.00  0.00    -0.272 OA
ATOM      9  N   UNL     1       1.252  -7.287  -0.831  0.00  0.00    -0.237 N 
ATOM     10  N   UNL     1       0.419  -8.382  -0.447  0.00  0.00    -0.262 N 
ATOM     11  C   UNL     1      -0.892  -7.935  -0.509  0.00  0.00    +0.062 C 
ENDROOT
BRANCH   1  16
ATOM     12  C   UNL     1      -1.875   0.840  -2.768  0.00  0.00    +0.044 C 
ATOM     13  C   UNL     1      -1.538  -0.552  -2.301  0.00  0.00    -0.050 A 
ATOM     14  C   UNL     1      -1.341  -1.562  -3.226  0.00  0.00    +0.005 A 
ATOM     15  C   UNL     1      -1.032  -2.839  -2.802  0.00  0.00    +0.024 A 
ATOM     16  C   UNL     1      -0.917  -3.109  -1.445  0.00  0.00    +0.047 A 
ATOM     17  C   UNL     1      -1.114  -2.094  -0.518  0.00  0.00    -0.028 A 
ATOM     18  C   UNL     1      -1.419  -0.817  -0.950  0.00  0.00    +0.008 A 
ATOM     19  C   UNL     1      -0.990  -2.383   0.955  0.00  0.00    +0.046 C 
ENDBRANCH   1  16
BRANCH  11  20
ATOM     20  C   UNL     1      -2.085  -8.804  -0.560  0.00  0.00    -0.002 A 
ATOM     21  C   UNL     1      -3.361  -8.240  -0.626  0.00  0.00    +0.012 A 
ATOM     22  C   UNL     1      -4.471  -9.057  -0.674  0.00  0.00    +0.033 A 
ATOM     23  C   UNL     1      -4.323 -10.433  -0.655  0.00  0.00    +0.126 A 
ATOM     24  C   UNL     1      -3.062 -10.998  -0.589  0.00  0.00    +0.033 A 
ATOM     25  C   UNL     1      -1.943 -10.193  -0.547  0.00  0.00    +0.012 A 
BRANCH  23  26
ATOM     26  N   UNL     1      -5.519 -11.303  -0.706  0.00  0.00    +0.056 N 
ATOM     27  O   UNL     1      -6.622 -10.812  -0.763  0.00  0.00    -0.126 OA
ATOM     28  O   UNL     1      -5.393 -12.505  -0.689  0.00  0.00    -0.126 OA
ENDBRANCH  23  26
ENDBRANCH  11  20
BRANCH   9  29
ATOM     29  C   UNL     1       2.411  -7.266  -1.611  0.00  0.00    +0.049 A 
ATOM     30  C   UNL     1       3.531  -6.570  -1.174  0.00  0.00    +0.025 A 
ATOM     31  C   UNL     1       4.675  -6.552  -1.947  0.00  0.00    +0.002 A 
ATOM     32  C   UNL     1       4.707  -7.224  -3.155  0.00  0.00    +0.000 A 
ATOM     33  C   UNL     1       3.593  -7.918  -3.593  0.00  0.00    +0.002 A 
ATOM     34  C   UNL     1       2.448  -7.946  -2.822  0.00  0.00    +0.025 A 
ENDBRANCH   9  29
TORSDOF 4
