REMARK  Name = ZINC40804474
REMARK  9 active torsions:
REMARK  status: ('A' for Active; 'I' for Inactive)
REMARK    1  A    between atoms: C_1  and  C_2
REMARK    2  A    between atoms: C_2  and  O_3
REMARK    3  A    between atoms: O_3  and  C_4
REMARK    4  A    between atoms: C_9  and  N_10
REMARK    5  A    between atoms: C_11  and  C_13
REMARK    6  A    between atoms: C_14  and  C_33
REMARK    7  A    between atoms: N_22  and  N_23
REMARK    8  A    between atoms: C_24  and  C_26
REMARK    9  A    between atoms: C_29  and  C_32
REMARK                            x       y       z     vdW  Elec       q    Type
REMARK                         _______ _______ _______ _____ _____    ______ ____
ROOT
ATOM      1  C   UNL     1      -6.309  -1.220  -0.156  0.00  0.00    +0.193 A 
ATOM      2  C   UNL     1      -7.609  -1.631  -0.248  0.00  0.00    +0.009 A 
ATOM      3  C   UNL     1      -8.384  -0.467  -0.316  0.00  0.00    +0.042 A 
ATOM      4  C   UNL     1      -7.524   0.605  -0.263  0.00  0.00    +0.115 A 
ATOM      5  O   UNL     1      -6.284   0.132  -0.159  0.00  0.00    -0.454 OA
ATOM      6  C   UNL     1      -7.993   2.037  -0.315  0.00  0.00    +0.075 C 
ATOM      7  C   UNL     1      -9.393   2.091  -0.933  0.00  0.00    +0.014 C 
ATOM      8  C   UNL     1     -10.343   1.136  -0.203  0.00  0.00    +0.058 C 
ATOM      9  C   UNL     1      -9.849  -0.287  -0.422  0.00  0.00    +0.070 C 
ATOM     10  N   UNL     1     -10.653  -1.271  -0.684  0.00  0.00    -0.184 NA
ATOM     11  C   UNL     1      -8.109  -3.053  -0.274  0.00  0.00    +0.048 C 
ENDROOT
BRANCH   1  13
ATOM     12  N   UNL     1      -3.902  -1.566   0.031  0.00  0.00    -0.276 N 
ATOM     13  C   UNL     1      -5.137  -2.098  -0.061  0.00  0.00    +0.284 C 
ATOM     14  O   UNL     1      -5.280  -3.307  -0.067  0.00  0.00    -0.266 OA
ATOM     15  H   UNL     1      -3.792  -0.606   0.117  0.00  0.00    +0.155 HD
BRANCH  12  21
ATOM     16  C   UNL     1      -1.584  -1.982   0.589  0.00  0.00    +0.142 A 
ATOM     17  C   UNL     1      -0.476  -2.813   0.565  0.00  0.00    +0.047 A 
ATOM     18  C   UNL     1      -0.554  -4.052  -0.043  0.00  0.00    +0.004 A 
ATOM     19  C   UNL     1      -1.737  -4.466  -0.629  0.00  0.00    +0.002 A 
ATOM     20  C   UNL     1      -2.846  -3.642  -0.609  0.00  0.00    +0.027 A 
ATOM     21  C   UNL     1      -2.777  -2.400   0.004  0.00  0.00    +0.076 A 
BRANCH  16  22
ATOM     22  O   UNL     1      -1.508  -0.762   1.187  0.00  0.00    -0.490 OA
BRANCH  22  24
ATOM     23  C   UNL     1      -0.360   0.994   2.385  0.00  0.00    +0.048 C 
ATOM     24  C   UNL     1      -0.253  -0.400   1.765  0.00  0.00    +0.226 C 
ENDBRANCH  22  24
ENDBRANCH  16  22
ENDBRANCH  12  21
ENDBRANCH   1  13
BRANCH  10  25
ATOM     25  N   UNL     1     -12.033  -1.043  -0.773  0.00  0.00    -0.203 N 
ATOM     26  C   UNL     1     -12.869  -2.064  -1.045  0.00  0.00    +0.263 C 
ATOM     27  O   UNL     1     -12.425  -3.184  -1.212  0.00  0.00    -0.268 OA
ATOM     28  H   UNL     1     -12.386  -0.149  -0.639  0.00  0.00    +0.178 HD
BRANCH  26  29
ATOM     29  C   UNL     1     -14.324  -1.824  -1.139  0.00  0.00    +0.038 A 
ATOM     30  C   UNL     1     -14.835  -0.538  -0.953  0.00  0.00    +0.013 A 
ATOM     31  C   UNL     1     -16.195  -0.321  -1.042  0.00  0.00    +0.004 A 
ATOM     32  C   UNL     1     -17.050  -1.373  -1.315  0.00  0.00    -0.050 A 
ATOM     33  C   UNL     1     -16.550  -2.650  -1.500  0.00  0.00    +0.004 A 
ATOM     34  C   UNL     1     -15.192  -2.880  -1.420  0.00  0.00    +0.013 A 
ATOM     35  C   UNL     1     -18.534  -1.128  -1.411  0.00  0.00    +0.044 C 
ENDBRANCH  26  29
ENDBRANCH  10  25
TORSDOF 6
