REMARK  Name = ZINC40755222
REMARK  7 active torsions:
REMARK  status: ('A' for Active; 'I' for Inactive)
REMARK    1  A    between atoms: C_1  and  C_2
REMARK    2  A    between atoms: C_6  and  N_9
REMARK    3  A    between atoms: C_7  and  C_8
REMARK    4  A    between atoms: C_11  and  N_30
REMARK    5  A    between atoms: C_12  and  N_16
REMARK    6  A    between atoms: N_16  and  C_17
REMARK    7  A    between atoms: C_17  and  C_18
REMARK                            x       y       z     vdW  Elec       q    Type
REMARK                         _______ _______ _______ _____ _____    ______ ____
ROOT
ATOM      1  N   UNL     1       0.029  -2.749   2.473  0.00  0.00    -0.299 N 
ATOM      2  C   UNL     1      -0.040  -4.138   2.440  0.00  0.00    +0.126 A 
ATOM      3  C   UNL     1      -0.145  -4.871   3.624  0.00  0.00    +0.104 A 
ATOM      4  C   UNL     1      -0.211  -6.262   3.534  0.00  0.00    +0.153 A 
ATOM      5  N   UNL     1      -0.173  -6.833   2.333  0.00  0.00    -0.220 NA
ATOM      6  C   UNL     1      -0.074  -6.104   1.240  0.00  0.00    +0.200 A 
ATOM      7  N   UNL     1      -0.014  -4.788   1.280  0.00  0.00    -0.333 N 
ATOM      8  H   UNL     1       0.102  -2.287   3.323  0.00  0.00    +0.154 HD
ATOM      9  H   UNL     1       0.055  -4.287   0.452  0.00  0.00    +0.168 HD
ENDROOT
BRANCH   1  15
ATOM     10  C   UNL     1      -2.449  -1.237  -1.493  0.00  0.00    +0.044 C 
ATOM     11  C   UNL     1      -1.193  -1.269  -0.661  0.00  0.00    -0.046 A 
ATOM     12  C   UNL     1      -0.071  -0.575  -1.077  0.00  0.00    +0.004 A 
ATOM     13  C   UNL     1       1.084  -0.602  -0.317  0.00  0.00    +0.002 A 
ATOM     14  C   UNL     1       1.120  -1.322   0.861  0.00  0.00    +0.023 A 
ATOM     15  C   UNL     1      -0.004  -2.020   1.282  0.00  0.00    +0.036 A 
ATOM     16  C   UNL     1      -1.165  -1.987   0.518  0.00  0.00    -0.026 A 
ATOM     17  C   UNL     1      -2.389  -2.738   0.974  0.00  0.00    +0.046 C 
ENDBRANCH   1  15
BRANCH   4  18
ATOM     18  N   UNL     1      -0.316  -7.040   4.683  0.00  0.00    -0.264 N 
ATOM     19  C   UNL     1       0.828  -7.580   5.264  0.00  0.00    +0.127 A 
ATOM     20  C   UNL     1       2.083  -7.190   4.807  0.00  0.00    +0.044 A 
ATOM     21  C   UNL     1       3.211  -7.734   5.394  0.00  0.00    +0.005 A 
ATOM     22  C   UNL     1       3.045  -8.653   6.422  0.00  0.00    +0.020 A 
ATOM     23  C   UNL     1       1.770  -8.994   6.825  0.00  0.00    +0.113 A 
ATOM     24  N   UNL     1       0.712  -8.455   6.250  0.00  0.00    -0.240 NA
BRANCH  18  25
ATOM     25  C   UNL     1      -1.629  -7.291   5.281  0.00  0.00    +0.149 C 
BRANCH  25  26
ATOM     26  C   UNL     1      -2.222  -8.541   4.684  0.00  0.00    -0.030 A 
ATOM     27  C   UNL     1      -3.005  -8.461   3.548  0.00  0.00    +0.005 A 
ATOM     28  C   UNL     1      -3.549  -9.608   3.001  0.00  0.00    +0.000 A 
ATOM     29  C   UNL     1      -3.309 -10.835   3.589  0.00  0.00    +0.000 A 
ATOM     30  C   UNL     1      -2.525 -10.916   4.725  0.00  0.00    +0.000 A 
ATOM     31  C   UNL     1      -1.978  -9.770   5.270  0.00  0.00    +0.005 A 
ENDBRANCH  25  26
ENDBRANCH  18  25
ENDBRANCH   4  18
BRANCH   3  32
ATOM     32  N   UNL     1      -0.181  -4.226   4.871  0.00  0.00    -0.353 N 
ATOM     33  H   UNL     1      -0.209  -3.258   4.915  0.00  0.00    +0.143 HD
ATOM     34  H   UNL     1      -0.179  -4.749   5.688  0.00  0.00    +0.143 HD
ENDBRANCH   3  32
TORSDOF 5
