REMARK  Name = ZINC08033581
REMARK  7 active torsions:
REMARK  status: ('A' for Active; 'I' for Inactive)
REMARK    1  A    between atoms: C_1  and  C_2
REMARK    2  A    between atoms: C_8  and  N_10
REMARK    3  A    between atoms: C_11  and  C_13
REMARK    4  A    between atoms: C_16  and  N_19
REMARK    5  A    between atoms: N_19  and  S_20
REMARK    6  A    between atoms: S_20  and  C_23
REMARK    7  A    between atoms: C_27  and  N_29
REMARK                            x       y       z     vdW  Elec       q    Type
REMARK                         _______ _______ _______ _____ _____    ______ ____
ROOT
ATOM      1  C   UNL     1      -0.022   0.881  -4.756  0.00  0.00    +0.037 A 
ATOM      2  C   UNL     1       1.354   0.636  -4.751  0.00  0.00    +0.015 A 
ATOM      3  C   UNL     1       1.981   0.211  -5.901  0.00  0.00    +0.025 A 
ATOM      4  C   UNL     1       1.247   0.035  -7.071  0.00  0.00    +0.048 A 
ATOM      5  C   UNL     1      -0.123   0.283  -7.080  0.00  0.00    +0.025 A 
ATOM      6  C   UNL     1      -0.756   0.703  -5.933  0.00  0.00    +0.015 A 
ENDROOT
BRANCH   1   8
ATOM      7  N   UNL     1       0.012   1.502  -2.391  0.00  0.00    -0.308 N 
ATOM      8  C   UNL     1      -0.697   1.331  -3.525  0.00  0.00    +0.244 C 
ATOM      9  O   UNL     1      -1.894   1.549  -3.532  0.00  0.00    -0.270 OA
ATOM     10  H   UNL     1       0.966   1.328  -2.385  0.00  0.00    +0.149 HD
BRANCH   7  17
ATOM     11  C   UNL     1       0.233  -0.042   0.049  0.00  0.00    +0.009 C 
ATOM     12  C   UNL     1       0.141   1.485   0.051  0.00  0.00    +0.006 C 
ATOM     13  C   UNL     1      -0.560   1.952   1.329  0.00  0.00    +0.005 C 
ATOM     14  C   UNL     1      -0.652   3.480   1.330  0.00  0.00    +0.000 C 
ATOM     15  C   UNL     1      -1.452   3.944   0.111  0.00  0.00    +0.002 C 
ATOM     16  C   UNL     1      -0.751   3.476  -1.166  0.00  0.00    +0.022 C 
ATOM     17  C   UNL     1      -0.659   1.949  -1.168  0.00  0.00    +0.076 C 
ENDBRANCH   7  17
ENDBRANCH   1   8
BRANCH   4  18
ATOM     18  N   UNL     1       1.883  -0.389  -8.232  0.00  0.00    -0.216 N 
ATOM     19  H   UNL     1       1.493  -1.097  -8.768  0.00  0.00    +0.174 HD
BRANCH  18  20
ATOM     20  S   UNL     1       3.308   0.315  -8.699  0.00  0.00    +0.072 S 
ATOM     21  O   UNL     1       4.178   0.253  -7.578  0.00  0.00    -0.150 OA
ATOM     22  O   UNL     1       3.646  -0.251  -9.958  0.00  0.00    -0.150 OA
BRANCH  20  23
ATOM     23  C   UNL     1       2.976   2.021  -8.987  0.00  0.00    +0.111 A 
ATOM     24  C   UNL     1       2.494   2.434 -10.215  0.00  0.00    +0.029 A 
ATOM     25  C   UNL     1       2.230   3.772 -10.439  0.00  0.00    +0.004 A 
ATOM     26  C   UNL     1       2.457   4.699  -9.438  0.00  0.00    +0.033 A 
ATOM     27  C   UNL     1       2.944   4.287  -8.212  0.00  0.00    +0.128 A 
ATOM     28  C   UNL     1       3.204   2.947  -7.987  0.00  0.00    +0.061 A 
BRANCH  27  29
ATOM     29  N   UNL     1       3.187   5.279  -7.141  0.00  0.00    +0.056 N 
ATOM     30  O   UNL     1       3.616   4.915  -6.061  0.00  0.00    -0.126 OA
ATOM     31  O   UNL     1       2.958   6.458  -7.340  0.00  0.00    -0.126 OA
ENDBRANCH  27  29
ENDBRANCH  20  23
ENDBRANCH  18  20
ENDBRANCH   4  18
TORSDOF 6
