REMARK  Name = ZINC09558779
REMARK  9 active torsions:
REMARK  status: ('A' for Active; 'I' for Inactive)
REMARK    1  A    between atoms: C_1  and  C_2
REMARK    2  A    between atoms: C_5  and  C_38
REMARK    3  A    between atoms: C_6  and  N_8
REMARK    4  A    between atoms: C_21  and  S_22
REMARK    5  A    between atoms: S_22  and  C_23
REMARK    6  A    between atoms: C_23  and  C_25
REMARK    7  A    between atoms: C_23  and  C_26
REMARK    8  A    between atoms: N_28  and  C_29
REMARK    9  A    between atoms: C_35  and  C_37
REMARK                            x       y       z     vdW  Elec       q    Type
REMARK                         _______ _______ _______ _____ _____    ______ ____
ROOT
ATOM      1  N   UNL     1       0.051  -2.808  -0.014  0.00  0.00    -0.245 N 
ATOM      2  C   UNL     1       1.231  -2.155  -0.021  0.00  0.00    +0.268 A 
ATOM      3  O   UNL     1       2.279  -2.773  -0.034  0.00  0.00    -0.267 OA
ATOM      4  C   UNL     1       1.233  -0.681  -0.013  0.00  0.00    +0.064 A 
ATOM      5  C   UNL     1       2.424   0.042  -0.021  0.00  0.00    +0.015 A 
ATOM      6  C   UNL     1       2.386   1.420  -0.013  0.00  0.00    +0.001 A 
ATOM      7  C   UNL     1       1.171   2.087   0.002  0.00  0.00    +0.002 A 
ATOM      8  C   UNL     1      -0.017   1.382   0.010  0.00  0.00    +0.027 A 
ATOM      9  C   UNL     1       0.002  -0.004   0.002  0.00  0.00    +0.064 A 
ATOM     10  N   UNL     1      -1.175  -0.741   0.009  0.00  0.00    -0.255 N 
ATOM     11  C   UNL     1      -1.148  -2.111   0.001  0.00  0.00    +0.245 A 
ATOM     12  N   UNL     1      -2.396  -2.517   0.010  0.00  0.00    -0.109 NA
ATOM     13  N   UNL     1      -3.189  -1.506   0.023  0.00  0.00    -0.120 NA
ATOM     14  C   UNL     1      -2.498  -0.391   0.023  0.00  0.00    +0.198 A 
ENDROOT
BRANCH   1  20
ATOM     15  C   UNL     1      -0.017  -7.026  -2.539  0.00  0.00    +0.044 C 
ATOM     16  C   UNL     1       0.003  -6.277  -1.231  0.00  0.00    -0.048 A 
ATOM     17  C   UNL     1       0.006  -6.974  -0.036  0.00  0.00    +0.004 A 
ATOM     18  C   UNL     1       0.025  -6.291   1.166  0.00  0.00    +0.005 A 
ATOM     19  C   UNL     1       0.045  -4.910   1.177  0.00  0.00    -0.026 A 
ATOM     20  C   UNL     1       0.036  -4.207  -0.021  0.00  0.00    +0.056 A 
ATOM     21  C   UNL     1       0.017  -4.897  -1.227  0.00  0.00    +0.030 A 
ATOM     22  C   UNL     1       0.072  -4.166   2.487  0.00  0.00    +0.046 C 
ENDBRANCH   1  20
BRANCH  14  23
ATOM     23  S   UNL     1      -3.150   1.246   0.039  0.00  0.00    -0.073 S 
BRANCH  23  24
ATOM     24  C   UNL     1      -4.947   1.003   0.054  0.00  0.00    +0.137 C 
ATOM     25  C   UNL     1      -5.383   0.338  -1.253  0.00  0.00    +0.029 C 
BRANCH  24  26
ATOM     26  C   UNL     1      -5.634   2.338   0.192  0.00  0.00    +0.226 C 
ATOM     27  O   UNL     1      -5.072   3.349  -0.172  0.00  0.00    -0.275 OA
ATOM     28  N   UNL     1      -6.872   2.408   0.720  0.00  0.00    -0.311 N 
ATOM     29  H   UNL     1      -7.321   1.599   1.011  0.00  0.00    +0.149 HD
BRANCH  28  30
ATOM     30  C   UNL     1      -7.539   3.705   0.854  0.00  0.00    +0.076 C 
ATOM     31  C   UNL     1      -7.103   4.370   2.161  0.00  0.00    +0.022 C 
ATOM     32  C   UNL     1      -7.486   3.475   3.342  0.00  0.00    +0.002 C 
ATOM     33  C   UNL     1      -9.002   3.270   3.355  0.00  0.00    +0.000 C 
ATOM     34  C   UNL     1      -9.438   2.605   2.047  0.00  0.00    +0.005 C 
ATOM     35  C   UNL     1      -9.055   3.500   0.867  0.00  0.00    +0.006 C 
ATOM     36  C   UNL     1      -9.491   2.835  -0.440  0.00  0.00    +0.009 C 
ENDBRANCH  28  30
ENDBRANCH  24  26
ENDBRANCH  23  24
ENDBRANCH  14  23
TORSDOF 5
