REMARK  Name = ZINC19371354
REMARK  4 active torsions:
REMARK  status: ('A' for Active; 'I' for Inactive)
REMARK    1  A    between atoms: C_4  and  C_7
REMARK    2  A    between atoms: C_7  and  N_8
REMARK    3  A    between atoms: N_11  and  C_14
REMARK    4  A    between atoms: C_14  and  C_15
REMARK                            x       y       z     vdW  Elec       q    Type
REMARK                         _______ _______ _______ _____ _____    ______ ____
ROOT
ATOM      1  C   UNL     1       6.833  -3.529   4.844  0.00  0.00    +0.127 A 
ATOM      2  N   UNL     1       7.965  -2.858   4.969  0.00  0.00    -0.315 N 
ATOM      3  C   UNL     1       9.127  -3.507   4.982  0.00  0.00    +0.195 A 
ATOM      4  N   UNL     1       9.149  -4.831   4.870  0.00  0.00    -0.183 NA
ATOM      5  C   UNL     1       8.009  -5.502   4.745  0.00  0.00    +0.227 A 
ATOM      6  N   UNL     1       6.850  -4.846   4.737  0.00  0.00    -0.200 NA
ATOM      7  N   UNL     1       8.026  -6.878   4.627  0.00  0.00    -0.269 N 
ATOM      8  C   UNL     1       6.771  -7.643   4.623  0.00  0.00    +0.114 C 
ATOM      9  C   UNL     1       6.960  -8.857   5.541  0.00  0.00    +0.024 C 
ATOM     10  C   UNL     1       8.055  -9.751   4.960  0.00  0.00    +0.038 C 
ATOM     11  C   UNL     1       9.292  -8.944   4.665  0.00  0.00    -0.026 A 
ATOM     12  C   UNL     1       9.239  -7.567   4.504  0.00  0.00    +0.040 A 
ATOM     13  C   UNL     1      10.398  -6.853   4.222  0.00  0.00    +0.024 A 
ATOM     14  C   UNL     1      11.604  -7.513   4.101  0.00  0.00    +0.002 A 
ATOM     15  C   UNL     1      11.658  -8.886   4.259  0.00  0.00    +0.000 A 
ATOM     16  C   UNL     1      10.507  -9.599   4.548  0.00  0.00    +0.005 A 
ATOM     17  N   UNL     1      10.309  -2.806   5.112  0.00  0.00    -0.329 N 
ATOM     18  H   UNL     1      10.293  -1.839   5.194  0.00  0.00    +0.145 HD
ATOM     19  H   UNL     1      11.155  -3.279   5.122  0.00  0.00    +0.145 HD
ATOM     20  H   UNL     1       7.949  -1.892   5.050  0.00  0.00    +0.170 HD
ENDROOT
BRANCH   1  21
ATOM     21  C   UNL     1       5.520  -2.791   4.829  0.00  0.00    +0.158 C 
BRANCH  21  25
ATOM     22  N   UNL     1       4.248  -0.944   1.249  0.00  0.00    -0.296 NA
ATOM     23  C   UNL     1       3.321  -1.872   1.912  0.00  0.00    +0.100 C 
ATOM     24  C   UNL     1       3.733  -2.041   3.376  0.00  0.00    +0.100 C 
ATOM     25  N   UNL     1       5.113  -2.544   3.439  0.00  0.00    -0.293 NA
ATOM     26  C   UNL     1       6.040  -1.616   2.776  0.00  0.00    +0.100 C 
ATOM     27  C   UNL     1       5.628  -1.447   1.312  0.00  0.00    +0.100 C 
BRANCH  22  28
ATOM     28  C   UNL     1       3.841  -0.697  -0.141  0.00  0.00    +0.119 C 
BRANCH  28  32
ATOM     29  C   UNL     1       0.117   1.396  -0.185  0.00  0.00    +0.000 A 
ATOM     30  C   UNL     1       1.306   2.101  -0.163  0.00  0.00    +0.000 A 
ATOM     31  C   UNL     1       2.511   1.424  -0.149  0.00  0.00    +0.005 A 
ATOM     32  C   UNL     1       2.527   0.042  -0.156  0.00  0.00    -0.033 A 
ATOM     33  C   UNL     1       1.338  -0.663  -0.177  0.00  0.00    +0.005 A 
ATOM     34  C   UNL     1       0.134   0.014  -0.193  0.00  0.00    +0.000 A 
ENDBRANCH  28  32
ENDBRANCH  22  28
ENDBRANCH  21  25
ENDBRANCH   1  21
TORSDOF 4
