REMARK  Name = ZINC01772343
REMARK  8 active torsions:
REMARK  status: ('A' for Active; 'I' for Inactive)
REMARK    1  A    between atoms: C_1  and  C_2
REMARK    2  A    between atoms: C_9  and  N_15
REMARK    3  A    between atoms: C_10  and  C_11
REMARK    4  A    between atoms: C_11  and  O_13
REMARK    5  A    between atoms: O_13  and  C_14
REMARK    6  A    between atoms: C_16  and  C_18
REMARK    7  A    between atoms: C_18  and  S_19
REMARK    8  A    between atoms: S_19  and  C_20
REMARK                            x       y       z     vdW  Elec       q    Type
REMARK                         _______ _______ _______ _____ _____    ______ ____
ROOT
ATOM      1  N   UNL     1      -1.221  -2.349   2.488  0.00  0.00    -0.279 N 
ATOM      2  C   UNL     1      -1.240  -3.214   3.521  0.00  0.00    +0.228 C 
ATOM      3  O   UNL     1      -1.289  -4.407   3.312  0.00  0.00    -0.275 OA
ATOM      4  H   UNL     1      -1.181  -1.394   2.656  0.00  0.00    +0.155 HD
ENDROOT
BRANCH   1  12
ATOM      5  C   UNL     1      -1.520  -5.425  -4.698  0.00  0.00    +0.008 C 
ATOM      6  C   UNL     1      -1.755  -4.485  -3.514  0.00  0.00    -0.009 C 
ATOM      7  C   UNL     1      -0.871  -3.243  -3.657  0.00  0.00    +0.008 C 
ATOM      8  C   UNL     1      -1.276  -2.193  -2.622  0.00  0.00    +0.037 C 
ATOM      9  C   UNL     1      -1.289  -2.843  -1.244  0.00  0.00    -0.021 A 
ATOM     10  C   UNL     1      -1.340  -4.185  -1.108  0.00  0.00    -0.004 A 
ATOM     11  S   UNL     1      -1.334  -4.465   0.640  0.00  0.00    -0.077 S 
ATOM     12  C   UNL     1      -1.259  -2.822   1.186  0.00  0.00    +0.086 A 
ATOM     13  C   UNL     1      -1.248  -2.096   0.003  0.00  0.00    +0.091 A 
ATOM     14  C   UNL     1      -1.391  -5.203  -2.206  0.00  0.00    +0.046 C 
BRANCH  13  15
ATOM     15  C   UNL     1      -1.191  -0.633   0.010  0.00  0.00    +0.342 C 
ATOM     16  O   UNL     1      -2.220   0.016   0.023  0.00  0.00    -0.245 OA
BRANCH  15  17
ATOM     17  O   UNL     1       0.002  -0.004   0.002  0.00  0.00    -0.464 OA
ATOM     18  C   UNL     1      -0.018   1.448   0.010  0.00  0.00    +0.280 C 
ENDBRANCH  15  17
ENDBRANCH  13  15
ENDBRANCH   1  12
BRANCH   2  19
ATOM     19  C   UNL     1      -1.198  -2.699   4.937  0.00  0.00    +0.173 C 
BRANCH  19  20
ATOM     20  S   UNL     1      -1.236  -4.098   6.091  0.00  0.00    -0.076 S 
BRANCH  20  21
ATOM     21  C   UNL     1      -1.183  -3.340   7.681  0.00  0.00    +0.197 A 
ATOM     22  N   UNL     1      -1.129  -2.054   7.911  0.00  0.00    -0.121 NA
ATOM     23  N   UNL     1      -1.101  -1.863   9.299  0.00  0.00    -0.121 NA
ATOM     24  C   UNL     1      -1.138  -3.036   9.857  0.00  0.00    +0.202 A 
ATOM     25  N   UNL     1      -1.196  -4.009   8.895  0.00  0.00    -0.264 N 
ATOM     26  C   UNL     1      -1.236  -5.348   9.313  0.00  0.00    +0.065 A 
ATOM     27  C   UNL     1      -1.292  -6.481   8.484  0.00  0.00    +0.027 A 
ATOM     28  C   UNL     1      -1.333  -7.745   9.022  0.00  0.00    +0.002 A 
ATOM     29  C   UNL     1      -1.320  -7.943  10.393  0.00  0.00    +0.001 A 
ATOM     30  C   UNL     1      -1.265  -6.844  11.232  0.00  0.00    +0.017 A 
ATOM     31  C   UNL     1      -1.224  -5.580  10.692  0.00  0.00    +0.040 A 
ATOM     32  S   UNL     1      -1.150  -3.945  11.383  0.00  0.00    -0.048 S 
ENDBRANCH  20  21
ENDBRANCH  19  20
ENDBRANCH   2  19
TORSDOF 6
