REMARK  Name = ZINC08721613
REMARK  13 active torsions:
REMARK  status: ('A' for Active; 'I' for Inactive)
REMARK    1  A    between atoms: C_1  and  C_2
REMARK    2  A    between atoms: C_2  and  C_4
REMARK    3  A    between atoms: C_2  and  N_10
REMARK    4  A    between atoms: C_11  and  C_13
REMARK    5  A    between atoms: C_13  and  O_14
REMARK    6  A    between atoms: O_14  and  C_15
REMARK    7  A    between atoms: C_18  and  C_21
REMARK    8  A    between atoms: N_22  and  N_23
REMARK    9  A    between atoms: C_24  and  C_26
REMARK   10  A    between atoms: C_26  and  N_27
REMARK   11  A    between atoms: N_27  and  C_28
REMARK   12  A    between atoms: N_27  and  S_35
REMARK   13  A    between atoms: S_35  and  C_38
REMARK                            x       y       z     vdW  Elec       q    Type
REMARK                         _______ _______ _______ _____ _____    ______ ____
ROOT
ATOM      1  C   UNL     1      -2.178   4.300   0.036  0.00  0.00    +0.121 A 
ATOM      2  C   UNL     1      -3.453   3.750   0.033  0.00  0.00    +0.046 A 
ATOM      3  C   UNL     1      -4.560   4.570   0.048  0.00  0.00    +0.013 A 
ATOM      4  C   UNL     1      -4.398   5.958   0.055  0.00  0.00    -0.005 A 
ATOM      5  C   UNL     1      -3.113   6.508   0.052  0.00  0.00    +0.013 A 
ATOM      6  C   UNL     1      -2.012   5.679   0.043  0.00  0.00    +0.046 A 
ENDROOT
BRANCH   4   7
ATOM      7  C   UNL     1      -5.579   6.840   0.066  0.00  0.00    +0.138 C 
ATOM      8  N   UNL     1      -6.772   6.328   0.068  0.00  0.00    -0.188 NA
BRANCH   8   9
ATOM      9  N   UNL     1      -7.894   7.166   0.079  0.00  0.00    -0.206 N 
ATOM     10  C   UNL     1      -9.133   6.634   0.081  0.00  0.00    +0.251 C 
ATOM     11  O   UNL     1      -9.275   5.430   0.074  0.00  0.00    -0.272 OA
ATOM     12  H   UNL     1      -7.780   8.130   0.084  0.00  0.00    +0.177 HD
BRANCH  10  13
ATOM     13  C   UNL     1     -10.340   7.536   0.092  0.00  0.00    +0.228 C 
BRANCH  13  14
ATOM     14  N   UNL     1     -11.558   6.721   0.093  0.00  0.00    -0.196 N 
BRANCH  14  15
ATOM     15  C   UNL     1     -12.075   6.238   1.299  0.00  0.00    +0.087 A 
ATOM     16  C   UNL     1     -12.911   7.036   2.067  0.00  0.00    +0.027 A 
ATOM     17  C   UNL     1     -13.424   6.553   3.256  0.00  0.00    +0.002 A 
ATOM     18  C   UNL     1     -13.097   5.281   3.687  0.00  0.00    +0.003 A 
ATOM     19  C   UNL     1     -12.260   4.484   2.928  0.00  0.00    +0.040 A 
ATOM     20  C   UNL     1     -11.747   4.958   1.734  0.00  0.00    +0.146 A 
ATOM     21  F   UNL     1     -10.929   4.180   0.993  0.00  0.00    -0.203 F 
ENDBRANCH  14  15
BRANCH  14  22
ATOM     22  S   UNL     1     -12.322   6.374  -1.334  0.00  0.00    +0.043 S 
ATOM     23  O   UNL     1     -13.695   6.247  -0.989  0.00  0.00    -0.155 OA
ATOM     24  O   UNL     1     -11.892   7.388  -2.232  0.00  0.00    -0.155 OA
ATOM     25  C   UNL     1     -11.654   4.766  -1.841  0.00  0.00    +0.218 C 
ENDBRANCH  14  22
ENDBRANCH  13  14
ENDBRANCH  10  13
ENDBRANCH   8   9
ENDBRANCH   4   7
BRANCH   1  26
ATOM     26  O   UNL     1      -1.089   3.488   0.026  0.00  0.00    -0.483 OA
BRANCH  26  27
ATOM     27  C   UNL     1      -1.331   2.079   0.020  0.00  0.00    +0.324 C 
BRANCH  27  29
ATOM     28  N   UNL     1       0.002  -0.004   0.002  0.00  0.00    -0.306 N 
ATOM     29  C   UNL     1      -0.016   1.344   0.009  0.00  0.00    +0.251 C 
ATOM     30  O   UNL     1       1.026   1.964   0.003  0.00  0.00    -0.272 OA
ATOM     31  H   UNL     1      -0.831  -0.500   0.007  0.00  0.00    +0.149 HD
BRANCH  28  33
ATOM     32  C   UNL     1       1.801  -0.866   1.417  0.00  0.00    +0.033 C 
ATOM     33  C   UNL     1       1.281  -0.719  -0.014  0.00  0.00    +0.100 C 
BRANCH  33  34
ATOM     34  C   UNL     1       1.085  -2.085  -0.620  0.00  0.00    -0.027 A 
ATOM     35  C   UNL     1      -0.046  -2.820  -0.316  0.00  0.00    +0.005 A 
ATOM     36  C   UNL     1      -0.228  -4.071  -0.875  0.00  0.00    +0.000 A 
ATOM     37  C   UNL     1       0.725  -4.591  -1.731  0.00  0.00    +0.000 A 
ATOM     38  C   UNL     1       1.858  -3.858  -2.031  0.00  0.00    +0.000 A 
ATOM     39  C   UNL     1       2.038  -2.605  -1.476  0.00  0.00    +0.005 A 
ENDBRANCH  33  34
ENDBRANCH  28  33
ENDBRANCH  27  29
ENDBRANCH  26  27
ENDBRANCH   1  26
TORSDOF 11
