REMARK  Name = ZINC36752544
REMARK  7 active torsions:
REMARK  status: ('A' for Active; 'I' for Inactive)
REMARK    1  A    between atoms: C_1  and  C_2
REMARK    2  A    between atoms: C_2  and  C_3
REMARK    3  A    between atoms: C_3  and  C_5
REMARK    4  A    between atoms: C_3  and  N_15
REMARK    5  A    between atoms: C_16  and  C_18
REMARK    6  A    between atoms: N_21  and  S_24
REMARK    7  A    between atoms: S_24  and  C_27
REMARK                            x       y       z     vdW  Elec       q    Type
REMARK                         _______ _______ _______ _____ _____    ______ ____
ROOT
ATOM      1  N   UNL     1      -2.082  -0.162   1.273  0.00  0.00    -0.312 N 
ATOM      2  C   UNL     1      -2.664   1.047   1.400  0.00  0.00    +0.216 C 
ATOM      3  O   UNL     1      -2.651   1.827   0.471  0.00  0.00    -0.276 OA
ATOM      4  H   UNL     1      -2.092  -0.785   2.016  0.00  0.00    +0.149 HD
ENDROOT
BRANCH   2   5
ATOM      5  C   UNL     1      -3.330   1.430   2.696  0.00  0.00    +0.077 C 
ATOM      6  C   UNL     1      -4.458   0.441   3.001  0.00  0.00    +0.030 C 
ATOM      7  C   UNL     1      -5.111   0.812   4.336  0.00  0.00    +0.110 C 
ATOM      8  N   UNL     1      -5.539   2.216   4.279  0.00  0.00    -0.177 NA
ATOM      9  C   UNL     1      -4.554   3.241   3.906  0.00  0.00    +0.110 C 
ATOM     10  C   UNL     1      -3.907   2.842   2.576  0.00  0.00    +0.030 C 
BRANCH   8  11
ATOM     11  S   UNL     1      -7.103   2.637   4.627  0.00  0.00    +0.061 S 
ATOM     12  O   UNL     1      -7.347   3.873   3.970  0.00  0.00    -0.153 OA
ATOM     13  O   UNL     1      -7.895   1.481   4.394  0.00  0.00    -0.153 OA
BRANCH  11  14
ATOM     14  C   UNL     1      -7.182   2.961   6.357  0.00  0.00    +0.106 A 
ATOM     15  C   UNL     1      -7.471   1.937   7.239  0.00  0.00    +0.031 A 
ATOM     16  C   UNL     1      -7.533   2.190   8.596  0.00  0.00    +0.040 A 
ATOM     17  C   UNL     1      -7.306   3.470   9.072  0.00  0.00    +0.124 A 
ATOM     18  C   UNL     1      -7.016   4.495   8.188  0.00  0.00    +0.040 A 
ATOM     19  C   UNL     1      -6.949   4.238   6.832  0.00  0.00    +0.031 A 
ATOM     20  F   UNL     1      -7.366   3.719  10.399  0.00  0.00    -0.205 F 
ENDBRANCH  11  14
ENDBRANCH   8  11
ENDBRANCH   2   5
BRANCH   1  21
ATOM     21  C   UNL     1      -1.433  -0.534   0.013  0.00  0.00    +0.079 C 
BRANCH  21  22
ATOM     22  C   UNL     1      -1.416  -2.058  -0.121  0.00  0.00    -0.010 C 
ATOM     23  C   UNL     1      -0.640  -2.664   1.050  0.00  0.00    +0.012 C 
ATOM     24  C   UNL     1      -0.622  -4.188   0.916  0.00  0.00    -0.010 C 
ATOM     25  C   UNL     1      -2.057  -4.717   0.927  0.00  0.00    +0.007 C 
ATOM     26  C   UNL     1      -2.833  -4.111  -0.244  0.00  0.00    -0.010 C 
ATOM     27  C   UNL     1      -2.851  -2.587  -0.110  0.00  0.00    +0.012 C 
ATOM     28  C   UNL     1      -2.156  -4.500  -1.560  0.00  0.00    +0.007 C 
ATOM     29  C   UNL     1      -0.721  -3.970  -1.571  0.00  0.00    -0.010 C 
ATOM     30  C   UNL     1       0.055  -4.576  -0.400  0.00  0.00    +0.007 C 
ATOM     31  C   UNL     1      -0.739  -2.446  -1.437  0.00  0.00    +0.012 C 
ENDBRANCH  21  22
BRANCH  21  33
ATOM     32  C   UNL     1      -0.019   1.526   0.010  0.00  0.00    +0.006 C 
ATOM     33  C   UNL     1       0.002  -0.004   0.002  0.00  0.00    +0.019 C 
ENDBRANCH  21  33
ENDBRANCH   1  21
TORSDOF 6
