REMARK  Name = ZINC38959379
REMARK  10 active torsions:
REMARK  status: ('A' for Active; 'I' for Inactive)
REMARK    1  A    between atoms: C_1  and  C_2
REMARK    2  A    between atoms: C_2  and  C_3
REMARK    3  A    between atoms: C_5  and  C_26
REMARK    4  A    between atoms: C_6  and  C_11
REMARK    5  A    between atoms: C_7  and  C_9
REMARK    6  A    between atoms: C_9  and  C_10
REMARK    7  A    between atoms: C_13  and  C_24
REMARK    8  A    between atoms: C_14  and  N_23
REMARK    9  A    between atoms: C_19  and  C_22
REMARK   10  A    between atoms: C_26  and  C_27
REMARK                            x       y       z     vdW  Elec       q    Type
REMARK                         _______ _______ _______ _____ _____    ______ ____
ROOT
ATOM      1  C   UNL     1      -5.395  -1.961   0.055  0.00  0.00    +0.094 C 
ATOM      2  C   UNL     1      -5.936  -1.968   1.471  0.00  0.00    +0.074 C 
ATOM      3  C   UNL     1      -6.163  -3.099   2.149  0.00  0.00    +0.082 C 
ATOM      4  N   UNL     1      -5.962  -4.368   1.672  0.00  0.00    -0.307 N 
ATOM      5  C   UNL     1      -5.088  -4.545   0.504  0.00  0.00    +0.242 C 
ATOM      6  C   UNL     1      -5.457  -3.382  -0.427  0.00  0.00    +0.009 C 
ATOM      7  C   UNL     1      -5.796  -3.949  -1.559  0.00  0.00    +0.064 C 
ATOM      8  N   UNL     1      -5.804  -5.300  -1.428  0.00  0.00    -0.157 NA
ATOM      9  N   UNL     1      -5.444  -5.718  -0.296  0.00  0.00    -0.160 NA
ATOM     10  C   UNL     1      -6.130  -3.205  -2.827  0.00  0.00    +0.067 C 
ATOM     11  H   UNL     1      -6.385  -5.131   2.095  0.00  0.00    +0.150 HD
ENDROOT
BRANCH   1  15
ATOM     12  C   UNL     1      -1.353  -0.580   0.034  0.00  0.00    -0.047 A 
ATOM     13  C   UNL     1      -1.945  -0.965   1.222  0.00  0.00    +0.007 A 
ATOM     14  C   UNL     1      -3.253  -1.412   1.229  0.00  0.00    -0.043 A 
ATOM     15  C   UNL     1      -3.969  -1.473   0.048  0.00  0.00    -0.029 A 
ATOM     16  C   UNL     1      -3.377  -1.087  -1.140  0.00  0.00    -0.043 A 
ATOM     17  C   UNL     1      -2.070  -0.636  -1.147  0.00  0.00    +0.007 A 
BRANCH  12  19
ATOM     18  C   UNL     1       0.096   1.422   0.239  0.00  0.00    +0.009 C 
ATOM     19  C   UNL     1       0.073  -0.093   0.026  0.00  0.00    +0.032 C 
ENDBRANCH  12  19
BRANCH  16  20
ATOM     20  C   UNL     1      -4.158  -1.153  -2.428  0.00  0.00    +0.032 C 
ATOM     21  C   UNL     1      -4.886   0.173  -2.652  0.00  0.00    +0.009 C 
ENDBRANCH  16  20
BRANCH  14  22
ATOM     22  C   UNL     1      -3.899  -1.833   2.524  0.00  0.00    +0.032 C 
ATOM     23  C   UNL     1      -3.836  -3.356   2.654  0.00  0.00    +0.009 C 
ENDBRANCH  14  22
ENDBRANCH   1  15
BRANCH   3  24
ATOM     24  N   UNL     1      -6.645  -2.975   3.455  0.00  0.00    -0.405 NA
ATOM     25  H   UNL     1      -7.654  -2.963   3.441  0.00  0.00    +0.122 HD
ATOM     26  H   UNL     1      -6.326  -3.757   4.007  0.00  0.00    +0.122 HD
ATOM     27  H   UNL     1      -6.304  -2.116   3.860  0.00  0.00    +0.122 HD
ENDBRANCH   3  24
BRANCH   2  28
ATOM     28  C   UNL     1      -6.214  -0.716   2.109  0.00  0.00    +0.099 C 
ATOM     29  N   UNL     1      -6.434   0.277   2.614  0.00  0.00    -0.191 NA
ENDBRANCH   2  28
TORSDOF 6
