REMARK  Name = ZINC05996441
REMARK  9 active torsions:
REMARK  status: ('A' for Active; 'I' for Inactive)
REMARK    1  A    between atoms: C_1  and  C_2
REMARK    2  A    between atoms: C_2  and  O_3
REMARK    3  A    between atoms: O_3  and  C_4
REMARK    4  A    between atoms: C_4  and  C_6
REMARK    5  A    between atoms: C_7  and  C_30
REMARK    6  A    between atoms: C_11  and  C_12
REMARK    7  A    between atoms: N_13  and  C_14
REMARK    8  A    between atoms: C_14  and  C_15
REMARK    9  A    between atoms: C_15  and  C_16
REMARK                            x       y       z     vdW  Elec       q    Type
REMARK                         _______ _______ _______ _____ _____    ______ ____
ROOT
ATOM      1  C   UNL     1       1.505  -2.343   2.482  0.00  0.00    +0.108 A 
ATOM      2  C   UNL     1       0.961  -2.670   3.691  0.00  0.00    +0.117 A 
ATOM      3  O   UNL     1       1.915  -3.154   4.489  0.00  0.00    -0.458 OA
ATOM      4  C   UNL     1       3.114  -3.173   3.865  0.00  0.00    +0.144 A 
ATOM      5  C   UNL     1       2.935  -2.679   2.587  0.00  0.00    +0.047 A 
ATOM      6  C   UNL     1       4.062  -2.577   1.651  0.00  0.00    +0.049 A 
ATOM      7  C   UNL     1       5.392  -3.011   2.087  0.00  0.00    +0.196 A 
ATOM      8  O   UNL     1       6.349  -2.938   1.333  0.00  0.00    -0.287 OA
ATOM      9  C   UNL     1       5.551  -3.534   3.451  0.00  0.00    +0.033 A 
ATOM     10  C   UNL     1       4.438  -3.606   4.314  0.00  0.00    +0.029 A 
ATOM     11  C   UNL     1       4.609  -4.110   5.611  0.00  0.00    +0.012 A 
ATOM     12  C   UNL     1       5.845  -4.513   6.026  0.00  0.00    +0.001 A 
ATOM     13  C   UNL     1       6.943  -4.429   5.179  0.00  0.00    +0.001 A 
ATOM     14  C   UNL     1       6.805  -3.958   3.904  0.00  0.00    +0.012 A 
ATOM     15  C   UNL     1      -0.490  -2.510   4.065  0.00  0.00    +0.087 C 
ENDROOT
BRANCH   6  16
ATOM     16  C   UNL     1       3.870  -2.078   0.375  0.00  0.00    +0.090 C 
ATOM     17  N   UNL     1       4.929  -1.881  -0.439  0.00  0.00    -0.389 N 
ATOM     18  H   UNL     1       5.815  -2.157  -0.157  0.00  0.00    +0.159 HD
BRANCH  17  19
ATOM     19  C   UNL     1       4.740  -1.250  -1.747  0.00  0.00    +0.116 C 
BRANCH  19  20
ATOM     20  C   UNL     1       5.467   0.097  -1.774  0.00  0.00    +0.051 C 
BRANCH  20  21
ATOM     21  C   UNL     1       5.273   0.746  -3.120  0.00  0.00    -0.072 C 
ATOM     22  C   UNL     1       4.312   1.604  -3.247  0.00  0.00    -0.028 C 
ATOM     23  C   UNL     1       3.990   2.322  -4.525  0.00  0.00    +0.027 C 
ATOM     24  C   UNL     1       5.172   2.232  -5.493  0.00  0.00    +0.004 C 
ATOM     25  C   UNL     1       5.616   0.767  -5.581  0.00  0.00    +0.005 C 
ATOM     26  C   UNL     1       6.209   0.361  -4.229  0.00  0.00    +0.030 C 
ENDBRANCH  20  21
ENDBRANCH  19  20
ENDBRANCH  17  19
ENDBRANCH   6  16
BRANCH   1  27
ATOM     27  C   UNL     1       0.808  -1.780   1.316  0.00  0.00    +0.343 C 
ATOM     28  O   UNL     1       0.317  -2.519   0.486  0.00  0.00    -0.245 OA
BRANCH  27  29
ATOM     29  O   UNL     1       0.713  -0.443   1.169  0.00  0.00    -0.461 OA
BRANCH  29  31
ATOM     30  C   UNL     1       0.017   1.565   0.018  0.00  0.00    +0.048 C 
ATOM     31  C   UNL     1       0.022   0.035   0.013  0.00  0.00    +0.229 C 
ENDBRANCH  29  31
ENDBRANCH  27  29
ENDBRANCH   1  27
TORSDOF 7
