REMARK  Name = ZINC36316180
REMARK  15 active torsions:
REMARK  status: ('A' for Active; 'I' for Inactive)
REMARK    1  A    between atoms: C_1  and  C_2
REMARK    2  A    between atoms: C_2  and  C_3
REMARK    3  A    between atoms: C_3  and  C_4
REMARK    4  A    between atoms: C_4  and  C_5
REMARK    5  A    between atoms: C_5  and  C_7
REMARK    6  A    between atoms: C_5  and  O_35
REMARK    7  A    between atoms: C_7  and  N_8
REMARK    8  A    between atoms: N_8  and  C_9
REMARK    9  A    between atoms: N_8  and  C_31
REMARK   10  A    between atoms: C_9  and  C_10
REMARK   11  A    between atoms: C_11  and  C_25
REMARK   12  A    between atoms: N_13  and  C_24
REMARK   13  A    between atoms: C_14  and  O_15
REMARK   14  A    between atoms: O_15  and  C_16
REMARK   15  A    between atoms: C_31  and  C_32
REMARK                            x       y       z     vdW  Elec       q    Type
REMARK                         _______ _______ _______ _____ _____    ______ ____
ROOT
ATOM      1  C   UNL     1       2.849  -6.225  -5.529  0.00  0.00    +0.025 A 
ATOM      2  C   UNL     1       4.238  -6.368  -5.701  0.00  0.00    +0.098 A 
ATOM      3  N   UNL     1       4.464  -6.702  -6.953  0.00  0.00    -0.168 NA
ATOM      4  N   UNL     1       3.232  -6.783  -7.615  0.00  0.00    -0.235 N 
ATOM      5  C   UNL     1       2.253  -6.492  -6.720  0.00  0.00    +0.221 A 
ATOM      6  C   UNL     1       3.033  -7.127  -9.025  0.00  0.00    +0.176 C 
ENDROOT
BRANCH   2   7
ATOM      7  C   UNL     1       5.270  -6.175  -4.652  0.00  0.00    +0.002 A 
ATOM      8  C   UNL     1       5.183  -5.094  -3.776  0.00  0.00    +0.010 A 
ATOM      9  C   UNL     1       6.146  -4.919  -2.802  0.00  0.00    +0.001 A 
ATOM     10  C   UNL     1       7.195  -5.814  -2.695  0.00  0.00    +0.000 A 
ATOM     11  C   UNL     1       7.287  -6.887  -3.562  0.00  0.00    +0.001 A 
ATOM     12  C   UNL     1       6.326  -7.076  -4.535  0.00  0.00    +0.010 A 
ENDBRANCH   2   7
BRANCH   1  13
ATOM     13  C   UNL     1       2.146  -5.851  -4.249  0.00  0.00    -0.035 C 
BRANCH  13  14
ATOM     14  N   UNL     1       1.912  -4.401  -4.226  0.00  0.00    +0.384 N 
ATOM     15  H   UNL     1       2.786  -3.917  -4.367  0.00  0.00    -0.081 HD
BRANCH  14  16
ATOM     16  C   UNL     1       0.974  -4.038  -5.297  0.00  0.00    -0.047 C 
BRANCH  16  17
ATOM     17  C   UNL     1       0.826  -2.517  -5.353  0.00  0.00    +0.098 C 
BRANCH  17  18
ATOM     18  O   UNL     1       2.074  -1.931  -5.729  0.00  0.00    -0.394 OA
ATOM     19  H   UNL     1       2.398  -2.218  -6.594  0.00  0.00    +0.210 HD
ENDBRANCH  17  18
BRANCH  17  20
ATOM     20  C   UNL     1      -0.243  -2.145  -6.382  0.00  0.00    +0.029 C 
BRANCH  20  21
ATOM     21  C   UNL     1      -0.479  -0.634  -6.349  0.00  0.00    +0.002 C 
BRANCH  21  23
ATOM     22  C   UNL     1      -1.785   1.249  -7.346  0.00  0.00    +0.004 C 
ATOM     23  C   UNL     1      -1.548  -0.263  -7.379  0.00  0.00    -0.003 C 
ENDBRANCH  21  23
ENDBRANCH  20  21
ENDBRANCH  17  20
ENDBRANCH  16  17
ENDBRANCH  14  16
BRANCH  14  24
ATOM     24  C   UNL     1       1.344  -4.017  -2.927  0.00  0.00    -0.075 C 
BRANCH  24  25
ATOM     25  C   UNL     1       2.367  -4.291  -1.822  0.00  0.00    -0.028 C 
ATOM     26  C   UNL     1       2.013  -5.352  -0.779  0.00  0.00    +0.002 C 
ATOM     27  C   UNL     1       1.998  -3.870  -0.398  0.00  0.00    +0.002 C 
ENDBRANCH  24  25
ENDBRANCH  14  24
ENDBRANCH  13  14
ENDBRANCH   1  13
BRANCH   5  28
ATOM     28  O   UNL     1       0.920  -6.468  -6.971  0.00  0.00    -0.435 OA
BRANCH  28  29
ATOM     29  C   UNL     1       0.216  -7.617  -6.790  0.00  0.00    +0.166 A 
ATOM     30  C   UNL     1       0.840  -8.738  -6.263  0.00  0.00    +0.052 A 
ATOM     31  C   UNL     1       0.123  -9.905  -6.079  0.00  0.00    +0.042 A 
ATOM     32  C   UNL     1      -1.218  -9.957  -6.421  0.00  0.00    +0.126 A 
ATOM     33  C   UNL     1      -1.844  -8.839  -6.947  0.00  0.00    +0.080 A 
ATOM     34  C   UNL     1      -1.131  -7.668  -7.127  0.00  0.00    +0.168 A 
ATOM     35  F   UNL     1      -1.743  -6.575  -7.634  0.00  0.00    -0.202 F 
ATOM     36  F   UNL     1      -1.916 -11.099  -6.240  0.00  0.00    -0.205 F 
ENDBRANCH  28  29
ENDBRANCH   5  28
TORSDOF 13
