REMARK  Name = ZINC28405801
REMARK  6 active torsions:
REMARK  status: ('A' for Active; 'I' for Inactive)
REMARK    1  A    between atoms: C_1  and  C_2
REMARK    2  A    between atoms: C_5  and  N_8
REMARK    3  A    between atoms: C_11  and  C_31
REMARK    4  A    between atoms: N_12  and  C_14
REMARK    5  A    between atoms: C_15  and  C_25
REMARK    6  A    between atoms: C_17  and  C_19
REMARK                            x       y       z     vdW  Elec       q    Type
REMARK                         _______ _______ _______ _____ _____    ______ ____
ROOT
ATOM      1  N   UNL     1      -4.986  -2.219   0.316  0.00  0.00    -0.333 N 
ATOM      2  C   UNL     1      -4.550  -0.968   0.408  0.00  0.00    +0.190 A 
ATOM      3  N   UNL     1      -3.342  -0.509   0.800  0.00  0.00    -0.203 NA
ATOM      4  C   UNL     1      -3.135   0.769   0.818  0.00  0.00    +0.155 A 
ATOM      5  N   UNL     1      -4.122   1.631   0.435  0.00  0.00    -0.252 N 
ATOM      6  S   UNL     1      -5.400   0.559   0.042  0.00  0.00    +0.034 S 
ATOM      7  H   UNL     1      -4.298  -3.057   0.502  0.00  0.00    +0.168 HD
ENDROOT
BRANCH   1  12
ATOM      8  C   UNL     1     -10.369  -3.236  -1.032  0.00  0.00    +0.044 C 
ATOM      9  C   UNL     1      -8.931  -2.965  -0.672  0.00  0.00    -0.050 A 
ATOM     10  C   UNL     1      -7.964  -2.953  -1.662  0.00  0.00    +0.005 A 
ATOM     11  C   UNL     1      -6.646  -2.705  -1.341  0.00  0.00    +0.026 A 
ATOM     12  C   UNL     1      -6.288  -2.466  -0.010  0.00  0.00    +0.041 A 
ATOM     13  C   UNL     1      -7.270  -2.485   0.985  0.00  0.00    +0.026 A 
ATOM     14  C   UNL     1      -8.584  -2.729   0.647  0.00  0.00    +0.005 A 
ENDBRANCH   1  12
BRANCH   4  15
ATOM     15  C   UNL     1      -1.823   1.297   1.248  0.00  0.00    +0.018 A 
ATOM     16  C   UNL     1      -1.260   2.395   0.596  0.00  0.00    +0.011 A 
ATOM     17  C   UNL     1      -0.038   2.886   1.006  0.00  0.00    +0.001 A 
ATOM     18  C   UNL     1       0.633   2.289   2.058  0.00  0.00    +0.000 A 
ATOM     19  C   UNL     1       0.084   1.196   2.706  0.00  0.00    +0.001 A 
ATOM     20  C   UNL     1      -1.138   0.696   2.306  0.00  0.00    +0.011 A 
ENDBRANCH   4  15
BRANCH   5  21
ATOM     21  C   UNL     1      -4.098   3.017   0.380  0.00  0.00    +0.121 A 
ATOM     22  C   UNL     1      -4.660   3.878  -0.557  0.00  0.00    +0.103 A 
ATOM     23  N   UNL     1      -4.502   5.179  -0.399  0.00  0.00    -0.237 NA
ATOM     24  C   UNL     1      -3.825   5.675   0.623  0.00  0.00    +0.111 A 
ATOM     25  S   UNL     1      -3.341   4.192   1.495  0.00  0.00    -0.048 S 
BRANCH  24  26
ATOM     26  C   UNL     1      -3.548   7.086   0.960  0.00  0.00    +0.007 A 
ATOM     27  C   UNL     1      -4.023   8.110   0.138  0.00  0.00    +0.010 A 
ATOM     28  C   UNL     1      -3.765   9.426   0.462  0.00  0.00    +0.001 A 
ATOM     29  C   UNL     1      -3.028   9.732   1.592  0.00  0.00    +0.000 A 
ATOM     30  C   UNL     1      -2.549   8.722   2.408  0.00  0.00    +0.001 A 
ATOM     31  C   UNL     1      -2.805   7.402   2.099  0.00  0.00    +0.010 A 
ENDBRANCH  24  26
BRANCH  22  32
ATOM     32  C   UNL     1      -5.421   3.346  -1.710  0.00  0.00    +0.003 A 
ATOM     33  C   UNL     1      -4.941   2.244  -2.417  0.00  0.00    +0.010 A 
ATOM     34  C   UNL     1      -5.658   1.749  -3.488  0.00  0.00    +0.001 A 
ATOM     35  C   UNL     1      -6.845   2.350  -3.866  0.00  0.00    +0.000 A 
ATOM     36  C   UNL     1      -7.324   3.447  -3.172  0.00  0.00    +0.001 A 
ATOM     37  C   UNL     1      -6.619   3.948  -2.097  0.00  0.00    +0.010 A 
ENDBRANCH  22  32
ENDBRANCH   5  21
TORSDOF 5
