REMARK  Name = ZINC62179502
REMARK  12 active torsions:
REMARK  status: ('A' for Active; 'I' for Inactive)
REMARK    1  A    between atoms: C_1  and  C_2
REMARK    2  A    between atoms: C_4  and  C_24
REMARK    3  A    between atoms: C_8  and  O_23
REMARK    4  A    between atoms: C_10  and  N_16
REMARK    5  A    between atoms: C_12  and  C_14
REMARK    6  A    between atoms: C_12  and  C_15
REMARK    7  A    between atoms: N_16  and  C_17
REMARK    8  A    between atoms: N_16  and  C_20
REMARK    9  A    between atoms: C_17  and  C_18
REMARK   10  A    between atoms: C_18  and  O_19
REMARK   11  A    between atoms: C_20  and  C_21
REMARK   12  A    between atoms: C_21  and  O_22
REMARK                            x       y       z     vdW  Elec       q    Type
REMARK                         _______ _______ _______ _____ _____    ______ ____
ROOT
ATOM      1  C   UNL     1      -0.585   1.512   0.493  0.00  0.00    +0.044 C 
ATOM      2  C   UNL     1      -0.436   0.016   0.392  0.00  0.00    -0.050 A 
ATOM      3  C   UNL     1      -0.332  -0.587  -0.849  0.00  0.00    +0.010 A 
ATOM      4  C   UNL     1      -0.197  -1.957  -0.941  0.00  0.00    -0.008 A 
ATOM      5  C   UNL     1      -0.164  -2.736   0.212  0.00  0.00    +0.130 A 
ATOM      6  C   UNL     1      -0.265  -2.130   1.452  0.00  0.00    +0.022 A 
ATOM      7  C   UNL     1      -0.397  -0.754   1.538  0.00  0.00    +0.013 A 
ATOM      8  C   UNL     1      -0.222  -2.936   2.725  0.00  0.00    +0.138 C 
ATOM      9  C   UNL     1      -0.506  -4.407   2.415  0.00  0.00    +0.009 C 
ATOM     10  C   UNL     1       0.371  -4.828   1.229  0.00  0.00    +0.096 C 
ATOM     11  O   UNL     1      -0.035  -4.082   0.081  0.00  0.00    -0.487 OA
ATOM     12  C   UNL     1       1.839  -4.532   1.543  0.00  0.00    +0.054 C 
ATOM     13  C   UNL     1       0.193  -6.324   0.961  0.00  0.00    +0.054 C 
ATOM     14  C   UNL     1      -0.086  -2.612  -2.293  0.00  0.00    +0.047 C 
ENDROOT
BRANCH   9  15
ATOM     15  N   UNL     1      -1.924  -4.574   2.067  0.00  0.00    +0.389 N 
ATOM     16  H   UNL     1      -2.079  -5.512   1.728  0.00  0.00    -0.081 HD
BRANCH  15  17
ATOM     17  C   UNL     1      -2.751  -4.341   3.258  0.00  0.00    -0.050 C 
BRANCH  17  18
ATOM     18  C   UNL     1      -2.432  -5.399   4.316  0.00  0.00    +0.137 C 
BRANCH  18  19
ATOM     19  O   UNL     1      -1.153  -5.127   4.891  0.00  0.00    -0.397 OA
ATOM     20  H   UNL     1      -0.885  -5.759   5.572  0.00  0.00    +0.209 HD
ENDBRANCH  18  19
ENDBRANCH  17  18
ENDBRANCH  15  17
BRANCH  15  21
ATOM     21  C   UNL     1      -2.288  -3.610   1.020  0.00  0.00    -0.050 C 
BRANCH  21  22
ATOM     22  C   UNL     1      -3.781  -3.734   0.709  0.00  0.00    +0.137 C 
BRANCH  22  23
ATOM     23  O   UNL     1      -4.540  -3.186   1.788  0.00  0.00    -0.397 OA
ATOM     24  H   UNL     1      -5.496  -3.299   1.694  0.00  0.00    +0.209 HD
ENDBRANCH  22  23
ENDBRANCH  21  22
ENDBRANCH  15  21
ENDBRANCH   9  15
BRANCH   8  25
ATOM     25  O   UNL     1       1.073  -2.818   3.319  0.00  0.00    -0.389 OA
ATOM     26  H   UNL     1       1.320  -1.911   3.546  0.00  0.00    +0.210 HD
ENDBRANCH   8  25
TORSDOF 8
