REMARK  Name = ZINC15675832
REMARK  5 active torsions:
REMARK  status: ('A' for Active; 'I' for Inactive)
REMARK    1  A    between atoms: C_3  and  O_32
REMARK    2  A    between atoms: C_6  and  C_7
REMARK    3  A    between atoms: C_9  and  C_12
REMARK    4  A    between atoms: N_25  and  C_26
REMARK    5  A    between atoms: O_32  and  C_33
REMARK                            x       y       z     vdW  Elec       q    Type
REMARK                         _______ _______ _______ _____ _____    ______ ____
ROOT
ATOM      1  C   UNL     1      -3.170  -3.854   0.024  0.00  0.00    +0.172 C 
ATOM      2  C   UNL     1      -3.710  -4.202  -1.369  0.00  0.00    +0.087 C 
ATOM      3  C   UNL     1      -5.032  -3.507  -1.564  0.00  0.00    +0.040 A 
ATOM      4  C   UNL     1      -5.793  -3.003  -0.569  0.00  0.00    +0.054 A 
ATOM      5  N   UNL     1      -6.889  -2.469  -1.113  0.00  0.00    -0.348 N 
ATOM      6  C   UNL     1      -6.838  -2.619  -2.412  0.00  0.00    +0.171 A 
ATOM      7  N   UNL     1      -5.692  -3.263  -2.731  0.00  0.00    -0.349 N 
ATOM      8  H   UNL     1      -5.395  -3.504  -3.622  0.00  0.00    +0.166 HD
ATOM      9  C   UNL     1      -5.409  -3.060   0.890  0.00  0.00    +0.165 C 
ATOM     10  N   UNL     1      -4.257  -3.974   1.007  0.00  0.00    -0.268 N 
ATOM     11  C   UNL     1      -4.203  -4.897   1.987  0.00  0.00    +0.303 C 
ATOM     12  O   UNL     1      -3.295  -5.706   2.011  0.00  0.00    -0.253 OA
ATOM     13  N   UNL     1      -5.155  -4.925   2.940  0.00  0.00    -0.296 N 
ATOM     14  H   UNL     1      -5.917  -4.328   2.882  0.00  0.00    +0.151 HD
ATOM     15  H   UNL     1      -7.607  -2.039  -0.624  0.00  0.00    +0.166 HD
ENDROOT
BRANCH  13  16
ATOM     16  C   UNL     1      -5.038  -5.856   4.065  0.00  0.00    +0.074 C 
ATOM     17  C   UNL     1      -5.610  -7.217   3.662  0.00  0.00    +0.022 C 
ATOM     18  C   UNL     1      -5.489  -8.190   4.837  0.00  0.00    +0.002 C 
ATOM     19  C   UNL     1      -6.269  -7.643   6.034  0.00  0.00    +0.000 C 
ATOM     20  C   UNL     1      -5.697  -6.283   6.437  0.00  0.00    +0.002 C 
ATOM     21  C   UNL     1      -5.818  -5.310   5.263  0.00  0.00    +0.022 C 
ENDBRANCH  13  16
BRANCH   1  24
ATOM     22  C   UNL     1      -1.280  -0.756   0.017  0.00  0.00    +0.202 A 
ATOM     23  N   UNL     1      -1.389  -2.096   0.017  0.00  0.00    -0.190 NA
ATOM     24  C   UNL     1      -2.645  -2.442   0.023  0.00  0.00    +0.249 A 
ATOM     25  O   UNL     1      -3.391  -1.329   0.028  0.00  0.00    -0.336 OA
ATOM     26  N   UNL     1      -2.483  -0.238   0.029  0.00  0.00    -0.056 NA
BRANCH  22  32
ATOM     27  C   UNL     1      -0.032   1.403   0.019  0.00  0.00    +0.015 A 
ATOM     28  C   UNL     1       1.151   2.111   0.014  0.00  0.00    +0.046 A 
ATOM     29  C   UNL     1       2.365   1.437   0.003  0.00  0.00    +0.130 A 
ATOM     30  C   UNL     1       2.392   0.049  -0.005  0.00  0.00    +0.046 A 
ATOM     31  C   UNL     1       1.212  -0.665  -0.000  0.00  0.00    +0.015 A 
ATOM     32  C   UNL     1      -0.009   0.009   0.012  0.00  0.00    +0.023 A 
BRANCH  29  33
ATOM     33  O   UNL     1       3.529   2.137  -0.003  0.00  0.00    -0.406 OA
BRANCH  33  34
ATOM     34  C   UNL     1       4.741   1.380  -0.015  0.00  0.00    +0.575 C 
ATOM     35  F   UNL     1       4.779   0.579  -1.161  0.00  0.00    -0.133 F 
ATOM     36  F   UNL     1       5.835   2.252  -0.018  0.00  0.00    -0.133 F 
ATOM     37  F   UNL     1       4.796   0.569   1.123  0.00  0.00    -0.133 F 
ENDBRANCH  33  34
ENDBRANCH  29  33
ENDBRANCH  22  32
ENDBRANCH   1  24
TORSDOF 5
