REMARK  Name = ZINC19534556
REMARK  12 active torsions:
REMARK  status: ('A' for Active; 'I' for Inactive)
REMARK    1  A    between atoms: C_1  and  C_2
REMARK    2  A    between atoms: C_2  and  N_3
REMARK    3  A    between atoms: N_3  and  C_4
REMARK    4  A    between atoms: N_3  and  C_17
REMARK    5  A    between atoms: C_4  and  C_5
REMARK    6  A    between atoms: C_6  and  C_12
REMARK    7  A    between atoms: C_12  and  O_14
REMARK    8  A    between atoms: O_14  and  C_15
REMARK    9  A    between atoms: C_15  and  C_16
REMARK   10  A    between atoms: C_17  and  C_18
REMARK   11  A    between atoms: N_20  and  C_21
REMARK   12  A    between atoms: C_26  and  C_27
REMARK                            x       y       z     vdW  Elec       q    Type
REMARK                         _______ _______ _______ _____ _____    ______ ____
ROOT
ATOM      1  N   UNL     1       3.141   1.720  -1.066  0.00  0.00    +0.389 N 
ATOM      2  H   UNL     1       2.659   1.841  -2.047  0.00  0.00    -0.081 HD
ENDROOT
BRANCH   1   4
ATOM      3  C   UNL     1       4.333   2.911   0.711  0.00  0.00    -0.017 C 
ATOM      4  C   UNL     1       3.732   3.012  -0.692  0.00  0.00    -0.081 C 
ENDBRANCH   1   4
BRANCH   1   5
ATOM      5  C   UNL     1       2.109   1.315  -0.102  0.00  0.00    -0.026 C 
BRANCH   5   6
ATOM      6  C   UNL     1       0.909   2.215  -0.244  0.00  0.00    +0.007 C 
ATOM      7  C   UNL     1      -0.024   1.935  -1.180  0.00  0.00    +0.069 C 
ATOM      8  C   UNL     1      -1.212   2.869  -1.292  0.00  0.00    +0.149 C 
ATOM      9  N   UNL     1      -1.258   4.007  -0.358  0.00  0.00    -0.295 N 
ATOM     10  C   UNL     1      -0.248   4.154   0.523  0.00  0.00    +0.304 C 
ATOM     11  O   UNL     1      -0.273   5.093   1.294  0.00  0.00    -0.253 OA
ATOM     12  N   UNL     1       0.782   3.300   0.575  0.00  0.00    -0.274 N 
ATOM     13  H   UNL     1      -2.102   4.711  -0.389  0.00  0.00    +0.151 HD
ATOM     14  H   UNL     1       1.553   3.512   1.331  0.00  0.00    +0.156 HD
BRANCH   7  15
ATOM     15  C   UNL     1       0.106   0.812  -2.029  0.00  0.00    +0.338 C 
ATOM     16  O   UNL     1       1.117   0.137  -1.995  0.00  0.00    -0.245 OA
BRANCH  15  17
ATOM     17  O   UNL     1      -0.892   0.489  -2.878  0.00  0.00    -0.462 OA
BRANCH  17  18
ATOM     18  C   UNL     1      -0.694  -0.658  -3.707  0.00  0.00    +0.229 C 
ATOM     19  C   UNL     1      -1.922  -0.866  -4.594  0.00  0.00    +0.048 C 
ENDBRANCH  17  18
ENDBRANCH  15  17
ENDBRANCH   7  15
ENDBRANCH   5   6
ENDBRANCH   1   5
BRANCH   1  20
ATOM     20  C   UNL     1       4.176   0.686  -1.196  0.00  0.00    +0.019 C 
BRANCH  20  21
ATOM     21  C   UNL     1       4.975   0.929  -2.450  0.00  0.00    +0.201 C 
ATOM     22  O   UNL     1       4.716   1.877  -3.160  0.00  0.00    -0.278 OA
ATOM     23  N   UNL     1       5.977   0.091  -2.783  0.00  0.00    -0.287 N 
ATOM     24  H   UNL     1       6.155  -0.817  -2.189  0.00  0.00    +0.155 HD
BRANCH  23  25
ATOM     25  C   UNL     1       6.792   0.378  -3.885  0.00  0.00    +0.045 A 
ATOM     26  C   UNL     1       7.052   1.697  -4.233  0.00  0.00    +0.024 A 
ATOM     27  C   UNL     1       7.860   1.976  -5.317  0.00  0.00    +0.002 A 
ATOM     28  C   UNL     1       8.401   0.945  -6.063  0.00  0.00    +0.001 A 
ATOM     29  C   UNL     1       8.139  -0.369  -5.722  0.00  0.00    +0.014 A 
ATOM     30  C   UNL     1       7.336  -0.656  -4.635  0.00  0.00    +0.076 A 
BRANCH  30  31
ATOM     31  C   UNL     1       7.051  -2.088  -4.264  0.00  0.00    +0.419 C 
ATOM     32  F   UNL     1       7.704  -2.941  -5.161  0.00  0.00    -0.166 F 
ATOM     33  F   UNL     1       7.511  -2.335  -2.966  0.00  0.00    -0.166 F 
ATOM     34  F   UNL     1       5.672  -2.319  -4.322  0.00  0.00    -0.166 F 
ENDBRANCH  30  31
ENDBRANCH  23  25
ENDBRANCH  20  21
ENDBRANCH   1  20
TORSDOF 10
