REMARK  Name = ZINC35231794
REMARK  7 active torsions:
REMARK  status: ('A' for Active; 'I' for Inactive)
REMARK    1  A    between atoms: C_1  and  C_2
REMARK    2  A    between atoms: C_5  and  C_8
REMARK    3  A    between atoms: C_22  and  C_24
REMARK    4  A    between atoms: C_24  and  N_25
REMARK    5  A    between atoms: N_25  and  C_26
REMARK    6  A    between atoms: N_31  and  C_32
REMARK    7  A    between atoms: C_36  and  C_38
REMARK                            x       y       z     vdW  Elec       q    Type
REMARK                         _______ _______ _______ _____ _____    ______ ____
ROOT
ATOM      1  C   UNL     1       0.315  -4.159  -2.363  0.00  0.00    +0.159 C 
ATOM      2  C   UNL     1      -1.143  -4.548  -2.299  0.00  0.00    +0.049 A 
ATOM      3  C   UNL     1      -1.914  -5.119  -3.230  0.00  0.00    +0.025 A 
ATOM      4  C   UNL     1      -3.204  -5.269  -2.675  0.00  0.00    +0.020 A 
ATOM      5  C   UNL     1      -3.166  -4.780  -1.415  0.00  0.00    +0.092 A 
ATOM      6  N   UNL     1      -1.908  -4.339  -1.172  0.00  0.00    -0.316 N 
ATOM      7  C   UNL     1      -1.361  -3.760  -0.018  0.00  0.00    +0.068 A 
ATOM      8  C   UNL     1      -2.154  -3.309   1.018  0.00  0.00    +0.028 A 
ATOM      9  C   UNL     1      -1.568  -2.735   2.133  0.00  0.00    +0.002 A 
ATOM     10  C   UNL     1      -0.193  -2.614   2.208  0.00  0.00    +0.002 A 
ATOM     11  C   UNL     1       0.608  -3.066   1.177  0.00  0.00    +0.025 A 
ATOM     12  C   UNL     1       0.032  -3.647   0.058  0.00  0.00    +0.061 A 
ATOM     13  N   UNL     1       0.834  -4.132  -0.986  0.00  0.00    -0.255 N 
ATOM     14  C   UNL     1       2.081  -4.575  -0.728  0.00  0.00    +0.238 C 
ATOM     15  O   UNL     1       2.537  -4.484   0.392  0.00  0.00    -0.273 OA
ENDROOT
BRANCH   1  20
ATOM     16  C   UNL     1       0.836   1.075  -4.757  0.00  0.00    +0.044 C 
ATOM     17  C   UNL     1       0.700  -0.290  -4.132  0.00  0.00    -0.050 A 
ATOM     18  C   UNL     1       0.947  -1.422  -4.886  0.00  0.00    +0.004 A 
ATOM     19  C   UNL     1       0.823  -2.674  -4.313  0.00  0.00    +0.006 A 
ATOM     20  C   UNL     1       0.451  -2.794  -2.987  0.00  0.00    -0.021 A 
ATOM     21  C   UNL     1       0.205  -1.661  -2.233  0.00  0.00    +0.006 A 
ATOM     22  C   UNL     1       0.334  -0.409  -2.805  0.00  0.00    +0.004 A 
ENDBRANCH   1  20
BRANCH  14  23
ATOM     23  C   UNL     1       2.907  -5.183  -1.832  0.00  0.00    +0.205 C 
BRANCH  23  24
ATOM     24  N   UNL     1       4.157  -5.706  -1.274  0.00  0.00    -0.274 N 
ATOM     25  C   UNL     1       5.246  -4.915  -1.202  0.00  0.00    +0.307 C 
ATOM     26  O   UNL     1       5.220  -3.799  -1.686  0.00  0.00    -0.252 OA
ATOM     27  N   UNL     1       6.363  -5.359  -0.592  0.00  0.00    -0.269 N 
ATOM     28  H   UNL     1       6.420  -6.281  -0.297  0.00  0.00    +0.156 HD
BRANCH  27  29
ATOM     29  C   UNL     1       7.440  -4.490  -0.386  0.00  0.00    +0.036 A 
ATOM     30  C   UNL     1       7.208  -3.145  -0.122  0.00  0.00    +0.023 A 
ATOM     31  C   UNL     1       8.269  -2.283   0.082  0.00  0.00    +0.003 A 
ATOM     32  C   UNL     1       9.566  -2.751   0.025  0.00  0.00    +0.019 A 
ATOM     33  C   UNL     1       9.810  -4.100  -0.239  0.00  0.00    +0.054 A 
ATOM     34  C   UNL     1       8.739  -4.972  -0.439  0.00  0.00    +0.042 A 
BRANCH  33  35
ATOM     35  C   UNL     1      11.155  -4.589  -0.298  0.00  0.00    +0.099 C 
ATOM     36  N   UNL     1      12.221  -4.977  -0.345  0.00  0.00    -0.191 NA
ENDBRANCH  33  35
ENDBRANCH  27  29
BRANCH  24  37
ATOM     37  C   UNL     1       4.224  -7.089  -0.796  0.00  0.00    +0.078 C 
ATOM     38  C   UNL     1       3.068  -8.021  -1.165  0.00  0.00    +0.024 C 
ATOM     39  C   UNL     1       3.214  -7.517   0.272  0.00  0.00    +0.024 C 
ENDBRANCH  24  37
ENDBRANCH  23  24
ENDBRANCH  14  23
TORSDOF 6
