REMARK  Name = ZINC59992919
REMARK  8 active torsions:
REMARK  status: ('A' for Active; 'I' for Inactive)
REMARK    1  A    between atoms: C_1  and  C_2
REMARK    2  A    between atoms: C_5  and  C_33
REMARK    3  A    between atoms: N_8  and  C_10
REMARK    4  A    between atoms: C_10  and  C_11
REMARK    5  A    between atoms: C_10  and  C_12
REMARK    6  A    between atoms: C_10  and  C_13
REMARK    7  A    between atoms: C_13  and  N_14
REMARK    8  A    between atoms: C_21  and  C_23
REMARK                            x       y       z     vdW  Elec       q    Type
REMARK                         _______ _______ _______ _____ _____    ______ ____
ROOT
ATOM      1  N   UNL     1       2.801  -0.371   2.305  0.00  0.00    -0.301 N 
ATOM      2  C   UNL     1       3.883   0.403   2.090  0.00  0.00    +0.303 C 
ATOM      3  O   UNL     1       4.956  -0.108   1.836  0.00  0.00    -0.253 OA
ATOM      4  N   UNL     1       3.775   1.745   2.157  0.00  0.00    -0.279 N 
ATOM      5  C   UNL     1       2.542   2.494   2.461  0.00  0.00    +0.110 C 
ATOM      6  C   UNL     1       3.031   3.853   3.021  0.00  0.00    +0.021 C 
ATOM      7  C   UNL     1       4.284   4.118   2.146  0.00  0.00    +0.029 C 
ATOM      8  C   UNL     1       4.869   2.704   1.945  0.00  0.00    +0.108 C 
ATOM      9  H   UNL     1       1.945   0.037   2.508  0.00  0.00    +0.150 HD
ENDROOT
BRANCH   8  10
ATOM     10  C   UNL     1       5.406   2.568   0.544  0.00  0.00    -0.023 A 
ATOM     11  C   UNL     1       4.538   2.340  -0.508  0.00  0.00    +0.009 A 
ATOM     12  C   UNL     1       5.027   2.214  -1.795  0.00  0.00    +0.050 A 
ATOM     13  C   UNL     1       6.389   2.316  -2.034  0.00  0.00    +0.162 A 
ATOM     14  C   UNL     1       7.261   2.548  -0.977  0.00  0.00    +0.162 A 
ATOM     15  C   UNL     1       6.764   2.678   0.312  0.00  0.00    +0.055 A 
ATOM     16  O   UNL     1       8.601   2.660  -1.190  0.00  0.00    -0.485 OA
ATOM     17  C   UNL     1       9.098   2.160  -2.436  0.00  0.00    +0.270 C 
ATOM     18  C   UNL     1       8.181   2.667  -3.558  0.00  0.00    +0.270 C 
ATOM     19  O   UNL     1       6.856   2.185  -3.306  0.00  0.00    -0.485 OA
ENDBRANCH   8  10
BRANCH   1  20
ATOM     20  C   UNL     1       2.918  -1.830   2.232  0.00  0.00    +0.093 C 
BRANCH  20  21
ATOM     21  C   UNL     1       1.589  -2.469   2.639  0.00  0.00    -0.055 C 
ATOM     22  C   UNL     1       1.737  -3.992   2.646  0.00  0.00    -0.008 C 
ATOM     23  C   UNL     1       0.503  -2.067   1.639  0.00  0.00    -0.008 C 
BRANCH  21  29
ATOM     24  C   UNL     1       3.028  -2.192   7.310  0.00  0.00    +0.005 C 
ATOM     25  C   UNL     1       1.924  -1.815   6.319  0.00  0.00    -0.031 C 
ATOM     26  C   UNL     1       0.594  -2.417   6.782  0.00  0.00    +0.003 C 
ATOM     27  C   UNL     1      -0.486  -2.100   5.744  0.00  0.00    -0.031 C 
ATOM     28  C   UNL     1      -0.049  -2.639   4.380  0.00  0.00    -0.075 C 
ATOM     29  N   UNL     1       1.214  -2.007   3.982  0.00  0.00    +0.384 N 
ATOM     30  C   UNL     1       2.273  -2.364   4.934  0.00  0.00    -0.075 C 
ATOM     31  C   UNL     1      -1.802  -2.762   6.158  0.00  0.00    +0.005 C 
ATOM     32  H   UNL     1       1.098  -1.005   3.970  0.00  0.00    -0.081 HD
ENDBRANCH  21  29
ENDBRANCH  20  21
ENDBRANCH   1  20
TORSDOF 4
