REMARK  Name = ZINC05687104
REMARK  7 active torsions:
REMARK  status: ('A' for Active; 'I' for Inactive)
REMARK    1  A    between atoms: C_1  and  C_2
REMARK    2  A    between atoms: C_8  and  C_16
REMARK    3  A    between atoms: C_10  and  C_14
REMARK    4  A    between atoms: C_11  and  N_13
REMARK    5  A    between atoms: C_19  and  C_22
REMARK    6  A    between atoms: C_22  and  C_23
REMARK    7  A    between atoms: C_22  and  C_24
REMARK                            x       y       z     vdW  Elec       q    Type
REMARK                         _______ _______ _______ _____ _____    ______ ____
ROOT
ATOM      1  C   UNL     1      -0.018   1.503   0.010  0.00  0.00    +0.086 C 
ATOM      2  C   UNL     1       0.002  -0.004   0.002  0.00  0.00    +0.107 A 
ATOM      3  N   UNL     1       0.008  -0.792  -1.111  0.00  0.00    -0.313 N 
ATOM      4  H   UNL     1      -0.000  -0.490  -2.032  0.00  0.00    +0.170 HD
ATOM      5  C   UNL     1       0.026  -2.082  -0.682  0.00  0.00    +0.224 A 
ATOM      6  C   UNL     1       0.033  -2.048   0.677  0.00  0.00    +0.116 A 
ATOM      7  N   UNL     1       0.023  -0.771   1.061  0.00  0.00    -0.233 NA
ATOM      8  C   UNL     1       0.057  -3.298   1.519  0.00  0.00    +0.118 C 
ATOM      9  C   UNL     1      -0.232  -4.476   0.623  0.00  0.00    +0.100 C 
ATOM     10  C   UNL     1      -0.223  -4.381  -0.726  0.00  0.00    +0.200 C 
ATOM     11  O   UNL     1       0.036  -3.237  -1.392  0.00  0.00    -0.423 OA
ENDROOT
BRANCH   8  12
ATOM     12  C   UNL     1       1.415  -3.460   2.151  0.00  0.00    -0.033 A 
ATOM     13  C   UNL     1       2.539  -3.571   1.354  0.00  0.00    +0.005 A 
ATOM     14  C   UNL     1       3.785  -3.720   1.934  0.00  0.00    +0.004 A 
ATOM     15  C   UNL     1       3.907  -3.756   3.310  0.00  0.00    -0.045 A 
ATOM     16  C   UNL     1       2.783  -3.644   4.107  0.00  0.00    +0.004 A 
ATOM     17  C   UNL     1       1.538  -3.491   3.527  0.00  0.00    +0.005 A 
BRANCH  15  18
ATOM     18  C   UNL     1       5.266  -3.919   3.942  0.00  0.00    +0.013 C 
ATOM     19  C   UNL     1       5.563  -2.710   4.831  0.00  0.00    +0.012 C 
ATOM     20  C   UNL     1       5.285  -5.192   4.790  0.00  0.00    +0.012 C 
ENDBRANCH  15  18
ENDBRANCH   8  12
BRANCH  10  21
ATOM     21  N   UNL     1      -0.493  -5.511  -1.458  0.00  0.00    -0.328 N 
ATOM     22  H   UNL     1      -0.683  -6.348  -1.006  0.00  0.00    +0.145 HD
ATOM     23  H   UNL     1      -0.494  -5.472  -2.427  0.00  0.00    +0.145 HD
ENDBRANCH  10  21
BRANCH   9  24
ATOM     24  C   UNL     1      -0.525  -5.743   1.223  0.00  0.00    +0.101 C 
ATOM     25  N   UNL     1      -0.758  -6.748   1.698  0.00  0.00    -0.191 NA
ENDBRANCH   9  24
TORSDOF 4
