REMARK  Name = ZINC09409728
REMARK  11 active torsions:
REMARK  status: ('A' for Active; 'I' for Inactive)
REMARK    1  A    between atoms: C_1  and  C_2
REMARK    2  A    between atoms: C_2  and  C_3
REMARK    3  A    between atoms: C_2  and  O_4
REMARK    4  A    between atoms: O_4  and  C_5
REMARK    5  A    between atoms: C_8  and  C_13
REMARK    6  A    between atoms: C_10  and  O_11
REMARK    7  A    between atoms: O_11  and  C_12
REMARK    8  A    between atoms: C_17  and  C_19
REMARK    9  A    between atoms: C_19  and  C_21
REMARK   10  A    between atoms: C_25  and  O_27
REMARK   11  A    between atoms: O_27  and  C_28
REMARK                            x       y       z     vdW  Elec       q    Type
REMARK                         _______ _______ _______ _____ _____    ______ ____
ROOT
ATOM      1  C   UNL     1       4.450   1.870  -1.016  0.00  0.00    +0.103 C 
ATOM      2  N   UNL     1       4.356   0.590  -1.166  0.00  0.00    -0.087 NA
ATOM      3  O   UNL     1       5.617  -0.055  -1.206  0.00  0.00    -0.371 OA
ATOM      4  C   UNL     1       6.581   0.864  -0.690  0.00  0.00    +0.255 C 
ATOM      5  C   UNL     1       5.924   2.232  -0.933  0.00  0.00    +0.173 C 
ATOM      6  C   UNL     1       7.907   0.755  -1.382  0.00  0.00    +0.030 A 
ATOM      7  C   UNL     1       8.306   0.863  -2.696  0.00  0.00    +0.010 A 
ATOM      8  C   UNL     1       9.640   0.710  -3.029  0.00  0.00    +0.001 A 
ATOM      9  C   UNL     1      10.571   0.445  -2.041  0.00  0.00    +0.002 A 
ATOM     10  C   UNL     1      10.176   0.334  -0.724  0.00  0.00    +0.024 A 
ATOM     11  C   UNL     1       8.835   0.488  -0.379  0.00  0.00    +0.041 A 
ATOM     12  N   UNL     1       8.199   0.422   0.863  0.00  0.00    -0.281 N 
ATOM     13  C   UNL     1       6.871   0.631   0.765  0.00  0.00    +0.270 C 
ATOM     14  O   UNL     1       6.068   0.631   1.674  0.00  0.00    -0.271 OA
ATOM     15  H   UNL     1       8.659   0.247   1.698  0.00  0.00    +0.155 HD
ENDROOT
BRANCH   1  19
ATOM     16  C   UNL     1       1.204   4.604  -0.804  0.00  0.00    +0.162 A 
ATOM     17  C   UNL     1       2.502   5.051  -0.597  0.00  0.00    +0.050 A 
ATOM     18  C   UNL     1       3.557   4.166  -0.665  0.00  0.00    +0.013 A 
ATOM     19  C   UNL     1       3.322   2.818  -0.942  0.00  0.00    +0.004 A 
ATOM     20  C   UNL     1       2.015   2.367  -1.145  0.00  0.00    +0.059 A 
ATOM     21  C   UNL     1       0.962   3.260  -1.081  0.00  0.00    +0.162 A 
BRANCH  21  22
ATOM     22  O   UNL     1      -0.311   2.826  -1.284  0.00  0.00    -0.491 OA
ATOM     23  C   UNL     1      -0.485   1.436  -1.564  0.00  0.00    +0.277 C 
ENDBRANCH  21  22
BRANCH  16  24
ATOM     24  O   UNL     1       0.167   5.480  -0.736  0.00  0.00    -0.486 OA
BRANCH  24  26
ATOM     25  C   UNL     1       0.894   7.629  -1.569  0.00  0.00    +0.051 C 
ATOM     26  C   UNL     1       0.473   6.819  -0.342  0.00  0.00    +0.167 C 
ATOM     27  C   UNL     1      -0.763   7.459   0.293  0.00  0.00    +0.051 C 
ENDBRANCH  24  26
ENDBRANCH  16  24
ENDBRANCH   1  19
BRANCH   5  28
ATOM     28  C   UNL     1       6.401   2.837  -2.229  0.00  0.00    +0.177 C 
ATOM     29  O   UNL     1       5.876   2.520  -3.275  0.00  0.00    -0.291 OA
BRANCH  28  30
ATOM     30  C   UNL     1       7.503   3.812  -2.224  0.00  0.00    +0.022 A 
ATOM     31  C   UNL     1       8.179   4.103  -1.034  0.00  0.00    +0.011 A 
ATOM     32  C   UNL     1       9.213   5.014  -1.035  0.00  0.00    +0.004 A 
ATOM     33  C   UNL     1       9.580   5.650  -2.208  0.00  0.00    +0.045 A 
ATOM     34  C   UNL     1       8.912   5.374  -3.393  0.00  0.00    +0.121 A 
ATOM     35  C   UNL     1       7.874   4.457  -3.407  0.00  0.00    +0.057 A 
BRANCH  34  36
ATOM     36  O   UNL     1       9.277   6.003  -4.541  0.00  0.00    -0.495 OA
ATOM     37  C   UNL     1      10.355   6.936  -4.454  0.00  0.00    +0.277 C 
ENDBRANCH  34  36
ENDBRANCH  28  30
ENDBRANCH   5  28
TORSDOF 7
