REMARK  Name = ZINC02074522
REMARK  6 active torsions:
REMARK  status: ('A' for Active; 'I' for Inactive)
REMARK    1  A    between atoms: C_12  and  S_19
REMARK    2  A    between atoms: C_14  and  C_15
REMARK    3  A    between atoms: S_19  and  C_20
REMARK    4  A    between atoms: C_20  and  C_21
REMARK    5  A    between atoms: N_23  and  C_24
REMARK    6  A    between atoms: C_25  and  C_33
REMARK                            x       y       z     vdW  Elec       q    Type
REMARK                         _______ _______ _______ _____ _____    ______ ____
ROOT
ATOM      1  C   UNL     1      -0.013   1.386  -0.020  0.00  0.00    +0.000 A 
ATOM      2  C   UNL     1       1.172   2.100  -0.020  0.00  0.00    +0.001 A 
ATOM      3  C   UNL     1       2.381   1.433  -0.040  0.00  0.00    +0.010 A 
ATOM      4  C   UNL     1       2.402   0.043  -0.064  0.00  0.00    +0.004 A 
ATOM      5  C   UNL     1       1.206  -0.675  -0.038  0.00  0.00    -0.038 A 
ATOM      6  C   UNL     1       0.004   0.003  -0.028  0.00  0.00    +0.004 A 
ATOM      7  C   UNL     1       1.228  -2.179   0.011  0.00  0.00    +0.040 C 
ATOM      8  C   UNL     1       2.385  -2.733  -0.815  0.00  0.00    +0.044 C 
ATOM      9  C   UNL     1       3.674  -2.053  -0.448  0.00  0.00    +0.009 A 
ATOM     10  C   UNL     1       3.681  -0.702  -0.098  0.00  0.00    +0.079 A 
ATOM     11  N   UNL     1       4.833  -0.113   0.200  0.00  0.00    -0.222 NA
ATOM     12  C   UNL     1       5.962  -0.808   0.178  0.00  0.00    +0.190 A 
ATOM     13  N   UNL     1       5.983  -2.096  -0.136  0.00  0.00    -0.218 NA
ATOM     14  C   UNL     1       4.871  -2.742  -0.451  0.00  0.00    +0.152 A 
ENDROOT
BRANCH  14  15
ATOM     15  C   UNL     1       4.910  -4.206  -0.807  0.00  0.00    +0.435 C 
ATOM     16  F   UNL     1       4.311  -4.398  -2.057  0.00  0.00    -0.164 F 
ATOM     17  F   UNL     1       6.240  -4.638  -0.857  0.00  0.00    -0.164 F 
ATOM     18  F   UNL     1       4.217  -4.941   0.161  0.00  0.00    -0.164 F 
ENDBRANCH  14  15
BRANCH  12  19
ATOM     19  S   UNL     1       7.475   0.002   0.578  0.00  0.00    -0.077 S 
BRANCH  19  20
ATOM     20  C   UNL     1       8.726  -1.303   0.422  0.00  0.00    +0.173 C 
BRANCH  20  21
ATOM     21  C   UNL     1      10.085  -0.737   0.742  0.00  0.00    +0.228 C 
ATOM     22  O   UNL     1      10.199   0.432   1.044  0.00  0.00    -0.275 OA
ATOM     23  N   UNL     1      11.174  -1.529   0.691  0.00  0.00    -0.278 N 
ATOM     24  H   UNL     1      11.083  -2.464   0.449  0.00  0.00    +0.155 HD
BRANCH  23  25
ATOM     25  C   UNL     1      12.427  -1.007   0.985  0.00  0.00    +0.090 A 
ATOM     26  C   UNL     1      13.646  -1.665   0.979  0.00  0.00    +0.084 A 
ATOM     27  C   UNL     1      14.822  -0.887   1.327  0.00  0.00    -0.018 A 
ATOM     28  C   UNL     1      14.563   0.407   1.617  0.00  0.00    -0.004 A 
ATOM     29  S   UNL     1      12.812   0.568   1.423  0.00  0.00    -0.077 S 
ATOM     30  C   UNL     1      15.555   1.456   2.011  0.00  0.00    +0.043 C 
ATOM     31  C   UNL     1      16.866   0.758   2.403  0.00  0.00    +0.005 C 
ATOM     32  C   UNL     1      17.223  -0.268   1.324  0.00  0.00    +0.005 C 
ATOM     33  C   UNL     1      16.239  -1.439   1.371  0.00  0.00    +0.037 C 
BRANCH  26  34
ATOM     34  C   UNL     1      13.742  -3.054   0.644  0.00  0.00    +0.102 C 
ATOM     35  N   UNL     1      13.819  -4.155   0.379  0.00  0.00    -0.191 NA
ENDBRANCH  26  34
ENDBRANCH  23  25
ENDBRANCH  20  21
ENDBRANCH  19  20
ENDBRANCH  12  19
TORSDOF 6
