REMARK  Name = ZINC38596688
REMARK  7 active torsions:
REMARK  status: ('A' for Active; 'I' for Inactive)
REMARK    1  A    between atoms: C_1  and  O_2
REMARK    2  A    between atoms: O_2  and  C_3
REMARK    3  A    between atoms: C_6  and  C_15
REMARK    4  A    between atoms: C_8  and  C_9
REMARK    5  A    between atoms: C_9  and  N_10
REMARK    6  A    between atoms: C_15  and  C_16
REMARK    7  A    between atoms: C_15  and  C_25
REMARK                            x       y       z     vdW  Elec       q    Type
REMARK                         _______ _______ _______ _____ _____    ______ ____
ROOT
ATOM      1  C   UNL     1      -4.981  -2.629   0.034  0.00  0.00    +0.080 C 
ENDROOT
BRANCH   1   2
ATOM      2  C   UNL     1      -5.643  -2.288   1.344  0.00  0.00    +0.090 A 
ATOM      3  C   UNL     1      -5.073  -2.684   2.547  0.00  0.00    +0.260 A 
ATOM      4  O   UNL     1      -3.929  -3.373   2.555  0.00  0.00    -0.267 OA
ATOM      5  N   UNL     1      -5.689  -2.365   3.716  0.00  0.00    -0.302 N 
ATOM      6  C   UNL     1      -6.841  -1.671   3.714  0.00  0.00    +0.161 A 
ATOM      7  S   UNL     1      -7.594  -1.284   5.202  0.00  0.00    -0.013 S 
ATOM      8  N   UNL     1      -7.412  -1.276   2.561  0.00  0.00    -0.302 N 
ATOM      9  C   UNL     1      -6.831  -1.567   1.367  0.00  0.00    +0.260 A 
ATOM     10  O   UNL     1      -7.398  -1.168   0.227  0.00  0.00    -0.267 OA
ATOM     11  H   UNL     1      -5.295  -2.640   4.558  0.00  0.00    +0.171 HD
ATOM     12  H   UNL     1      -8.243  -0.776   2.582  0.00  0.00    +0.171 HD
ENDBRANCH   1   2
BRANCH   1  13
ATOM     13  C   UNL     1      -6.036  -2.681  -1.073  0.00  0.00    +0.175 C 
ATOM     14  C   UNL     1      -7.152  -3.604  -0.619  0.00  0.00    +0.231 C 
ATOM     15  O   UNL     1      -7.771  -3.394   0.403  0.00  0.00    -0.275 OA
ATOM     16  N   UNL     1      -7.427  -4.669  -1.404  0.00  0.00    -0.266 N 
ATOM     17  C   UNL     1      -6.743  -4.898  -2.532  0.00  0.00    +0.163 C 
ATOM     18  S   UNL     1      -7.172  -6.276  -3.454  0.00  0.00    -0.016 S 
ATOM     19  N   UNL     1      -5.751  -4.130  -2.992  0.00  0.00    -0.157 NA
ATOM     20  C   UNL     1      -5.344  -3.060  -2.368  0.00  0.00    +0.251 C 
ATOM     21  O   UNL     1      -4.341  -2.314  -2.861  0.00  0.00    -0.273 OA
ATOM     22  H   UNL     1      -8.134  -5.280  -1.145  0.00  0.00    +0.157 HD
ENDBRANCH   1  13
BRANCH   1  26
ATOM     23  C   UNL     1      -2.071   0.354  -0.910  0.00  0.00    +0.121 A 
ATOM     24  C   UNL     1      -3.408   0.704  -0.782  0.00  0.00    +0.046 A 
ATOM     25  C   UNL     1      -4.346  -0.263  -0.477  0.00  0.00    +0.008 A 
ATOM     26  C   UNL     1      -3.955  -1.577  -0.299  0.00  0.00    -0.038 A 
ATOM     27  C   UNL     1      -2.623  -1.927  -0.426  0.00  0.00    +0.009 A 
ATOM     28  C   UNL     1      -1.682  -0.966  -0.736  0.00  0.00    -0.022 A 
BRANCH  23  30
ATOM     29  C   UNL     1      -1.619   2.642  -1.376  0.00  0.00    +0.277 C 
ATOM     30  O   UNL     1      -1.146   1.303  -1.211  0.00  0.00    -0.495 OA
ENDBRANCH  23  30
BRANCH  28  31
ATOM     31  C   UNL     1      -0.231  -1.349  -0.880  0.00  0.00    -0.039 C 
BRANCH  31  32
ATOM     32  N   UNL     1       0.133  -1.360  -2.303  0.00  0.00    +0.382 N 
ATOM     33  C   UNL     1      -0.606  -2.436  -2.998  0.00  0.00    -0.078 C 
ATOM     34  C   UNL     1       0.389  -2.982  -4.053  0.00  0.00    -0.020 C 
ATOM     35  C   UNL     1       1.735  -2.901  -3.286  0.00  0.00    -0.020 C 
ATOM     36  C   UNL     1       1.578  -1.617  -2.443  0.00  0.00    -0.078 C 
ATOM     37  H   UNL     1      -0.095  -0.470  -2.720  0.00  0.00    -0.081 HD
ENDBRANCH  31  32
ENDBRANCH  28  31
ENDBRANCH   1  26
TORSDOF 6
