REMARK  Name = ZINC09325749
REMARK  9 active torsions:
REMARK  status: ('A' for Active; 'I' for Inactive)
REMARK    1  A    between atoms: C_1  and  C_2
REMARK    2  A    between atoms: C_2  and  N_3
REMARK    3  A    between atoms: C_5  and  O_32
REMARK    4  A    between atoms: N_12  and  C_13
REMARK    5  A    between atoms: C_13  and  C_15
REMARK    6  A    between atoms: C_20  and  N_21
REMARK    7  A    between atoms: N_21  and  S_22
REMARK    8  A    between atoms: S_22  and  C_25
REMARK    9  A    between atoms: O_32  and  C_33
REMARK                            x       y       z     vdW  Elec       q    Type
REMARK                         _______ _______ _______ _____ _____    ______ ____
ROOT
ATOM      1  C   UNL     1       4.113   1.718   0.361  0.00  0.00    +0.271 C 
ATOM      2  O   UNL     1       3.680   2.857   0.402  0.00  0.00    -0.268 OA
ENDROOT
BRANCH   1  12
ATOM      3  N   UNL     1       1.047  -0.019   1.139  0.00  0.00    -0.318 N 
ATOM      4  C   UNL     1      -0.245   0.398   1.409  0.00  0.00    +0.101 A 
ATOM      5  C   UNL     1      -1.374  -0.391   1.704  0.00  0.00    +0.145 A 
ATOM      6  C   UNL     1      -2.597   0.196   1.951  0.00  0.00    +0.049 A 
ATOM      7  C   UNL     1      -2.752   1.571   1.917  0.00  0.00    +0.025 A 
ATOM      8  C   UNL     1      -1.657   2.369   1.633  0.00  0.00    +0.057 A 
ATOM      9  C   UNL     1      -0.435   1.785   1.383  0.00  0.00    +0.061 A 
ATOM     10  S   UNL     1       1.179   2.410   0.988  0.00  0.00    -0.050 S 
ATOM     11  C   UNL     1       2.017   0.897   0.875  0.00  0.00    +0.167 A 
ATOM     12  N   UNL     1       3.298   0.683   0.597  0.00  0.00    -0.152 NA
ATOM     13 CL   UNL     1      -1.825   4.096   1.584  0.00  0.00    -0.082 Cl
BRANCH   3  15
ATOM     14  C   UNL     1       2.414  -1.735   0.057  0.00  0.00    +0.027 C 
ATOM     15  C   UNL     1       1.370  -1.448   1.139  0.00  0.00    +0.121 C 
ENDBRANCH   3  15
BRANCH   5  16
ATOM     16  O   UNL     1      -1.256  -1.745   1.745  0.00  0.00    -0.493 OA
ATOM     17  C   UNL     1      -2.437  -2.490   2.049  0.00  0.00    +0.277 C 
ENDBRANCH   5  16
ENDBRANCH   1  12
BRANCH   1  18
ATOM     18  C   UNL     1       5.539   1.480   0.052  0.00  0.00    +0.061 A 
ATOM     19  C   UNL     1       6.041   0.179   0.010  0.00  0.00    +0.015 A 
ATOM     20  C   UNL     1       7.370  -0.037  -0.283  0.00  0.00    +0.001 A 
ATOM     21  C   UNL     1       8.215   1.033  -0.527  0.00  0.00    +0.002 A 
ATOM     22  C   UNL     1       7.735   2.326  -0.484  0.00  0.00    +0.025 A 
ATOM     23  C   UNL     1       6.396   2.562  -0.195  0.00  0.00    +0.060 A 
BRANCH  23  24
ATOM     24  N   UNL     1       5.910   3.863  -0.151  0.00  0.00    -0.216 N 
ATOM     25  H   UNL     1       5.226   4.104   0.494  0.00  0.00    +0.174 HD
BRANCH  24  26
ATOM     26  S   UNL     1       6.497   5.003  -1.199  0.00  0.00    +0.072 S 
ATOM     27  O   UNL     1       5.721   6.176  -1.001  0.00  0.00    -0.150 OA
ATOM     28  O   UNL     1       7.911   4.993  -1.059  0.00  0.00    -0.150 OA
BRANCH  26  29
ATOM     29  C   UNL     1       6.149   4.438  -2.832  0.00  0.00    +0.108 A 
ATOM     30  C   UNL     1       7.068   3.653  -3.502  0.00  0.00    +0.029 A 
ATOM     31  C   UNL     1       6.792   3.206  -4.781  0.00  0.00    +0.002 A 
ATOM     32  C   UNL     1       5.602   3.552  -5.393  0.00  0.00    +0.000 A 
ATOM     33  C   UNL     1       4.686   4.342  -4.724  0.00  0.00    +0.002 A 
ATOM     34  C   UNL     1       4.959   4.785  -3.444  0.00  0.00    +0.029 A 
ENDBRANCH  26  29
ENDBRANCH  24  26
ENDBRANCH  23  24
ENDBRANCH   1  18
TORSDOF 7
