REMARK  Name = ZINC45843442
REMARK  8 active torsions:
REMARK  status: ('A' for Active; 'I' for Inactive)
REMARK    1  A    between atoms: C_1  and  C_2
REMARK    2  A    between atoms: C_4  and  N_11
REMARK    3  A    between atoms: C_6  and  C_8
REMARK    4  A    between atoms: C_8  and  C_9
REMARK    5  A    between atoms: C_8  and  C_10
REMARK    6  A    between atoms: C_17  and  C_19
REMARK    7  A    between atoms: C_21  and  C_31
REMARK    8  A    between atoms: N_22  and  C_24
REMARK                            x       y       z     vdW  Elec       q    Type
REMARK                         _______ _______ _______ _____ _____    ______ ____
ROOT
ATOM      1  N   UNL     1      -0.140  -2.868  -2.298  0.00  0.00    -0.312 N 
ATOM      2  C   UNL     1      -0.033  -4.333  -2.279  0.00  0.00    +0.125 C 
ATOM      3  C   UNL     1      -1.178  -4.919  -3.114  0.00  0.00    +0.127 C 
ATOM      4  N   UNL     1      -1.215  -4.228  -4.411  0.00  0.00    -0.293 N 
ATOM      5  C   UNL     1      -1.323  -2.763  -4.429  0.00  0.00    +0.127 C 
ATOM      6  C   UNL     1      -0.183  -2.177  -3.594  0.00  0.00    +0.125 C 
ATOM      7  C   UNL     1      -1.151  -4.926  -5.562  0.00  0.00    +0.267 C 
ATOM      8  O   UNL     1      -1.176  -6.141  -5.539  0.00  0.00    -0.268 OA
ENDROOT
BRANCH   1  12
ATOM      9  C   UNL     1      -0.486   1.413   0.107  0.00  0.00    +0.063 C 
ATOM     10  C   UNL     1      -0.373  -0.089   0.073  0.00  0.00    +0.017 A 
ATOM     11  C   UNL     1      -0.310  -0.758  -1.133  0.00  0.00    +0.064 A 
ATOM     12  C   UNL     1      -0.206  -2.151  -1.114  0.00  0.00    +0.125 A 
ATOM     13  N   UNL     1      -0.170  -2.777   0.058  0.00  0.00    -0.219 NA
ATOM     14  C   UNL     1      -0.233  -2.098   1.185  0.00  0.00    +0.112 A 
ATOM     15  N   UNL     1      -0.327  -0.784   1.201  0.00  0.00    -0.347 N 
ATOM     16  H   UNL     1      -0.366  -0.318   2.051  0.00  0.00    +0.167 HD
BRANCH  14  17
ATOM     17  C   UNL     1      -0.189  -2.845   2.494  0.00  0.00    +0.049 C 
ATOM     18  C   UNL     1       1.249  -2.881   3.013  0.00  0.00    +0.015 C 
ATOM     19  C   UNL     1      -1.083  -2.137   3.515  0.00  0.00    +0.015 C 
ENDBRANCH  14  17
ENDBRANCH   1  12
BRANCH   7  20
ATOM     20  C   UNL     1      -1.052  -4.214  -6.853  0.00  0.00    +0.148 A 
ATOM     21  C   UNL     1      -1.119  -4.798  -8.136  0.00  0.00    +0.066 A 
ATOM     22  C   UNL     1      -0.980  -3.758  -9.017  0.00  0.00    +0.110 A 
ATOM     23  N   UNL     1      -0.839  -2.623  -8.267  0.00  0.00    -0.228 N 
ATOM     24  N   UNL     1      -0.889  -2.915  -7.017  0.00  0.00    -0.161 NA
BRANCH  23  25
ATOM     25  C   UNL     1      -0.669  -1.333  -8.784  0.00  0.00    +0.066 A 
ATOM     26  C   UNL     1      -1.472  -0.891  -9.828  0.00  0.00    +0.029 A 
ATOM     27  C   UNL     1      -1.303   0.382 -10.337  0.00  0.00    +0.022 A 
ATOM     28  C   UNL     1      -0.335   1.217  -9.807  0.00  0.00    +0.041 A 
ATOM     29  C   UNL     1       0.467   0.779  -8.768  0.00  0.00    +0.022 A 
ATOM     30  C   UNL     1       0.298  -0.491  -8.251  0.00  0.00    +0.029 A 
ATOM     31 CL   UNL     1      -0.125   2.816 -10.449  0.00  0.00    -0.084 Cl
ENDBRANCH  23  25
BRANCH  22  32
ATOM     32  C   UNL     1      -0.982  -3.846 -10.487  0.00  0.00    +0.153 A 
ATOM     33  C   UNL     1      -1.146  -4.982 -11.220  0.00  0.00    +0.051 A 
ATOM     34  C   UNL     1      -1.079  -4.603 -12.575  0.00  0.00    +0.042 A 
ATOM     35  C   UNL     1      -0.880  -3.270 -12.604  0.00  0.00    +0.196 A 
ATOM     36  O   UNL     1      -0.828  -2.815 -11.341  0.00  0.00    -0.461 OA
ENDBRANCH  22  32
ENDBRANCH   7  20
TORSDOF 5
