REMARK  Name = ZINC38932459
REMARK  9 active torsions:
REMARK  status: ('A' for Active; 'I' for Inactive)
REMARK    1  A    between atoms: C_1  and  C_2
REMARK    2  A    between atoms: C_2  and  C_3
REMARK    3  A    between atoms: C_2  and  C_4
REMARK    4  A    between atoms: C_4  and  C_5
REMARK    5  A    between atoms: C_8  and  C_11
REMARK    6  A    between atoms: C_13  and  C_17
REMARK    7  A    between atoms: N_19  and  N_20
REMARK    8  A    between atoms: C_21  and  C_22
REMARK    9  A    between atoms: C_27  and  O_28
REMARK                            x       y       z     vdW  Elec       q    Type
REMARK                         _______ _______ _______ _____ _____    ______ ____
ROOT
ATOM      1  C   UNL     1      -4.075   0.982  -4.875  0.00  0.00    +0.092 C 
ATOM      2  C   UNL     1      -4.093   0.241  -6.000  0.00  0.00    +0.041 C 
ATOM      3  C   UNL     1      -4.908   1.076  -6.972  0.00  0.00    +0.240 C 
ATOM      4  N   UNL     1      -5.257   2.267  -6.181  0.00  0.00    -0.170 NA
ATOM      5  N   UNL     1      -4.772   2.134  -5.055  0.00  0.00    -0.153 NA
ENDROOT
BRANCH   1   9
ATOM      6  C   UNL     1      -2.125  -0.137  -1.266  0.00  0.00    -0.047 A 
ATOM      7  C   UNL     1      -2.807   1.064  -1.337  0.00  0.00    +0.004 A 
ATOM      8  C   UNL     1      -3.442   1.432  -2.506  0.00  0.00    +0.010 A 
ATOM      9  C   UNL     1      -3.394   0.591  -3.616  0.00  0.00    +0.002 A 
ATOM     10  C   UNL     1      -2.705  -0.617  -3.539  0.00  0.00    +0.010 A 
ATOM     11  C   UNL     1      -2.069  -0.973  -2.367  0.00  0.00    +0.004 A 
BRANCH   6  12
ATOM     12  C   UNL     1      -1.433  -0.534   0.013  0.00  0.00    +0.038 C 
BRANCH  12  14
ATOM     13  C   UNL     1      -0.019   1.526   0.010  0.00  0.00    +0.007 C 
ATOM     14  C   UNL     1       0.002  -0.004   0.002  0.00  0.00    -0.013 C 
ATOM     15  C   UNL     1       0.742  -0.511   1.242  0.00  0.00    +0.007 C 
ENDBRANCH  12  14
ENDBRANCH   6  12
ENDBRANCH   1   9
BRANCH   3  16
ATOM     16  C   UNL     1      -4.079   1.455  -8.172  0.00  0.00    +0.263 C 
ATOM     17  O   UNL     1      -3.581   2.559  -8.242  0.00  0.00    -0.271 OA
ATOM     18  N   UNL     1      -3.890   0.567  -9.169  0.00  0.00    -0.205 N 
ATOM     19  H   UNL     1      -4.288  -0.316  -9.113  0.00  0.00    +0.177 HD
BRANCH  18  20
ATOM     20  N   UNL     1      -3.120   0.919 -10.285  0.00  0.00    -0.188 NA
ATOM     21  C   UNL     1      -2.938   0.064 -11.244  0.00  0.00    +0.142 C 
BRANCH  21  22
ATOM     22  C   UNL     1      -2.128   0.435 -12.418  0.00  0.00    +0.037 A 
ATOM     23  C   UNL     1      -1.935  -0.480 -13.455  0.00  0.00    +0.028 A 
ATOM     24  C   UNL     1      -1.175  -0.127 -14.551  0.00  0.00    +0.019 A 
ATOM     25  C   UNL     1      -0.602   1.132 -14.627  0.00  0.00    +0.019 A 
ATOM     26  C   UNL     1      -0.786   2.046 -13.607  0.00  0.00    +0.047 A 
ATOM     27  C   UNL     1      -1.551   1.709 -12.502  0.00  0.00    +0.126 A 
ATOM     28 BR   UNL     1      -0.914  -1.366 -15.956  0.00  0.00    -0.050 Br
BRANCH  27  29
ATOM     29  O   UNL     1      -1.736   2.609 -11.501  0.00  0.00    -0.506 OA
ATOM     30  H   UNL     1      -1.065   2.568 -10.806  0.00  0.00    +0.292 HD
ENDBRANCH  27  29
ENDBRANCH  21  22
ENDBRANCH  18  20
ENDBRANCH   3  16
TORSDOF 7
