REMARK  Name = ZINC35378943
REMARK  9 active torsions:
REMARK  status: ('A' for Active; 'I' for Inactive)
REMARK    1  A    between atoms: C_1  and  C_2
REMARK    2  A    between atoms: C_5  and  N_11
REMARK    3  A    between atoms: C_7  and  N_8
REMARK    4  A    between atoms: N_8  and  C_9
REMARK    5  A    between atoms: N_8  and  C_10
REMARK    6  A    between atoms: C_12  and  C_14
REMARK    7  A    between atoms: N_19  and  S_21
REMARK    8  A    between atoms: S_21  and  C_24
REMARK    9  A    between atoms: C_29  and  C_30
REMARK                            x       y       z     vdW  Elec       q    Type
REMARK                         _______ _______ _______ _____ _____    ______ ____
ROOT
ATOM      1  C   UNL     1      -0.134  -6.343  -1.202  0.00  0.00    +0.091 C 
ATOM      2  C   UNL     1      -1.377  -6.780  -0.424  0.00  0.00    +0.015 C 
ATOM      3  C   UNL     1      -1.455  -8.309  -0.402  0.00  0.00    +0.018 C 
ATOM      4  C   UNL     1      -1.574  -8.831  -1.837  0.00  0.00    +0.109 C 
ATOM      5  N   UNL     1      -0.459  -8.295  -2.629  0.00  0.00    -0.176 NA
ATOM      6  C   UNL     1      -0.237  -6.843  -2.646  0.00  0.00    +0.122 C 
ENDROOT
BRANCH   1   8
ATOM      7  N   UNL     1       0.059  -4.175  -0.027  0.00  0.00    -0.285 N 
ATOM      8  C   UNL     1      -0.040  -4.839  -1.196  0.00  0.00    +0.222 C 
ATOM      9  O   UNL     1      -0.053  -4.226  -2.243  0.00  0.00    -0.275 OA
ATOM     10  H   UNL     1       0.146  -4.666   0.804  0.00  0.00    +0.155 HD
BRANCH   7  15
ATOM     11  C   UNL     1      -0.051   1.502   0.017  0.00  0.00    +0.045 C 
ATOM     12  C   UNL     1      -0.021  -0.004   0.007  0.00  0.00    -0.029 A 
ATOM     13  C   UNL     1      -0.756  -0.703  -0.932  0.00  0.00    +0.007 A 
ATOM     14  C   UNL     1      -0.731  -2.084  -0.945  0.00  0.00    +0.024 A 
ATOM     15  C   UNL     1       0.034  -2.776  -0.014  0.00  0.00    +0.035 A 
ATOM     16  C   UNL     1       0.773  -2.078   0.930  0.00  0.00    +0.046 A 
ATOM     17  C   UNL     1       0.750  -0.690   0.937  0.00  0.00    +0.034 A 
BRANCH  17  18
ATOM     18  N   UNL     1       1.498   0.017   1.882  0.00  0.00    -0.336 N 
ATOM     19  C   UNL     1       2.875   0.414   1.579  0.00  0.00    +0.129 C 
ATOM     20  C   UNL     1       0.904   0.362   3.176  0.00  0.00    +0.129 C 
ENDBRANCH  17  18
ENDBRANCH   7  15
ENDBRANCH   1   8
BRANCH   5  21
ATOM     21  S   UNL     1       0.530  -9.309  -3.487  0.00  0.00    +0.061 S 
ATOM     22  O   UNL     1       1.763  -8.624  -3.659  0.00  0.00    -0.153 OA
ATOM     23  O   UNL     1       0.447 -10.583  -2.861  0.00  0.00    -0.153 OA
BRANCH  21  24
ATOM     24  C   UNL     1      -0.174  -9.490  -5.092  0.00  0.00    +0.112 A 
ATOM     25  C   UNL     1       0.508  -9.019  -6.200  0.00  0.00    +0.076 A 
ATOM     26  C   UNL     1      -0.045  -9.161  -7.460  0.00  0.00    +0.144 A 
ATOM     27  C   UNL     1      -1.287  -9.778  -7.609  0.00  0.00    +0.076 A 
ATOM     28  C   UNL     1      -1.964 -10.247  -6.496  0.00  0.00    +0.032 A 
ATOM     29  C   UNL     1      -1.403 -10.106  -5.239  0.00  0.00    -0.022 A 
ATOM     30  C   UNL     1      -2.135 -10.621  -4.027  0.00  0.00    +0.046 C 
ATOM     31  N   UNL     1      -1.836  -9.913  -8.892  0.00  0.00    -0.280 N 
ATOM     32  C   UNL     1      -1.037  -9.741  -9.967  0.00  0.00    +0.255 C 
ATOM     33  O   UNL     1      -1.496  -9.823 -11.087  0.00  0.00    -0.272 OA
ATOM     34  C   UNL     1       0.428  -9.446  -9.771  0.00  0.00    +0.325 C 
ATOM     35  O   UNL     1       0.612  -8.706  -8.561  0.00  0.00    -0.481 OA
ATOM     36  H   UNL     1      -2.775 -10.128  -9.005  0.00  0.00    +0.155 HD
ENDBRANCH  21  24
ENDBRANCH   5  21
TORSDOF 5
