REMARK  Name = ZINC58436523
REMARK  8 active torsions:
REMARK  status: ('A' for Active; 'I' for Inactive)
REMARK    1  A    between atoms: C_1  and  C_2
REMARK    2  A    between atoms: C_2  and  C_4
REMARK    3  A    between atoms: C_2  and  N_13
REMARK    4  A    between atoms: C_7  and  C_10
REMARK    5  A    between atoms: C_10  and  C_11
REMARK    6  A    between atoms: C_10  and  C_12
REMARK    7  A    between atoms: N_16  and  C_17
REMARK    8  A    between atoms: C_17  and  C_18
REMARK                            x       y       z     vdW  Elec       q    Type
REMARK                         _______ _______ _______ _____ _____    ______ ____
ROOT
ATOM      1  N   UNL     1       0.688  -0.476  -1.203  0.00  0.00    -0.293 N 
ATOM      2  C   UNL     1       0.006  -0.608  -2.358  0.00  0.00    +0.300 C 
ATOM      3  O   UNL     1      -1.178  -0.335  -2.400  0.00  0.00    -0.253 OA
ATOM      4  N   UNL     1       0.637  -1.043  -3.467  0.00  0.00    -0.296 N 
ATOM      5  H   UNL     1       1.632  -0.695  -1.170  0.00  0.00    +0.151 HD
ATOM      6  H   UNL     1       1.582  -1.261  -3.434  0.00  0.00    +0.150 HD
ENDROOT
BRANCH   1   8
ATOM      7  C   UNL     1      -0.019   1.526   0.010  0.00  0.00    +0.033 C 
ATOM      8  C   UNL     1       0.002  -0.004   0.002  0.00  0.00    +0.102 C 
BRANCH   8   9
ATOM      9  C   UNL     1       0.731  -0.503   1.223  0.00  0.00    -0.027 A 
ATOM     10  C   UNL     1       2.113  -0.514   1.247  0.00  0.00    +0.006 A 
ATOM     11  C   UNL     1       2.782  -0.972   2.366  0.00  0.00    +0.004 A 
ATOM     12  C   UNL     1       2.068  -1.419   3.463  0.00  0.00    -0.045 A 
ATOM     13  C   UNL     1       0.686  -1.407   3.439  0.00  0.00    +0.004 A 
ATOM     14  C   UNL     1       0.017  -0.945   2.321  0.00  0.00    +0.006 A 
BRANCH  12  15
ATOM     15  C   UNL     1       2.797  -1.919   4.683  0.00  0.00    +0.013 C 
ATOM     16  C   UNL     1       2.414  -1.063   5.892  0.00  0.00    +0.012 C 
ATOM     17  C   UNL     1       2.410  -3.376   4.947  0.00  0.00    +0.012 C 
ENDBRANCH  12  15
ENDBRANCH   8   9
ENDBRANCH   1   8
BRANCH   4  18
ATOM     18  C   UNL     1      -0.104  -1.186  -4.723  0.00  0.00    +0.153 C 
BRANCH  18  19
ATOM     19  C   UNL     1       0.839  -1.692  -5.817  0.00  0.00    +0.228 C 
ATOM     20  C   UNL     1       0.071  -1.830  -7.139  0.00  0.00    +0.275 C 
ATOM     21  O   UNL     1       0.984  -2.290  -8.141  0.00  0.00    -0.485 OA
ATOM     22  C   UNL     1       2.192  -1.664  -8.203  0.00  0.00    +0.162 A 
ATOM     23  C   UNL     1       2.968  -1.794  -9.344  0.00  0.00    +0.049 A 
ATOM     24  C   UNL     1       4.197  -1.168  -9.420  0.00  0.00    +0.004 A 
ATOM     25  C   UNL     1       4.657  -0.409  -8.359  0.00  0.00    +0.004 A 
ATOM     26  C   UNL     1       3.887  -0.275  -7.219  0.00  0.00    +0.049 A 
ATOM     27  C   UNL     1       2.652  -0.900  -7.137  0.00  0.00    +0.163 A 
ATOM     28  O   UNL     1       1.902  -0.752  -6.010  0.00  0.00    -0.480 OA
ENDBRANCH  18  19
ENDBRANCH   4  18
TORSDOF 5
