REMARK  Name = ZINC02128803
REMARK  5 active torsions:
REMARK  status: ('A' for Active; 'I' for Inactive)
REMARK    1  A    between atoms: C_12  and  C_14
REMARK    2  A    between atoms: C_14  and  C_15
REMARK    3  A    between atoms: C_18  and  O_22
REMARK    4  A    between atoms: C_19  and  O_21
REMARK    5  A    between atoms: N_25  and  C_28
REMARK                            x       y       z     vdW  Elec       q    Type
REMARK                         _______ _______ _______ _____ _____    ______ ____
ROOT
ATOM      1  C   UNL     1       2.351   7.508   1.417  0.00  0.00    +0.000 A 
ATOM      2  C   UNL     1       1.583   7.958   2.475  0.00  0.00    +0.002 A 
ATOM      3  C   UNL     1       0.756   7.088   3.155  0.00  0.00    +0.023 A 
ATOM      4  C   UNL     1       0.688   5.748   2.780  0.00  0.00    +0.036 A 
ATOM      5  C   UNL     1       1.466   5.307   1.714  0.00  0.00    -0.028 A 
ATOM      6  C   UNL     1       2.291   6.178   1.038  0.00  0.00    +0.004 A 
ATOM      7  C   UNL     1       1.168   3.841   1.567  0.00  0.00    +0.050 C 
ATOM      8  C   UNL     1       0.613   3.516   0.176  0.00  0.00    +0.088 C 
ATOM      9  C   UNL     1       1.200   2.117  -0.162  0.00  0.00    +0.074 C 
ATOM     10  C   UNL     1       2.037   1.729   1.076  0.00  0.00    -0.053 C 
ATOM     11  C   UNL     1      -0.025   1.233  -0.229  0.00  0.00    +0.228 C 
ATOM     12  O   UNL     1      -0.020   0.045  -0.473  0.00  0.00    -0.275 OA
ATOM     13  N   UNL     1      -1.117   1.966   0.018  0.00  0.00    -0.210 N 
ATOM     14  C   UNL     1      -0.874   3.258   0.265  0.00  0.00    +0.229 C 
ATOM     15  O   UNL     1      -1.715   4.094   0.517  0.00  0.00    -0.275 OA
ATOM     16  C   UNL     1       0.164   3.537   2.645  0.00  0.00    +0.211 C 
ATOM     17  O   UNL     1      -0.345   2.461   2.878  0.00  0.00    -0.277 OA
ATOM     18  N   UNL     1      -0.060   4.691   3.302  0.00  0.00    -0.286 N 
ATOM     19  H   UNL     1      -0.670   4.778   4.051  0.00  0.00    +0.155 HD
ATOM     20  N   UNL     1       2.354   3.014   1.704  0.00  0.00    +0.394 N 
ATOM     21  H   UNL     1       2.579   2.877   2.696  0.00  0.00    -0.083 HD
ATOM     22  H   UNL     1       3.151   3.454   1.229  0.00  0.00    -0.083 HD
ENDROOT
BRANCH  13  23
ATOM     23  C   UNL     1      -2.410   1.424   0.020  0.00  0.00    +0.044 A 
ATOM     24  C   UNL     1      -3.324   1.800  -0.955  0.00  0.00    +0.025 A 
ATOM     25  C   UNL     1      -4.595   1.261  -0.953  0.00  0.00    +0.022 A 
ATOM     26  C   UNL     1      -4.962   0.354   0.026  0.00  0.00    +0.041 A 
ATOM     27  C   UNL     1      -4.055  -0.019   1.002  0.00  0.00    +0.022 A 
ATOM     28  C   UNL     1      -2.780   0.514   1.001  0.00  0.00    +0.025 A 
ATOM     29 CL   UNL     1      -6.563  -0.317   0.029  0.00  0.00    -0.084 Cl
ENDBRANCH  13  23
BRANCH  10  30
ATOM     30  C   UNL     1       3.306   0.988   0.649  0.00  0.00    +0.020 C 
BRANCH  30  31
ATOM     31  C   UNL     1       4.045   0.512   1.874  0.00  0.00    -0.045 A 
ATOM     32  C   UNL     1       3.771  -0.735   2.404  0.00  0.00    +0.007 A 
ATOM     33  C   UNL     1       4.447  -1.176   3.526  0.00  0.00    +0.049 A 
ATOM     34  C   UNL     1       5.401  -0.368   4.123  0.00  0.00    +0.158 A 
ATOM     35  C   UNL     1       5.676   0.888   3.590  0.00  0.00    +0.158 A 
ATOM     36  C   UNL     1       4.999   1.322   2.461  0.00  0.00    +0.052 A 
BRANCH  35  37
ATOM     37  O   UNL     1       6.611   1.685   4.172  0.00  0.00    -0.503 OA
ATOM     38  H   UNL     1       7.505   1.560   3.825  0.00  0.00    +0.292 HD
ENDBRANCH  35  37
BRANCH  34  39
ATOM     39  O   UNL     1       6.066  -0.800   5.227  0.00  0.00    -0.503 OA
ATOM     40  H   UNL     1       6.882  -1.281   5.032  0.00  0.00    +0.292 HD
ENDBRANCH  34  39
ENDBRANCH  30  31
ENDBRANCH  10  30
TORSDOF 5
