REMARK  Name = ZINC13769694
REMARK  7 active torsions:
REMARK  status: ('A' for Active; 'I' for Inactive)
REMARK    1  A    between atoms: C_4  and  N_7
REMARK    2  A    between atoms: N_9  and  C_28
REMARK    3  A    between atoms: C_10  and  C_13
REMARK    4  A    between atoms: C_17  and  S_19
REMARK    5  A    between atoms: S_19  and  N_22
REMARK    6  A    between atoms: C_28  and  C_29
REMARK    7  A    between atoms: C_29  and  N_30
REMARK                            x       y       z     vdW  Elec       q    Type
REMARK                         _______ _______ _______ _____ _____    ______ ____
ROOT
ATOM      1  N   UNL     1      -2.597  -3.719   1.840  0.00  0.00    -0.336 N 
ATOM      2  C   UNL     1      -3.161  -3.377   0.697  0.00  0.00    +0.152 A 
ATOM      3  N   UNL     1      -2.586  -2.829  -0.425  0.00  0.00    -0.319 N 
ATOM      4  C   UNL     1      -3.382  -2.563  -1.506  0.00  0.00    +0.058 A 
ATOM      5  C   UNL     1      -4.702  -2.836  -1.447  0.00  0.00    +0.075 A 
ATOM      6  S   UNL     1      -4.872  -3.504   0.200  0.00  0.00    -0.059 S 
ATOM      7  H   UNL     1      -1.535  -3.495   2.018  0.00  0.00    +0.168 HD
ENDROOT
BRANCH   1  11
ATOM      8  C   UNL     1      -4.824  -5.629   4.756  0.00  0.00    +0.000 A 
ATOM      9  C   UNL     1      -4.234  -6.368   3.746  0.00  0.00    +0.002 A 
ATOM     10  C   UNL     1      -3.491  -5.738   2.770  0.00  0.00    +0.025 A 
ATOM     11  C   UNL     1      -3.333  -4.350   2.804  0.00  0.00    +0.041 A 
ATOM     12  C   UNL     1      -3.927  -3.611   3.830  0.00  0.00    +0.025 A 
ATOM     13  C   UNL     1      -4.673  -4.254   4.796  0.00  0.00    +0.002 A 
ENDBRANCH   1  11
BRANCH   4  14
ATOM     14  C   UNL     1      -2.798  -1.978  -2.733  0.00  0.00    +0.001 A 
ATOM     15  C   UNL     1      -3.353  -0.827  -3.294  0.00  0.00    +0.010 A 
ATOM     16  C   UNL     1      -2.801  -0.283  -4.435  0.00  0.00    +0.003 A 
ATOM     17  C   UNL     1      -1.705  -0.884  -5.030  0.00  0.00    +0.028 A 
ATOM     18  C   UNL     1      -1.154  -2.029  -4.483  0.00  0.00    +0.106 A 
ATOM     19  C   UNL     1      -1.694  -2.579  -3.339  0.00  0.00    +0.038 A 
BRANCH  18  20
ATOM     20  S   UNL     1       0.240  -2.786  -5.249  0.00  0.00    +0.061 S 
ATOM     21  O   UNL     1       0.893  -1.770  -5.998  0.00  0.00    -0.153 OA
ATOM     22  O   UNL     1       0.903  -3.533  -4.239  0.00  0.00    -0.153 OA
BRANCH  20  23
ATOM     23  N   UNL     1      -0.340  -3.884  -6.345  0.00  0.00    -0.177 NA
ATOM     24  C   UNL     1      -0.591  -5.276  -5.949  0.00  0.00    +0.109 C 
ATOM     25  C   UNL     1      -2.037  -5.637  -6.322  0.00  0.00    +0.017 C 
ATOM     26  C   UNL     1      -2.259  -5.357  -7.810  0.00  0.00    +0.003 C 
ATOM     27  C   UNL     1      -2.047  -3.867  -8.088  0.00  0.00    +0.017 C 
ATOM     28  C   UNL     1      -0.607  -3.485  -7.734  0.00  0.00    +0.109 C 
ENDBRANCH  20  23
ENDBRANCH  18  20
ENDBRANCH   4  14
BRANCH   3  29
ATOM     29  C   UNL     1      -1.151  -2.541  -0.465  0.00  0.00    +0.139 C 
BRANCH  29  30
ATOM     30  C   UNL     1      -0.914  -1.073  -0.107  0.00  0.00    +0.106 C 
BRANCH  30  31
ATOM     31  N   UNL     1       0.525  -0.784  -0.147  0.00  0.00    -0.296 NA
ATOM     32  C   UNL     1       0.776   0.660  -0.042  0.00  0.00    +0.112 C 
ATOM     33  C   UNL     1       2.281   0.920  -0.148  0.00  0.00    +0.175 C 
ATOM     34  O   UNL     1       2.961   0.178   0.868  0.00  0.00    -0.377 OA
ATOM     35  C   UNL     1       2.739  -1.233   0.796  0.00  0.00    +0.175 C 
ATOM     36  C   UNL     1       1.239  -1.515   0.911  0.00  0.00    +0.112 C 
ENDBRANCH  30  31
ENDBRANCH  29  30
ENDBRANCH   3  29
TORSDOF 7
