REMARK  Name = ZINC04352522
REMARK  3 active torsions:
REMARK  status: ('A' for Active; 'I' for Inactive)
REMARK    1  A    between atoms: C_6  and  N_7
REMARK    2  A    between atoms: N_7  and  C_8
REMARK    3  A    between atoms: C_9  and  N_19
REMARK                            x       y       z     vdW  Elec       q    Type
REMARK                         _______ _______ _______ _____ _____    ______ ____
ROOT
ATOM      1  C   UNL     1      -0.018  -0.005  -0.210  0.00  0.00    +0.132 A 
ATOM      2  C   UNL     1       1.267  -0.426  -0.227  0.00  0.00    +0.173 A 
ATOM      3  C   UNL     1       2.099   0.750  -0.488  0.00  0.00    +0.035 A 
ATOM      4  C   UNL     1       3.475   0.952  -0.620  0.00  0.00    +0.050 A 
ATOM      5  C   UNL     1       3.956   2.219  -0.873  0.00  0.00    +0.124 A 
ATOM      6  C   UNL     1       3.080   3.290  -0.998  0.00  0.00    +0.040 A 
ATOM      7  C   UNL     1       1.720   3.104  -0.870  0.00  0.00    +0.029 A 
ATOM      8  C   UNL     1       1.213   1.836  -0.615  0.00  0.00    +0.050 A 
ATOM      9  N   UNL     1      -0.066   1.345  -0.440  0.00  0.00    -0.341 N 
ATOM     10  H   UNL     1      -0.878   1.875  -0.479  0.00  0.00    +0.167 HD
ATOM     11  F   UNL     1       5.286   2.420  -1.001  0.00  0.00    -0.205 F 
ENDROOT
BRANCH   2  12
ATOM     12  N   UNL     1       1.743  -1.814  -0.020  0.00  0.00    +0.060 N 
ATOM     13  O   UNL     1       1.865  -2.564  -0.972  0.00  0.00    -0.126 OA
ATOM     14  O   UNL     1       2.011  -2.205   1.102  0.00  0.00    -0.126 OA
ENDBRANCH   2  12
BRANCH   1  15
ATOM     15  N   UNL     1      -1.124  -0.819   0.008  0.00  0.00    -0.299 N 
ATOM     16  H   UNL     1      -1.012  -1.780   0.076  0.00  0.00    +0.154 HD
BRANCH  15  22
ATOM     17  C   UNL     1      -2.554   0.981   0.747  0.00  0.00    +0.026 A 
ATOM     18  C   UNL     1      -3.811   1.541   0.858  0.00  0.00    +0.040 A 
ATOM     19  C   UNL     1      -4.916   0.869   0.365  0.00  0.00    +0.124 A 
ATOM     20  C   UNL     1      -4.763  -0.364  -0.248  0.00  0.00    +0.040 A 
ATOM     21  C   UNL     1      -3.507  -0.925  -0.367  0.00  0.00    +0.026 A 
ATOM     22  C   UNL     1      -2.397  -0.253   0.128  0.00  0.00    +0.033 A 
ATOM     23  F   UNL     1      -6.146   1.416   0.480  0.00  0.00    -0.205 F 
ENDBRANCH  15  22
ENDBRANCH   1  15
TORSDOF 3
