REMARK  Name = ZINC59318116
REMARK  7 active torsions:
REMARK  status: ('A' for Active; 'I' for Inactive)
REMARK    1  A    between atoms: C_1  and  C_2
REMARK    2  A    between atoms: C_2  and  C_3
REMARK    3  A    between atoms: C_13  and  C_15
REMARK    4  A    between atoms: C_15  and  N_16
REMARK    5  A    between atoms: C_19  and  C_23
REMARK    6  A    between atoms: C_19  and  C_24
REMARK    7  A    between atoms: C_27  and  C_30
REMARK                            x       y       z     vdW  Elec       q    Type
REMARK                         _______ _______ _______ _____ _____    ______ ____
ROOT
ATOM      1  C   UNL     1       6.447  -3.661  -6.711  0.00  0.00    +0.214 C 
ENDROOT
BRANCH   1  11
ATOM      2  C   UNL     1       0.718  -0.497  -1.257  0.00  0.00    -0.006 C 
ATOM      3  C   UNL     1       0.637  -2.025  -1.328  0.00  0.00    +0.010 C 
ATOM      4  C   UNL     1       1.129  -2.515  -2.692  0.00  0.00    +0.056 C 
ATOM      5  C   UNL     1       2.502  -1.917  -2.959  0.00  0.00    +0.054 A 
ATOM      6  C   UNL     1       2.929  -0.830  -2.266  0.00  0.00    +0.015 A 
ATOM      7  S   UNL     1       4.542  -0.550  -2.942  0.00  0.00    -0.057 S 
ATOM      8  C   UNL     1       4.543  -1.826  -4.043  0.00  0.00    +0.165 A 
ATOM      9  N   UNL     1       3.367  -2.384  -3.855  0.00  0.00    -0.229 NA
ATOM     10  N   UNL     1       5.543  -2.197  -4.934  0.00  0.00    -0.263 N 
ATOM     11  C   UNL     1       5.363  -3.258  -5.746  0.00  0.00    +0.237 C 
ATOM     12  O   UNL     1       4.327  -3.888  -5.699  0.00  0.00    -0.274 OA
ATOM     13  C   UNL     1       2.196  -0.078  -1.206  0.00  0.00    +0.048 C 
ATOM     14  H   UNL     1       6.371  -1.694  -4.971  0.00  0.00    +0.157 HD
BRANCH   2  16
ATOM     15  C   UNL     1      -0.019   1.526   0.010  0.00  0.00    +0.004 C 
ATOM     16  C   UNL     1       0.002  -0.004   0.002  0.00  0.00    +0.000 C 
ENDBRANCH   2  16
ENDBRANCH   1  11
BRANCH   1  17
ATOM     17  N   UNL     1       6.011  -4.833  -7.474  0.00  0.00    -0.215 N 
ATOM     18  C   UNL     1       6.222  -6.107  -7.091  0.00  0.00    +0.251 C 
ATOM     19  O   UNL     1       6.788  -6.486  -6.087  0.00  0.00    -0.272 OA
ATOM     20  C   UNL     1       5.605  -6.969  -8.174  0.00  0.00    +0.135 C 
ATOM     21  N   UNL     1       5.067  -5.988  -9.132  0.00  0.00    -0.281 N 
ATOM     22  C   UNL     1       5.348  -4.770  -8.635  0.00  0.00    +0.310 C 
ATOM     23  O   UNL     1       5.038  -3.729  -9.180  0.00  0.00    -0.252 OA
ATOM     24  C   UNL     1       6.670  -7.843  -8.839  0.00  0.00    +0.047 C 
ATOM     25  H   UNL     1       4.599  -6.182  -9.959  0.00  0.00    +0.152 HD
BRANCH  20  26
ATOM     26  C   UNL     1       4.497  -7.820  -7.608  0.00  0.00    -0.015 A 
ATOM     27  C   UNL     1       4.546  -8.230  -6.289  0.00  0.00    +0.006 A 
ATOM     28  C   UNL     1       3.530  -9.010  -5.770  0.00  0.00    +0.004 A 
ATOM     29  C   UNL     1       2.465  -9.381  -6.570  0.00  0.00    -0.050 A 
ATOM     30  C   UNL     1       2.416  -8.970  -7.889  0.00  0.00    +0.004 A 
ATOM     31  C   UNL     1       3.430  -8.186  -8.407  0.00  0.00    +0.006 A 
ATOM     32  C   UNL     1       1.358 -10.232  -6.004  0.00  0.00    +0.044 C 
ENDBRANCH  20  26
ENDBRANCH   1  17
TORSDOF 4
