REMARK  Name = ZINC09590042
REMARK  6 active torsions:
REMARK  status: ('A' for Active; 'I' for Inactive)
REMARK    1  A    between atoms: C_1  and  C_2
REMARK    2  A    between atoms: C_7  and  N_12
REMARK    3  A    between atoms: C_9  and  C_11
REMARK    4  A    between atoms: C_13  and  C_15
REMARK    5  A    between atoms: N_25  and  C_28
REMARK    6  A    between atoms: C_28  and  C_29
REMARK                            x       y       z     vdW  Elec       q    Type
REMARK                         _______ _______ _______ _____ _____    ______ ____
ROOT
ATOM      1  C   UNL     1      -1.234   1.755   0.018  0.00  0.00    +0.039 A 
ATOM      2  C   UNL     1      -0.013   1.076   0.008  0.00  0.00    +0.014 A 
ATOM      3  C   UNL     1       1.172   1.778   0.000  0.00  0.00    +0.016 A 
ATOM      4  C   UNL     1       1.150   3.171   0.008  0.00  0.00    +0.063 A 
ATOM      5  C   UNL     1      -0.075   3.859   0.024  0.00  0.00    +0.056 A 
ATOM      6  C   UNL     1      -1.264   3.148   0.031  0.00  0.00    +0.039 A 
ATOM      7  N   UNL     1      -0.061   5.247   0.030  0.00  0.00    -0.307 N 
ATOM      8  H   UNL     1      -0.899   5.736   0.041  0.00  0.00    +0.170 HD
ATOM      9  C   UNL     1       1.101   5.921   0.023  0.00  0.00    +0.330 A 
ATOM     10  O   UNL     1       1.069   7.137   0.030  0.00  0.00    -0.246 OA
ATOM     11  N   UNL     1       2.296   5.311   0.008  0.00  0.00    -0.256 N 
ATOM     12  C   UNL     1       2.395   3.964   0.000  0.00  0.00    +0.265 A 
ATOM     13  O   UNL     1       3.482   3.418  -0.013  0.00  0.00    -0.267 OA
ENDROOT
BRANCH   1  15
ATOM     14  N   UNL     1      -2.477  -0.356   0.012  0.00  0.00    -0.308 N 
ATOM     15  C   UNL     1      -2.502   0.991   0.019  0.00  0.00    +0.244 C 
ATOM     16  O   UNL     1      -3.566   1.579   0.028  0.00  0.00    -0.270 OA
ATOM     17  H   UNL     1      -1.628  -0.826   0.005  0.00  0.00    +0.149 HD
BRANCH  14  23
ATOM     18  C   UNL     1      -4.572  -4.662  -1.221  0.00  0.00    +0.008 C 
ATOM     19  C   UNL     1      -4.807  -3.282  -0.603  0.00  0.00    -0.009 C 
ATOM     20  C   UNL     1      -5.302  -3.445   0.836  0.00  0.00    +0.003 C 
ATOM     21  C   UNL     1      -5.537  -2.066   1.454  0.00  0.00    +0.002 C 
ATOM     22  C   UNL     1      -4.227  -1.276   1.452  0.00  0.00    +0.022 C 
ATOM     23  C   UNL     1      -3.732  -1.113   0.014  0.00  0.00    +0.076 C 
ATOM     24  C   UNL     1      -3.497  -2.492  -0.605  0.00  0.00    +0.009 C 
ATOM     25  C   UNL     1      -3.002  -2.329  -2.043  0.00  0.00    +0.009 C 
ENDBRANCH  14  23
ENDBRANCH   1  15
BRANCH  11  26
ATOM     26  C   UNL     1       3.517   6.121   0.001  0.00  0.00    +0.165 C 
BRANCH  26  27
ATOM     27  C   UNL     1       3.950   6.390   1.419  0.00  0.00    -0.024 A 
ATOM     28  C   UNL     1       4.810   5.516   2.056  0.00  0.00    +0.009 A 
ATOM     29  C   UNL     1       5.209   5.758   3.357  0.00  0.00    +0.050 A 
ATOM     30  C   UNL     1       4.747   6.880   4.026  0.00  0.00    +0.166 A 
ATOM     31  C   UNL     1       3.881   7.762   3.384  0.00  0.00    +0.167 A 
ATOM     32  C   UNL     1       3.490   7.515   2.078  0.00  0.00    +0.055 A 
ATOM     33  O   UNL     1       3.574   8.776   4.244  0.00  0.00    -0.453 OA
ATOM     34  C   UNL     1       4.580   8.725   5.273  0.00  0.00    +0.466 C 
ATOM     35  O   UNL     1       4.984   7.342   5.288  0.00  0.00    -0.453 OA
ENDBRANCH  26  27
ENDBRANCH  11  26
TORSDOF 4
