REMARK  Name = ZINC02417610
REMARK  10 active torsions:
REMARK  status: ('A' for Active; 'I' for Inactive)
REMARK    1  A    between atoms: C_1  and  C_2
REMARK    2  A    between atoms: C_2  and  C_4
REMARK    3  A    between atoms: C_2  and  O_34
REMARK    4  A    between atoms: C_4  and  N_5
REMARK    5  A    between atoms: N_5  and  C_6
REMARK    6  A    between atoms: C_6  and  C_7
REMARK    7  A    between atoms: C_7  and  C_9
REMARK    8  A    between atoms: C_7  and  O_10
REMARK    9  A    between atoms: C_27  and  C_29
REMARK   10  A    between atoms: C_27  and  C_30
REMARK                            x       y       z     vdW  Elec       q    Type
REMARK                         _______ _______ _______ _____ _____    ______ ____
ROOT
ATOM      1  N   UNL     1       4.068   6.050   0.232  0.00  0.00    -0.309 N 
ATOM      2  C   UNL     1       4.346   4.748   0.621  0.00  0.00    +0.139 A 
ATOM      3  C   UNL     1       3.337   3.908   1.067  0.00  0.00    +0.080 A 
ATOM      4  C   UNL     1       3.616   2.593   1.460  0.00  0.00    +0.093 A 
ATOM      5  C   UNL     1       2.461   1.797   1.915  0.00  0.00    +0.035 A 
ATOM      6  C   UNL     1       2.461   0.453   2.364  0.00  0.00    -0.024 A 
ATOM      7  C   UNL     1       1.294  -0.125   2.751  0.00  0.00    +0.020 A 
ATOM      8  C   UNL     1       0.102   0.608   2.701  0.00  0.00    +0.105 A 
ATOM      9  C   UNL     1       1.218   2.453   1.900  0.00  0.00    +0.089 A 
ATOM     10  S   UNL     1       1.588   4.082   1.296  0.00  0.00    -0.066 S 
ATOM     11  N   UNL     1      -1.089   0.015   3.095  0.00  0.00    -0.316 N 
ATOM     12  C   UNL     1      -1.044  -0.367   4.530  0.00  0.00    +0.106 C 
ATOM     13  C   UNL     1      -2.541  -0.497   4.909  0.00  0.00    +0.020 C 
ATOM     14  C   UNL     1      -3.201   0.650   4.110  0.00  0.00    +0.020 C 
ATOM     15  C   UNL     1      -2.220   0.959   2.964  0.00  0.00    +0.106 C 
ATOM     16  C   UNL     1       1.246  -1.549   3.244  0.00  0.00    +0.199 C 
ATOM     17  O   UNL     1       2.444  -2.236   2.883  0.00  0.00    -0.369 OA
ATOM     18  C   UNL     1       3.633  -1.538   3.269  0.00  0.00    +0.068 C 
ATOM     19  C   UNL     1       3.768  -0.292   2.391  0.00  0.00    +0.070 C 
ATOM     20  C   UNL     1       3.534  -1.124   4.739  0.00  0.00    +0.041 C 
ATOM     21  C   UNL     1       4.850  -2.444   3.070  0.00  0.00    +0.041 C 
ATOM     22  N   UNL     1       4.910   2.210   1.375  0.00  0.00    -0.234 NA
ATOM     23  C   UNL     1       5.837   3.030   0.949  0.00  0.00    +0.224 A 
ATOM     24  N   UNL     1       5.590   4.273   0.575  0.00  0.00    -0.220 NA
ATOM     25  N   UNL     1       0.039   1.901   2.277  0.00  0.00    -0.337 N 
ATOM     26  H   UNL     1      -0.845   2.424   2.246  0.00  0.00    +0.168 HD
ENDROOT
BRANCH   1  27
ATOM     27  C   UNL     1       5.289   6.743  -0.201  0.00  0.00    +0.137 C 
BRANCH  27  29
ATOM     28  C   UNL     1       6.261   8.953  -0.843  0.00  0.00    +0.039 C 
ATOM     29  C   UNL     1       4.984   8.226  -0.417  0.00  0.00    +0.129 C 
BRANCH  29  30
ATOM     30  O   UNL     1       4.496   8.795   0.800  0.00  0.00    -0.391 OA
ATOM     31  H   UNL     1       5.117   8.736   1.539  0.00  0.00    +0.210 HD
ENDBRANCH  29  30
ENDBRANCH  27  29
ENDBRANCH   1  27
BRANCH   1  32
ATOM     32  C   UNL     1       3.046   6.077  -0.823  0.00  0.00    +0.137 C 
BRANCH  32  33
ATOM     33  C   UNL     1       3.603   5.425  -2.090  0.00  0.00    +0.129 C 
ATOM     34  C   UNL     1       2.596   5.584  -3.231  0.00  0.00    +0.039 C 
BRANCH  33  35
ATOM     35  O   UNL     1       3.833   4.035  -1.849  0.00  0.00    -0.391 OA
ATOM     36  H   UNL     1       3.028   3.526  -1.685  0.00  0.00    +0.210 HD
ENDBRANCH  33  35
ENDBRANCH  32  33
ENDBRANCH   1  32
TORSDOF 6
