REMARK  Name = ZINC33272635
REMARK  10 active torsions:
REMARK  status: ('A' for Active; 'I' for Inactive)
REMARK    1  A    between atoms: C_1  and  C_2
REMARK    2  A    between atoms: C_2  and  N_3
REMARK    3  A    between atoms: N_10  and  C_15
REMARK    4  A    between atoms: C_15  and  C_16
REMARK    5  A    between atoms: C_19  and  C_22
REMARK    6  A    between atoms: N_24  and  C_25
REMARK    7  A    between atoms: C_25  and  C_26
REMARK    8  A    between atoms: C_26  and  C_27
REMARK    9  A    between atoms: C_27  and  C_29
REMARK   10  A    between atoms: C_27  and  N_30
REMARK                            x       y       z     vdW  Elec       q    Type
REMARK                         _______ _______ _______ _____ _____    ______ ____
ROOT
ATOM      1  C   UNL     1      -1.728   5.998  -1.476  0.00  0.00    -0.028 A 
ATOM      2  C   UNL     1      -1.297   7.136  -2.135  0.00  0.00    +0.006 A 
ATOM      3  C   UNL     1      -1.759   7.419  -3.404  0.00  0.00    +0.013 A 
ATOM      4  C   UNL     1      -2.671   6.559  -4.019  0.00  0.00    +0.037 A 
ATOM      5  C   UNL     1      -3.105   5.416  -3.347  0.00  0.00    +0.013 A 
ATOM      6  C   UNL     1      -2.632   5.142  -2.081  0.00  0.00    +0.006 A 
ENDROOT
BRANCH   4   7
ATOM      7  C   UNL     1      -3.173   6.859  -5.377  0.00  0.00    +0.244 C 
ATOM      8  O   UNL     1      -3.967   6.109  -5.910  0.00  0.00    -0.270 OA
ATOM      9  N   UNL     1      -2.751   7.964  -6.023  0.00  0.00    -0.311 N 
ATOM     10  H   UNL     1      -2.033   8.643  -5.540  0.00  0.00    +0.149 HD
BRANCH   9  11
ATOM     11  C   UNL     1      -3.249   8.261  -7.369  0.00  0.00    +0.103 C 
BRANCH  11  12
ATOM     12  C   UNL     1      -2.618   9.561  -7.871  0.00  0.00    +0.003 C 
BRANCH  12  13
ATOM     13  C   UNL     1      -3.032   9.800  -9.324  0.00  0.00    -0.070 C 
ATOM     14  C   UNL     1      -4.541  10.044  -9.391  0.00  0.00    -0.013 C 
BRANCH  13  15
ATOM     15  N   UNL     1      -2.323  10.975  -9.848  0.00  0.00    +0.381 N 
ATOM     16  C   UNL     1      -0.852  10.779  -9.788  0.00  0.00    -0.079 C 
ATOM     17  C   UNL     1      -0.315  11.807 -10.816  0.00  0.00    -0.020 C 
ATOM     18  C   UNL     1      -1.372  11.755 -11.942  0.00  0.00    -0.020 C 
ATOM     19  C   UNL     1      -2.642  11.195 -11.275  0.00  0.00    -0.079 C 
ATOM     20  H   UNL     1      -2.648  11.823  -9.227  0.00  0.00    -0.081 HD
ENDBRANCH  13  15
ENDBRANCH  12  13
ENDBRANCH  11  12
ENDBRANCH   9  11
ENDBRANCH   4   7
BRANCH   1  21
ATOM     21  C   UNL     1      -1.216   5.693  -0.092  0.00  0.00    +0.160 C 
BRANCH  21  29
ATOM     22  N   UNL     1       2.304   3.280  -0.376  0.00  0.00    -0.303 N 
ATOM     23  C   UNL     1       1.043   2.695  -0.300  0.00  0.00    +0.069 A 
ATOM     24  C   UNL     1       0.924   1.310  -0.317  0.00  0.00    +0.028 A 
ATOM     25  C   UNL     1      -0.322   0.722  -0.242  0.00  0.00    +0.002 A 
ATOM     26  C   UNL     1      -1.459   1.508  -0.155  0.00  0.00    +0.002 A 
ATOM     27  C   UNL     1      -1.353   2.884  -0.134  0.00  0.00    +0.028 A 
ATOM     28  C   UNL     1      -0.103   3.487  -0.208  0.00  0.00    +0.069 A 
ATOM     29  N   UNL     1      -0.004   4.875  -0.190  0.00  0.00    -0.298 N 
ATOM     30  C   UNL     1       1.204   5.469  -0.262  0.00  0.00    +0.317 A 
ATOM     31  O   UNL     1       1.295   6.680  -0.246  0.00  0.00    -0.262 OA
ATOM     32  C   UNL     1       2.429   4.623  -0.361  0.00  0.00    +0.317 A 
ATOM     33  O   UNL     1       3.527   5.138  -0.427  0.00  0.00    -0.262 OA
BRANCH  22  35
ATOM     34  C   UNL     1       3.815   2.167  -1.945  0.00  0.00    +0.027 C 
ATOM     35  C   UNL     1       3.498   2.436  -0.472  0.00  0.00    +0.122 C 
ENDBRANCH  22  35
ENDBRANCH  21  29
ENDBRANCH   1  21
TORSDOF 8
