REMARK  Name = ZINC04694069
REMARK  3 active torsions:
REMARK  status: ('A' for Active; 'I' for Inactive)
REMARK    1  A    between atoms: C_3  and  N_19
REMARK    2  A    between atoms: C_4  and  N_8
REMARK    3  A    between atoms: N_8  and  C_9
REMARK                            x       y       z     vdW  Elec       q    Type
REMARK                         _______ _______ _______ _____ _____    ______ ____
ROOT
ATOM      1  N   UNL     1       2.134   1.163   1.193  0.00  0.00    -0.339 N 
ATOM      2  H   UNL     1       1.635   0.915   1.986  0.00  0.00    +0.146 HD
ENDROOT
BRANCH   1   3
ATOM      3  C   UNL     1       1.430   1.675   0.015  0.00  0.00    +0.077 C 
ATOM      4  C   UNL     1      -0.012   1.163   0.020  0.00  0.00    +0.010 C 
ATOM      5  C   UNL     1      -0.720   1.646   1.288  0.00  0.00    +0.009 C 
ATOM      6  C   UNL     1      -0.722   3.175   1.320  0.00  0.00    -0.010 C 
ATOM      7  C   UNL     1      -1.458   3.710   0.089  0.00  0.00    +0.007 C 
ATOM      8  C   UNL     1      -0.750   3.228  -1.178  0.00  0.00    -0.010 C 
ATOM      9  C   UNL     1      -0.748   1.698  -1.210  0.00  0.00    +0.009 C 
ATOM     10  C   UNL     1       0.692   3.740  -1.183  0.00  0.00    +0.009 C 
ATOM     11  C   UNL     1       1.427   3.205   0.047  0.00  0.00    +0.010 C 
ATOM     12  C   UNL     1       0.720   3.688   1.314  0.00  0.00    +0.009 C 
ENDBRANCH   1   3
BRANCH   1  16
ATOM     13  C   UNL     1       6.280   0.772   1.135  0.00  0.00    +0.022 A 
ATOM     14  C   UNL     1       5.580   0.527   2.301  0.00  0.00    +0.036 A 
ATOM     15  C   UNL     1       4.206   0.661   2.325  0.00  0.00    +0.147 A 
ATOM     16  C   UNL     1       3.525   1.032   1.173  0.00  0.00    +0.059 A 
ATOM     17  C   UNL     1       4.230   1.278   0.002  0.00  0.00    +0.045 A 
ATOM     18  C   UNL     1       5.606   1.148  -0.014  0.00  0.00    +0.043 A 
ATOM     19 CL   UNL     1       6.489   1.455  -1.477  0.00  0.00    -0.083 Cl
BRANCH  15  20
ATOM     20  N   UNL     1       3.458   0.404   3.577  0.00  0.00    +0.058 N 
ATOM     21  O   UNL     1       4.061   0.182   4.612  0.00  0.00    -0.126 OA
ATOM     22  O   UNL     1       2.240   0.413   3.571  0.00  0.00    -0.126 OA
ENDBRANCH  15  20
ENDBRANCH   1  16
TORSDOF 3
