REMARK  Name = ZINC19296766
REMARK  7 active torsions:
REMARK  status: ('A' for Active; 'I' for Inactive)
REMARK    1  A    between atoms: C_1  and  C_2
REMARK    2  A    between atoms: C_5  and  N_9
REMARK    3  A    between atoms: C_18  and  S_19
REMARK    4  A    between atoms: S_19  and  C_20
REMARK    5  A    between atoms: C_20  and  C_22
REMARK    6  A    between atoms: C_20  and  C_23
REMARK    7  A    between atoms: N_25  and  C_26
REMARK                            x       y       z     vdW  Elec       q    Type
REMARK                         _______ _______ _______ _____ _____    ______ ____
ROOT
ATOM      1  N   UNL     1      -2.467   4.481   0.047  0.00  0.00    -0.255 N 
ATOM      2  C   UNL     1      -2.469   5.822   0.161  0.00  0.00    +0.268 A 
ATOM      3  O   UNL     1      -1.420   6.436   0.250  0.00  0.00    -0.267 OA
ATOM      4  C   UNL     1      -3.720   6.517   0.171  0.00  0.00    +0.076 A 
ATOM      5  C   UNL     1      -3.955   7.958   0.280  0.00  0.00    -0.023 A 
ATOM      6  C   UNL     1      -5.239   8.370   0.270  0.00  0.00    -0.004 A 
ATOM      7  S   UNL     1      -6.198   6.888   0.116  0.00  0.00    -0.073 S 
ATOM      8  C   UNL     1      -4.868   5.713   0.067  0.00  0.00    +0.117 A 
ATOM      9  N   UNL     1      -4.799   4.392  -0.038  0.00  0.00    -0.215 NA
ATOM     10  C   UNL     1      -3.634   3.776  -0.049  0.00  0.00    +0.178 A 
ATOM     11  C   UNL     1      -5.741   9.779   0.368  0.00  0.00    +0.043 C 
ATOM     12  C   UNL     1      -4.590  10.670   0.857  0.00  0.00    +0.005 C 
ATOM     13  C   UNL     1      -3.339  10.352   0.034  0.00  0.00    +0.005 C 
ATOM     14  C   UNL     1      -2.814   8.964   0.401  0.00  0.00    +0.037 C 
ENDROOT
BRANCH   1  19
ATOM     15  C   UNL     1       2.481   1.700  -0.008  0.00  0.00    +0.045 C 
ATOM     16  C   UNL     1       1.167   2.438   0.006  0.00  0.00    -0.032 A 
ATOM     17  C   UNL     1       0.525   2.681   1.207  0.00  0.00    +0.007 A 
ATOM     18  C   UNL     1      -0.679   3.357   1.223  0.00  0.00    +0.026 A 
ATOM     19  C   UNL     1      -1.246   3.794   0.033  0.00  0.00    +0.053 A 
ATOM     20  C   UNL     1      -0.597   3.554  -1.171  0.00  0.00    +0.046 A 
ATOM     21  C   UNL     1       0.606   2.872  -1.182  0.00  0.00    +0.046 A 
ATOM     22 CL   UNL     1       1.416   2.567  -2.687  0.00  0.00    -0.083 Cl
ENDBRANCH   1  19
BRANCH  10  23
ATOM     23  S   UNL     1      -3.580   2.020  -0.189  0.00  0.00    -0.075 S 
BRANCH  23  24
ATOM     24  C   UNL     1      -5.351   1.657  -0.277  0.00  0.00    +0.137 C 
ATOM     25  C   UNL     1      -6.018   2.045   1.044  0.00  0.00    +0.029 C 
BRANCH  24  26
ATOM     26  C   UNL     1      -5.550   0.184  -0.527  0.00  0.00    +0.226 C 
ATOM     27  O   UNL     1      -4.694  -0.608  -0.196  0.00  0.00    -0.275 OA
ATOM     28  N   UNL     1      -6.680  -0.252  -1.118  0.00  0.00    -0.317 N 
ATOM     29  C   UNL     1      -6.874  -1.684  -1.361  0.00  0.00    +0.128 C 
ATOM     30  H   UNL     1      -7.457   0.467  -1.418  0.00  0.00    +0.148 HD
ENDBRANCH  24  26
ENDBRANCH  23  24
ENDBRANCH  10  23
TORSDOF 4
