REMARK  Name = ZINC40093856
REMARK  15 active torsions:
REMARK  status: ('A' for Active; 'I' for Inactive)
REMARK    1  A    between atoms: C_1  and  C_2
REMARK    2  A    between atoms: C_4  and  C_13
REMARK    3  A    between atoms: C_7  and  O_8
REMARK    4  A    between atoms: O_8  and  C_9
REMARK    5  A    between atoms: C_9  and  C_10
REMARK    6  A    between atoms: C_10  and  C_11
REMARK    7  A    between atoms: C_10  and  C_12
REMARK    8  A    between atoms: C_13  and  C_15
REMARK    9  A    between atoms: N_19  and  C_32
REMARK   10  A    between atoms: C_20  and  C_22
REMARK   11  A    between atoms: C_32  and  C_33
REMARK   12  A    between atoms: C_33  and  O_34
REMARK   13  A    between atoms: O_34  and  C_35
REMARK   14  A    between atoms: C_35  and  C_36
REMARK   15  A    between atoms: C_36  and  O_37
REMARK                            x       y       z     vdW  Elec       q    Type
REMARK                         _______ _______ _______ _____ _____    ______ ____
ROOT
ATOM      1  C   UNL     1      -0.640  -4.427  -2.396  0.00  0.00    +0.076 C 
ATOM      2  C   UNL     1      -0.735  -5.447  -3.280  0.00  0.00    +0.249 C 
ATOM      3  C   UNL     1      -0.599  -6.729  -2.558  0.00  0.00    +0.288 C 
ATOM      4  O   UNL     1      -0.640  -7.828  -3.075  0.00  0.00    -0.266 OA
ATOM      5  N   UNL     1      -0.421  -6.500  -1.244  0.00  0.00    -0.281 N 
ATOM      6  C   UNL     1      -0.425  -5.048  -1.035  0.00  0.00    +0.145 C 
ATOM      7  O   UNL     1      -0.926  -5.314  -4.613  0.00  0.00    -0.282 OA
ENDROOT
BRANCH   6   8
ATOM      8  C   UNL     1      -1.549  -4.665  -0.107  0.00  0.00    -0.015 A 
ATOM      9  C   UNL     1      -2.634  -5.476   0.025  0.00  0.00    +0.006 A 
ATOM     10  C   UNL     1      -3.683  -5.139   0.877  0.00  0.00    +0.001 A 
ATOM     11  C   UNL     1      -3.654  -3.987   1.603  0.00  0.00    +0.008 A 
ATOM     12  C   UNL     1      -2.551  -3.124   1.493  0.00  0.00    -0.018 A 
ATOM     13  C   UNL     1      -1.481  -3.471   0.630  0.00  0.00    -0.013 A 
ATOM     14  C   UNL     1      -0.374  -2.610   0.524  0.00  0.00    +0.009 A 
ATOM     15  C   UNL     1      -0.343  -1.462   1.254  0.00  0.00    +0.001 A 
ATOM     16  C   UNL     1      -1.392  -1.124   2.107  0.00  0.00    +0.001 A 
ATOM     17  C   UNL     1      -2.485  -1.927   2.225  0.00  0.00    +0.008 A 
ENDBRANCH   6   8
BRANCH   1  18
ATOM     18  C   UNL     1      -0.723  -2.995  -2.700  0.00  0.00    +0.195 C 
ATOM     19  O   UNL     1       0.289  -2.319  -2.727  0.00  0.00    -0.287 OA
BRANCH  18  23
ATOM     20  C   UNL     1      -3.453   1.074  -3.629  0.00  0.00    +0.047 C 
ATOM     21  C   UNL     1      -3.351  -0.415  -3.422  0.00  0.00    -0.008 A 
ATOM     22  C   UNL     1      -2.127  -0.991  -3.166  0.00  0.00    +0.018 A 
ATOM     23  C   UNL     1      -2.033  -2.373  -2.974  0.00  0.00    +0.023 A 
ATOM     24  C   UNL     1      -3.184  -3.164  -3.043  0.00  0.00    +0.015 A 
ATOM     25  C   UNL     1      -4.404  -2.580  -3.299  0.00  0.00    +0.046 A 
ATOM     26  C   UNL     1      -4.493  -1.205  -3.484  0.00  0.00    +0.123 A 
BRANCH  26  27
ATOM     27  O   UNL     1      -5.699  -0.633  -3.731  0.00  0.00    -0.491 OA
BRANCH  27  28
ATOM     28  C   UNL     1      -6.845  -1.485  -3.677  0.00  0.00    +0.232 C 
BRANCH  28  29
ATOM     29  C   UNL     1      -8.091  -0.689  -4.069  0.00  0.00    +0.020 C 
ATOM     30  C   UNL     1      -7.978  -0.253  -5.532  0.00  0.00    +0.010 C 
ATOM     31  C   UNL     1      -9.332  -1.565  -3.893  0.00  0.00    +0.010 C 
ENDBRANCH  28  29
ENDBRANCH  27  28
ENDBRANCH  26  27
ENDBRANCH  18  23
ENDBRANCH   1  18
BRANCH   5  32
ATOM     32  C   UNL     1      -0.248  -7.521  -0.207  0.00  0.00    +0.137 C 
BRANCH  32  33
ATOM     33  C   UNL     1       1.240  -7.836  -0.045  0.00  0.00    +0.179 C 
BRANCH  33  34
ATOM     34  O   UNL     1       1.922  -6.680   0.444  0.00  0.00    -0.376 OA
BRANCH  34  35
ATOM     35  C   UNL     1       3.326  -6.869   0.631  0.00  0.00    +0.187 C 
BRANCH  35  36
ATOM     36  C   UNL     1       3.950  -5.573   1.155  0.00  0.00    +0.184 C 
BRANCH  36  37
ATOM     37  O   UNL     1       3.430  -5.286   2.455  0.00  0.00    -0.393 OA
ATOM     38  H   UNL     1       3.783  -4.476   2.849  0.00  0.00    +0.209 HD
ENDBRANCH  36  37
ENDBRANCH  35  36
ENDBRANCH  34  35
ENDBRANCH  33  34
ENDBRANCH  32  33
ENDBRANCH   5  32
TORSDOF 12
