REMARK  Name = ZINC09058815
REMARK  3 active torsions:
REMARK  status: ('A' for Active; 'I' for Inactive)
REMARK    1  A    between atoms: C_1  and  C_2
REMARK    2  A    between atoms: C_14  and  C_16
REMARK    3  A    between atoms: C_19  and  O_22
REMARK                            x       y       z     vdW  Elec       q    Type
REMARK                         _______ _______ _______ _____ _____    ______ ____
ROOT
ATOM      1  C   UNL     1      -0.013   1.086   0.008  0.00  0.00    +0.081 C 
ATOM      2  C   UNL     1      -0.742   1.585  -1.213  0.00  0.00    +0.077 C 
ATOM      3  N   UNL     1      -0.066   1.807  -2.308  0.00  0.00    -0.314 N 
ATOM      4  H   UNL     1      -2.549   1.616  -0.317  0.00  0.00    +0.154 HD
ATOM      5  C   UNL     1      -0.662   2.256  -3.421  0.00  0.00    +0.257 C 
ATOM      6  O   UNL     1       0.064   2.486  -4.539  0.00  0.00    -0.267 OA
ATOM      7  C   UNL     1      -2.026   2.481  -3.417  0.00  0.00    +0.062 C 
ATOM      8  C   UNL     1      -2.749   2.234  -2.249  0.00  0.00    +0.125 C 
ATOM      9  N   UNL     1      -2.072   1.785  -1.145  0.00  0.00    -0.291 N 
ATOM     10  N   UNL     1      -4.071   2.420  -2.215  0.00  0.00    -0.165 NA
ATOM     11  C   UNL     1      -4.784   2.541  -3.318  0.00  0.00    +0.239 C 
ATOM     12  O   UNL     1      -5.979   2.756  -3.234  0.00  0.00    -0.274 OA
ATOM     13  C   UNL     1      -4.152   2.419  -4.679  0.00  0.00    +0.111 C 
ATOM     14  C   UNL     1      -2.733   2.995  -4.643  0.00  0.00    +0.066 C 
ATOM     15  H   UNL     1       0.890   1.643  -2.317  0.00  0.00    +0.170 HD
ENDROOT
BRANCH  14  16
ATOM     16  C   UNL     1      -2.800   4.499  -4.593  0.00  0.00    -0.039 A 
ATOM     17  C   UNL     1      -3.445   5.127  -3.543  0.00  0.00    +0.008 A 
ATOM     18  C   UNL     1      -3.509   6.506  -3.495  0.00  0.00    +0.045 A 
ATOM     19  C   UNL     1      -2.924   7.261  -4.501  0.00  0.00    +0.117 A 
ATOM     20  C   UNL     1      -2.277   6.630  -5.553  0.00  0.00    +0.045 A 
ATOM     21  C   UNL     1      -2.212   5.250  -5.594  0.00  0.00    +0.008 A 
BRANCH  19  22
ATOM     22  O   UNL     1      -2.986   8.618  -4.456  0.00  0.00    -0.507 OA
ATOM     23  H   UNL     1      -2.246   9.030  -3.989  0.00  0.00    +0.292 HD
ENDBRANCH  19  22
ENDBRANCH  14  16
TORSDOF 2
