REMARK  Name = ZINC02470503
REMARK  12 active torsions:
REMARK  status: ('A' for Active; 'I' for Inactive)
REMARK    1  A    between atoms: C_1  and  C_2
REMARK    2  A    between atoms: C_2  and  O_3
REMARK    3  A    between atoms: O_3  and  C_4
REMARK    4  A    between atoms: C_8  and  C_12
REMARK    5  A    between atoms: C_9  and  O_10
REMARK    6  A    between atoms: O_10  and  C_11
REMARK    7  A    between atoms: C_12  and  C_14
REMARK    8  A    between atoms: C_12  and  N_26
REMARK    9  A    between atoms: C_20  and  C_25
REMARK   10  A    between atoms: C_23  and  O_24
REMARK   11  A    between atoms: N_26  and  C_27
REMARK   12  A    between atoms: C_31  and  C_32
REMARK                            x       y       z     vdW  Elec       q    Type
REMARK                         _______ _______ _______ _____ _____    ______ ____
ROOT
ATOM      1  C   UNL     1      -0.421   2.823   5.880  0.00  0.00    +0.139 C 
ENDROOT
BRANCH   1   2
ATOM      2  C   UNL     1      -1.356   1.717   6.297  0.00  0.00    +0.021 A 
ATOM      3  C   UNL     1      -2.725   1.859   6.082  0.00  0.00    +0.010 A 
ATOM      4  C   UNL     1      -3.596   0.876   6.442  0.00  0.00    +0.010 A 
ATOM      5  C   UNL     1      -3.112  -0.295   7.049  0.00  0.00    +0.004 A 
ATOM      6  C   UNL     1      -3.982  -1.331   7.440  0.00  0.00    +0.012 A 
ATOM      7  C   UNL     1      -3.441  -2.440   8.025  0.00  0.00    +0.023 A 
ATOM      8  C   UNL     1      -2.064  -2.522   8.219  0.00  0.00    +0.039 A 
ATOM      9  N   UNL     1      -1.258  -1.555   7.853  0.00  0.00    -0.248 NA
ATOM     10  C   UNL     1      -1.722  -0.444   7.276  0.00  0.00    +0.113 A 
ATOM     11  C   UNL     1      -0.849   0.593   6.884  0.00  0.00    +0.148 A 
ATOM     12  C   UNL     1      -1.486  -3.754   8.866  0.00  0.00    +0.065 C 
BRANCH  11  13
ATOM     13  O   UNL     1       0.488   0.474   7.090  0.00  0.00    -0.504 OA
ATOM     14  H   UNL     1       0.775   0.744   7.973  0.00  0.00    +0.292 HD
ENDBRANCH  11  13
ENDBRANCH   1   2
BRANCH   1  19
ATOM     15  C   UNL     1      -2.299   6.049   6.508  0.00  0.00    +0.162 A 
ATOM     16  C   UNL     1      -2.658   6.409   5.219  0.00  0.00    +0.049 A 
ATOM     17  C   UNL     1      -2.293   5.610   4.152  0.00  0.00    +0.004 A 
ATOM     18  C   UNL     1      -1.566   4.455   4.366  0.00  0.00    +0.009 A 
ATOM     19  C   UNL     1      -1.209   4.087   5.650  0.00  0.00    +0.023 A 
ATOM     20  C   UNL     1      -1.571   4.883   6.724  0.00  0.00    +0.167 A 
BRANCH  20  21
ATOM     21  O   UNL     1      -1.216   4.525   7.988  0.00  0.00    -0.491 OA
ATOM     22  C   UNL     1       0.038   5.010   8.471  0.00  0.00    +0.277 C 
ENDBRANCH  20  21
BRANCH  15  23
ATOM     23  O   UNL     1      -2.657   6.834   7.560  0.00  0.00    -0.489 OA
BRANCH  23  25
ATOM     24  C   UNL     1      -3.712   8.764   8.561  0.00  0.00    +0.048 C 
ATOM     25  C   UNL     1      -3.403   8.016   7.263  0.00  0.00    +0.226 C 
ENDBRANCH  23  25
ENDBRANCH  15  23
ENDBRANCH   1  19
BRANCH   1  26
ATOM     26  N   UNL     1       0.265   2.442   4.643  0.00  0.00    -0.319 N 
ATOM     27  H   UNL     1      -0.153   1.818   4.029  0.00  0.00    +0.148 HD
BRANCH  26  28
ATOM     28  C   UNL     1       1.513   2.977   4.348  0.00  0.00    +0.097 A 
ATOM     29  C   UNL     1       2.049   3.968   5.164  0.00  0.00    +0.041 A 
ATOM     30  C   UNL     1       3.293   4.491   4.859  0.00  0.00    +0.005 A 
ATOM     31  C   UNL     1       3.964   3.999   3.747  0.00  0.00    +0.021 A 
ATOM     32  C   UNL     1       3.370   3.019   2.978  0.00  0.00    +0.014 A 
ATOM     33  C   UNL     1       4.090   2.486   1.766  0.00  0.00    +0.063 C 
ATOM     34  N   UNL     1       2.150   2.482   3.247  0.00  0.00    -0.347 N 
ATOM     35  H   UNL     1       1.734   1.750   2.660  0.00  0.00    +0.167 HD
ENDBRANCH  26  28
ENDBRANCH   1  26
TORSDOF 8
