REMARK  Name = ZINC50996677
REMARK  6 active torsions:
REMARK  status: ('A' for Active; 'I' for Inactive)
REMARK    1  A    between atoms: C_1  and  C_2
REMARK    2  A    between atoms: C_2  and  C_3
REMARK    3  A    between atoms: C_3  and  C_4
REMARK    4  A    between atoms: C_6  and  C_12
REMARK    5  A    between atoms: N_8  and  C_9
REMARK    6  A    between atoms: C_9  and  C_10
REMARK                            x       y       z     vdW  Elec       q    Type
REMARK                         _______ _______ _______ _____ _____    ______ ____
ROOT
ATOM      1  C   UNL     1       0.739  -2.004  -1.265  0.00  0.00    +0.076 C 
ATOM      2  N   UNL     1       1.684  -2.701  -0.740  0.00  0.00    -0.363 N 
ATOM      3  C   UNL     1       1.368  -4.124  -0.937  0.00  0.00    +0.172 C 
ATOM      4  C   UNL     1       0.048  -4.104  -1.683  0.00  0.00    +0.101 C 
ATOM      5  N   UNL     1      -0.248  -2.765  -1.826  0.00  0.00    -0.279 N 
ATOM      6  N   UNL     1      -0.647  -5.115  -2.090  0.00  0.00    -0.388 N 
ATOM      7  H   UNL     1      -0.332  -6.018  -1.924  0.00  0.00    +0.157 HD
ATOM      8  H   UNL     1      -1.483  -4.972  -2.560  0.00  0.00    +0.157 HD
ATOM      9  H   UNL     1       2.469  -2.349  -0.292  0.00  0.00    +0.162 HD
ENDROOT
BRANCH   3  10
ATOM     10  C   UNL     1       2.434  -4.793  -1.767  0.00  0.00    -0.013 A 
ATOM     11  C   UNL     1       2.833  -6.083  -1.469  0.00  0.00    +0.055 A 
ATOM     12  C   UNL     1       3.812  -6.699  -2.230  0.00  0.00    +0.168 A 
ATOM     13  C   UNL     1       4.394  -6.017  -3.295  0.00  0.00    +0.184 A 
ATOM     14  C   UNL     1       3.991  -4.724  -3.588  0.00  0.00    +0.087 A 
ATOM     15  C   UNL     1       3.008  -4.116  -2.827  0.00  0.00    +0.030 A 
ATOM     16 CL   UNL     1       4.714  -3.869  -4.915  0.00  0.00    -0.080 Cl
ATOM     17  O   UNL     1       5.321  -6.831  -3.881  0.00  0.00    -0.451 OA
ATOM     18  C   UNL     1       5.590  -7.864  -2.915  0.00  0.00    +0.466 C 
ATOM     19  O   UNL     1       4.374  -7.941  -2.148  0.00  0.00    -0.453 OA
ENDBRANCH   3  10
BRANCH   5  20
ATOM     20  C   UNL     1      -1.444  -2.236  -2.486  0.00  0.00    +0.110 C 
ATOM     21  C   UNL     1      -1.157  -2.034  -3.975  0.00  0.00    +0.025 C 
ENDBRANCH   5  20
BRANCH   1  22
ATOM     22  C   UNL     1       0.718  -0.497  -1.257  0.00  0.00    +0.069 C 
BRANCH  22  24
ATOM     23  C   UNL     1      -0.019   1.526   0.010  0.00  0.00    +0.004 C 
ATOM     24  C   UNL     1       0.002  -0.004   0.002  0.00  0.00    +0.004 C 
ENDBRANCH  22  24
ENDBRANCH   1  22
TORSDOF 4
