REMARK  Name = ZINC36342141
REMARK  17 active torsions:
REMARK  status: ('A' for Active; 'I' for Inactive)
REMARK    1  A    between atoms: C_1  and  C_2
REMARK    2  A    between atoms: C_3  and  C_20
REMARK    3  A    between atoms: C_4  and  O_13
REMARK    4  A    between atoms: N_5  and  C_7
REMARK    5  A    between atoms: O_13  and  C_14
REMARK    6  A    between atoms: C_20  and  N_21
REMARK    7  A    between atoms: N_21  and  C_22
REMARK    8  A    between atoms: N_21  and  C_29
REMARK    9  A    between atoms: C_22  and  C_23
REMARK   10  A    between atoms: C_29  and  C_30
REMARK   11  A    between atoms: C_30  and  C_32
REMARK   12  A    between atoms: C_30  and  O_38
REMARK   13  A    between atoms: C_32  and  O_33
REMARK   14  A    between atoms: O_33  and  C_34
REMARK   15  A    between atoms: C_34  and  C_35
REMARK   16  A    between atoms: C_35  and  C_36
REMARK   17  A    between atoms: C_35  and  C_37
REMARK                            x       y       z     vdW  Elec       q    Type
REMARK                         _______ _______ _______ _____ _____    ______ ____
ROOT
ATOM      1  C   UNL     1       0.839  -0.758  -0.626  0.00  0.00    -0.035 C 
ENDROOT
BRANCH   1   4
ATOM      2  C   UNL     1       2.131   1.295   1.408  0.00  0.00    +0.068 C 
ATOM      3  C   UNL     1       2.420  -0.183   1.342  0.00  0.00    +0.065 A 
ATOM      4  C   UNL     1       1.849  -1.088   0.443  0.00  0.00    +0.021 A 
ATOM      5  C   UNL     1       2.365  -2.318   0.704  0.00  0.00    +0.225 A 
ATOM      6  N   UNL     1       3.236  -2.184   1.739  0.00  0.00    -0.200 N 
ATOM      7  N   UNL     1       3.253  -0.834   2.112  0.00  0.00    -0.168 NA
BRANCH   6   8
ATOM      8  C   UNL     1       3.988  -3.213   2.324  0.00  0.00    +0.069 A 
ATOM      9  C   UNL     1       3.396  -4.439   2.596  0.00  0.00    +0.028 A 
ATOM     10  C   UNL     1       4.140  -5.450   3.173  0.00  0.00    +0.002 A 
ATOM     11  C   UNL     1       5.472  -5.242   3.480  0.00  0.00    +0.000 A 
ATOM     12  C   UNL     1       6.064  -4.022   3.210  0.00  0.00    +0.002 A 
ATOM     13  C   UNL     1       5.327  -3.009   2.628  0.00  0.00    +0.028 A 
ENDBRANCH   6   8
BRANCH   5  14
ATOM     14  O   UNL     1       2.065  -3.470   0.051  0.00  0.00    -0.438 OA
BRANCH  14  15
ATOM     15  C   UNL     1       1.008  -4.199   0.495  0.00  0.00    +0.130 A 
ATOM     16  C   UNL     1       0.271  -3.760   1.586  0.00  0.00    +0.046 A 
ATOM     17  C   UNL     1      -0.804  -4.502   2.036  0.00  0.00    +0.004 A 
ATOM     18  C   UNL     1      -1.144  -5.683   1.401  0.00  0.00    +0.000 A 
ATOM     19  C   UNL     1      -0.411  -6.122   0.315  0.00  0.00    +0.004 A 
ATOM     20  C   UNL     1       0.660  -5.380  -0.143  0.00  0.00    +0.046 A 
ENDBRANCH  14  15
ENDBRANCH   5  14
ENDBRANCH   1   4
BRANCH   1  21
ATOM     21  N   UNL     1       1.527  -0.183  -1.790  0.00  0.00    +0.387 N 
ATOM     22  H   UNL     1       2.198   0.503  -1.478  0.00  0.00    -0.081 HD
BRANCH  21  23
ATOM     23  C   UNL     1       2.221  -1.249  -2.524  0.00  0.00    -0.042 C 
BRANCH  23  24
ATOM     24  C   UNL     1       1.260  -1.912  -3.476  0.00  0.00    -0.064 A 
ATOM     25  C   UNL     1       0.189  -2.635  -2.984  0.00  0.00    +0.002 A 
ATOM     26  C   UNL     1      -0.693  -3.244  -3.857  0.00  0.00    +0.000 A 
ATOM     27  C   UNL     1      -0.505  -3.129  -5.222  0.00  0.00    +0.000 A 
ATOM     28  C   UNL     1       0.565  -2.405  -5.713  0.00  0.00    +0.000 A 
ATOM     29  C   UNL     1       1.445  -1.793  -4.840  0.00  0.00    +0.002 A 
ENDBRANCH  23  24
ENDBRANCH  21  23
BRANCH  21  30
ATOM     30  C   UNL     1       0.543   0.459  -2.672  0.00  0.00    -0.044 C 
BRANCH  30  31
ATOM     31  C   UNL     1       1.234   1.542  -3.503  0.00  0.00    +0.124 C 
BRANCH  31  32
ATOM     32  O   UNL     1       2.304   0.960  -4.250  0.00  0.00    -0.391 OA
ATOM     33  H   UNL     1       2.015   0.327  -4.922  0.00  0.00    +0.210 HD
ENDBRANCH  31  32
BRANCH  31  34
ATOM     34  C   UNL     1       0.223   2.171  -4.464  0.00  0.00    +0.189 C 
BRANCH  34  35
ATOM     35  O   UNL     1       0.837   3.260  -5.156  0.00  0.00    -0.377 OA
BRANCH  35  36
ATOM     36  C   UNL     1      -0.027   3.920  -6.084  0.00  0.00    +0.163 C 
BRANCH  36  37
ATOM     37  C   UNL     1       0.732   5.062  -6.763  0.00  0.00    +0.009 C 
ATOM     38  C   UNL     1       1.870   4.486  -7.609  0.00  0.00    +0.009 C 
ATOM     39  C   UNL     1      -0.226   5.846  -7.663  0.00  0.00    +0.009 C 
ENDBRANCH  36  37
ENDBRANCH  35  36
ENDBRANCH  34  35
ENDBRANCH  31  34
ENDBRANCH  30  31
ENDBRANCH  21  30
ENDBRANCH   1  21
TORSDOF 14
