REMARK  Name = ZINC35780300
REMARK  6 active torsions:
REMARK  status: ('A' for Active; 'I' for Inactive)
REMARK    1  A    between atoms: C_3  and  C_10
REMARK    2  A    between atoms: C_5  and  N_7
REMARK    3  A    between atoms: N_15  and  C_18
REMARK    4  A    between atoms: C_18  and  C_20
REMARK    5  A    between atoms: C_18  and  C_25
REMARK    6  A    between atoms: N_27  and  C_28
REMARK                            x       y       z     vdW  Elec       q    Type
REMARK                         _______ _______ _______ _____ _____    ______ ____
ROOT
ATOM      1  C   UNL     1       4.803   1.562   2.052  0.00  0.00    +0.247 C 
ATOM      2  O   UNL     1       5.746   1.169   2.709  0.00  0.00    -0.270 OA
ATOM      3  N   UNL     1       4.818   2.803   1.527  0.00  0.00    -0.301 N 
ATOM      4  C   UNL     1       3.650   3.335   0.808  0.00  0.00    +0.089 C 
ATOM      5  C   UNL     1       3.312   4.715   1.382  0.00  0.00    -0.058 C 
ATOM      6  N   UNL     1       4.502   5.573   1.323  0.00  0.00    +0.390 N 
ATOM      7  C   UNL     1       5.554   5.030   2.192  0.00  0.00    -0.058 C 
ATOM      8  C   UNL     1       6.000   3.668   1.663  0.00  0.00    +0.089 C 
ATOM      9  H   UNL     1       4.840   5.613   0.373  0.00  0.00    -0.081 HD
ENDROOT
BRANCH   1  12
ATOM     10  C   UNL     1       1.880  -0.124   0.402  0.00  0.00    +0.003 A 
ATOM     11  C   UNL     1       2.965   0.704   0.605  0.00  0.00    +0.013 A 
ATOM     12  C   UNL     1       3.639   0.678   1.827  0.00  0.00    +0.039 A 
ATOM     13  C   UNL     1       3.209  -0.185   2.836  0.00  0.00    +0.045 A 
ATOM     14  C   UNL     1       2.122  -1.007   2.620  0.00  0.00    +0.127 A 
ATOM     15  C   UNL     1       1.459  -0.977   1.406  0.00  0.00    +0.033 A 
BRANCH  14  16
ATOM     16  N   UNL     1       1.665  -1.923   3.689  0.00  0.00    +0.056 N 
ATOM     17  O   UNL     1       2.244  -1.950   4.750  0.00  0.00    -0.126 OA
ATOM     18  O   UNL     1       0.713  -2.644   3.501  0.00  0.00    -0.126 OA
ENDBRANCH  14  16
ENDBRANCH   1  12
BRANCH   6  19
ATOM     19  C   UNL     1       4.150   6.927   1.771  0.00  0.00    +0.023 C 
BRANCH  19  20
ATOM     20  C   UNL     1       3.053   7.493   0.868  0.00  0.00    -0.016 C 
ATOM     21  C   UNL     1       3.562   7.589  -0.586  0.00  0.00    +0.002 C 
ATOM     22  C   UNL     1       2.930   8.897  -1.124  0.00  0.00    +0.000 C 
ATOM     23  C   UNL     1       3.004   9.842   0.101  0.00  0.00    +0.000 C 
ATOM     24  C   UNL     1       2.698   8.926   1.304  0.00  0.00    +0.002 C 
ENDBRANCH  19  20
BRANCH  19  25
ATOM     25  C   UNL     1       5.367   7.812   1.699  0.00  0.00    +0.204 C 
ATOM     26  O   UNL     1       6.233   7.587   0.881  0.00  0.00    -0.277 OA
ATOM     27  N   UNL     1       5.493   8.854   2.545  0.00  0.00    -0.287 N 
ATOM     28  H   UNL     1       4.831   8.998   3.239  0.00  0.00    +0.155 HD
BRANCH  27  29
ATOM     29  C   UNL     1       6.578   9.729   2.421  0.00  0.00    +0.036 A 
ATOM     30  C   UNL     1       7.084  10.036   1.164  0.00  0.00    +0.023 A 
ATOM     31  C   UNL     1       8.155  10.899   1.043  0.00  0.00    +0.005 A 
ATOM     32  C   UNL     1       8.726  11.458   2.172  0.00  0.00    +0.038 A 
ATOM     33  C   UNL     1       8.225  11.155   3.427  0.00  0.00    +0.125 A 
ATOM     34  C   UNL     1       7.148  10.295   3.553  0.00  0.00    +0.061 A 
ATOM     35  F   UNL     1       8.784  11.702   4.528  0.00  0.00    -0.205 F 
ENDBRANCH  27  29
ENDBRANCH  19  25
ENDBRANCH   6  19
TORSDOF 6
