REMARK  Name = ZINC12058681
REMARK  8 active torsions:
REMARK  status: ('A' for Active; 'I' for Inactive)
REMARK    1  A    between atoms: C_1  and  C_2
REMARK    2  A    between atoms: C_3  and  C_15
REMARK    3  A    between atoms: N_6  and  C_7
REMARK    4  A    between atoms: C_15  and  C_17
REMARK    5  A    between atoms: C_15  and  N_50
REMARK    6  A    between atoms: C_18  and  C_19
REMARK    7  A    between atoms: C_18  and  N_50
REMARK    8  A    between atoms: C_22  and  C_25
REMARK                            x       y       z     vdW  Elec       q    Type
REMARK                         _______ _______ _______ _____ _____    ______ ____
ROOT
ATOM      1  N   UNL     1       0.962  -1.425   3.287  0.00  0.00    +0.386 N 
ATOM      2  H   UNL     1       1.636  -1.917   2.688  0.00  0.00    -0.085 HD
ATOM      3  H   UNL     1       0.247  -2.086   3.612  0.00  0.00    -0.085 HD
ENDROOT
BRANCH   1   4
ATOM      4  C   UNL     1       0.314  -0.351   2.509  0.00  0.00    -0.040 C 
ATOM      5  C   UNL     1      -1.058  -0.041   3.111  0.00  0.00    -0.009 C 
BRANCH   4   8
ATOM      6  C   UNL     1       0.083   1.502  -0.001  0.00  0.00    +0.066 C 
ATOM      7  C   UNL     1       0.046  -0.004  -0.003  0.00  0.00    +0.044 A 
ATOM      8  C   UNL     1       0.145  -0.807   1.083  0.00  0.00    -0.021 A 
ATOM      9  C   UNL     1       0.064  -2.133   0.646  0.00  0.00    +0.137 A 
ATOM     10  N   UNL     1      -0.079  -2.129  -0.655  0.00  0.00    -0.174 NA
ATOM     11  N   UNL     1      -0.099  -0.797  -1.088  0.00  0.00    -0.234 N 
BRANCH  11  12
ATOM     12  C   UNL     1      -0.240  -0.362  -2.415  0.00  0.00    +0.101 A 
ATOM     13  C   UNL     1       0.616   0.604  -2.925  0.00  0.00    +0.033 A 
ATOM     14  C   UNL     1       0.479   1.027  -4.233  0.00  0.00    +0.040 A 
ATOM     15  C   UNL     1      -0.519   0.496  -5.033  0.00  0.00    +0.126 A 
ATOM     16  C   UNL     1      -1.379  -0.464  -4.526  0.00  0.00    +0.078 A 
ATOM     17  C   UNL     1      -1.242  -0.895  -3.219  0.00  0.00    +0.151 A 
ATOM     18  F   UNL     1      -2.080  -1.831  -2.724  0.00  0.00    -0.203 F 
ATOM     19  F   UNL     1      -0.654   0.916  -6.310  0.00  0.00    -0.205 F 
ENDBRANCH  11  12
ENDBRANCH   4   8
ENDBRANCH   1   4
BRANCH   1  20
ATOM     20  C   UNL     1       1.668  -0.859   4.452  0.00  0.00    -0.043 C 
BRANCH  20  21
ATOM     21  C   UNL     1       2.319  -1.976   5.225  0.00  0.00    -0.028 A 
ATOM     22  C   UNL     1       1.639  -2.618   6.250  0.00  0.00    +0.116 A 
ATOM     23  N   UNL     1       2.237  -3.598   6.906  0.00  0.00    -0.235 NA
ATOM     24  C   UNL     1       3.475  -3.961   6.601  0.00  0.00    +0.160 A 
ATOM     25  N   UNL     1       4.154  -3.365   5.630  0.00  0.00    -0.235 NA
ATOM     26  C   UNL     1       3.612  -2.381   4.932  0.00  0.00    +0.116 A 
BRANCH  24  27
ATOM     27  C   UNL     1       4.116  -5.060   7.363  0.00  0.00    +0.019 A 
ATOM     28  C   UNL     1       5.415  -5.460   7.054  0.00  0.00    +0.013 A 
ATOM     29  C   UNL     1       6.009  -6.480   7.769  0.00  0.00    +0.021 A 
ATOM     30  C   UNL     1       5.312  -7.112   8.785  0.00  0.00    +0.041 A 
ATOM     31  C   UNL     1       4.020  -6.721   9.093  0.00  0.00    +0.021 A 
ATOM     32  C   UNL     1       3.420  -5.700   8.386  0.00  0.00    +0.013 A 
ATOM     33 CL   UNL     1       6.063  -8.399   9.678  0.00  0.00    -0.084 Cl
ENDBRANCH  24  27
ENDBRANCH  20  21
ENDBRANCH   1  20
TORSDOF 6
