REMARK  Name = ZINC38965792
REMARK  9 active torsions:
REMARK  status: ('A' for Active; 'I' for Inactive)
REMARK    1  A    between atoms: C_1  and  O_2
REMARK    2  A    between atoms: O_2  and  C_3
REMARK    3  A    between atoms: C_9  and  C_15
REMARK    4  A    between atoms: C_17  and  N_26
REMARK    5  A    between atoms: N_26  and  C_27
REMARK    6  A    between atoms: C_30  and  O_35
REMARK    7  A    between atoms: C_31  and  O_33
REMARK    8  A    between atoms: O_33  and  C_34
REMARK    9  A    between atoms: O_35  and  C_36
REMARK                            x       y       z     vdW  Elec       q    Type
REMARK                         _______ _______ _______ _____ _____    ______ ____
ROOT
ATOM      1  C   UNL     1      -0.416  -4.917  -2.333  0.00  0.00    +0.135 C 
ATOM      2  C   UNL     1      -0.121  -6.359  -2.783  0.00  0.00    +0.188 C 
ATOM      3  N   UNL     1      -0.478  -6.356  -4.212  0.00  0.00    -0.272 N 
ATOM      4  C   UNL     1      -0.424  -7.357  -5.137  0.00  0.00    +0.078 C 
ATOM      5  C   UNL     1      -0.803  -7.142  -6.413  0.00  0.00    +0.015 C 
ATOM      6  C   UNL     1      -1.260  -5.873  -6.808  0.00  0.00    +0.005 C 
ATOM      7  C   UNL     1      -1.319  -4.867  -5.901  0.00  0.00    +0.042 C 
ATOM      8  C   UNL     1      -0.917  -5.104  -4.556  0.00  0.00    +0.100 C 
ATOM      9  N   UNL     1      -0.907  -4.255  -3.546  0.00  0.00    -0.366 N 
ATOM     10  H   UNL     1      -1.184  -3.327  -3.596  0.00  0.00    +0.161 HD
ENDROOT
BRANCH   1  17
ATOM     11  C   UNL     1       2.237  -3.089  -5.165  0.00  0.00    +0.120 A 
ATOM     12  C   UNL     1       3.508  -3.655  -5.141  0.00  0.00    +0.046 A 
ATOM     13  C   UNL     1       3.915  -4.397  -4.067  0.00  0.00    +0.013 A 
ATOM     14  C   UNL     1       3.045  -4.586  -2.986  0.00  0.00    -0.005 A 
ATOM     15  C   UNL     1       1.764  -4.008  -3.022  0.00  0.00    -0.022 A 
ATOM     16  C   UNL     1       1.368  -3.268  -4.090  0.00  0.00    +0.050 A 
ATOM     17  C   UNL     1       0.861  -4.239  -1.832  0.00  0.00    +0.133 C 
ATOM     18  C   UNL     1       1.423  -5.078  -0.702  0.00  0.00    +0.246 C 
ATOM     19  O   UNL     1       0.750  -5.303   0.284  0.00  0.00    -0.273 OA
ATOM     20  N   UNL     1       2.661  -5.568  -0.797  0.00  0.00    -0.188 NA
ATOM     21  C   UNL     1       3.446  -5.372  -1.822  0.00  0.00    +0.109 C 
BRANCH  11  23
ATOM     22  C   UNL     1       2.784  -2.212  -7.304  0.00  0.00    +0.277 C 
ATOM     23  O   UNL     1       1.844  -2.356  -6.237  0.00  0.00    -0.495 OA
ENDBRANCH  11  23
ENDBRANCH   1  17
BRANCH   2  24
ATOM     24  N   UNL     1       1.299  -6.674  -2.604  0.00  0.00    -0.324 N 
ATOM     25  H   UNL     1       1.976  -6.057  -2.921  0.00  0.00    +0.148 HD
BRANCH  24  26
ATOM     26  C   UNL     1       1.677  -7.866  -1.974  0.00  0.00    +0.032 A 
ATOM     27  C   UNL     1       0.726  -8.637  -1.319  0.00  0.00    +0.027 A 
ATOM     28  C   UNL     1       1.098  -9.814  -0.698  0.00  0.00    +0.051 A 
ATOM     29  C   UNL     1       2.421 -10.226  -0.726  0.00  0.00    +0.162 A 
ATOM     30  C   UNL     1       3.376  -9.455  -1.381  0.00  0.00    +0.163 A 
ATOM     31  C   UNL     1       3.002  -8.279  -2.010  0.00  0.00    +0.072 A 
BRANCH  30  32
ATOM     32  O   UNL     1       4.674  -9.859  -1.409  0.00  0.00    -0.491 OA
ATOM     33  C   UNL     1       5.600  -9.018  -2.099  0.00  0.00    +0.277 C 
ENDBRANCH  30  32
BRANCH  29  34
ATOM     34  O   UNL     1       2.785 -11.385  -0.113  0.00  0.00    -0.491 OA
ATOM     35  C   UNL     1       1.753 -12.126   0.540  0.00  0.00    +0.277 C 
ENDBRANCH  29  34
ENDBRANCH  24  26
ENDBRANCH   2  24
TORSDOF 6
