REMARK  Name = ZINC21835627
REMARK  7 active torsions:
REMARK  status: ('A' for Active; 'I' for Inactive)
REMARK    1  A    between atoms: C_1  and  C_2
REMARK    2  A    between atoms: N_7  and  S_9
REMARK    3  A    between atoms: S_9  and  C_12
REMARK    4  A    between atoms: C_15  and  N_21
REMARK    5  A    between atoms: C_16  and  N_18
REMARK    6  A    between atoms: N_24  and  C_27
REMARK    7  A    between atoms: C_27  and  C_28
REMARK                            x       y       z     vdW  Elec       q    Type
REMARK                         _______ _______ _______ _____ _____    ______ ____
ROOT
ATOM      1  C   UNL     1       4.140   9.503  -7.541  0.00  0.00    +0.108 A 
ATOM      2  C   UNL     1       4.454  10.335  -6.481  0.00  0.00    +0.030 A 
ATOM      3  C   UNL     1       4.347   9.872  -5.184  0.00  0.00    +0.027 A 
ATOM      4  C   UNL     1       3.924   8.571  -4.945  0.00  0.00    +0.060 A 
ATOM      5  C   UNL     1       3.614   7.737  -6.012  0.00  0.00    +0.149 A 
ATOM      6  C   UNL     1       3.718   8.208  -7.306  0.00  0.00    +0.063 A 
ENDROOT
BRANCH   4   7
ATOM      7  N   UNL     1       3.814   8.100  -3.634  0.00  0.00    -0.326 N 
ATOM      8  C   UNL     1       5.129   8.058  -2.979  0.00  0.00    +0.120 C 
ATOM      9  C   UNL     1       4.978   7.464  -1.576  0.00  0.00    +0.103 C 
ATOM     10  N   UNL     1       4.032   8.279  -0.801  0.00  0.00    -0.294 NA
ATOM     11  C   UNL     1       2.717   8.321  -1.457  0.00  0.00    +0.103 C 
ATOM     12  C   UNL     1       2.868   8.915  -2.859  0.00  0.00    +0.120 C 
BRANCH  10  13
ATOM     13  C   UNL     1       3.917   7.784   0.577  0.00  0.00    +0.139 C 
BRANCH  13  14
ATOM     14  C   UNL     1       3.139   8.775   1.404  0.00  0.00    +0.048 A 
ATOM     15  C   UNL     1       1.812   8.725   1.652  0.00  0.00    +0.115 A 
ATOM     16  N   UNL     1       1.507   9.804   2.437  0.00  0.00    -0.308 N 
ATOM     17  C   UNL     1       0.337  10.248   2.981  0.00  0.00    +0.092 A 
ATOM     18  C   UNL     1       0.311  11.368   3.734  0.00  0.00    +0.018 A 
ATOM     19  C   UNL     1       1.490  12.096   3.963  0.00  0.00    +0.005 A 
ATOM     20  C   UNL     1       2.664  11.661   3.431  0.00  0.00    +0.045 A 
ATOM     21  C   UNL     1       2.675  10.490   2.647  0.00  0.00    +0.115 A 
ATOM     22  N   UNL     1       3.647   9.849   2.013  0.00  0.00    -0.342 N 
ATOM     23  H   UNL     1       4.722  10.070   1.933  0.00  0.00    +0.167 HD
ENDBRANCH  13  14
ENDBRANCH  10  13
ENDBRANCH   4   7
BRANCH   1  24
ATOM     24  S   UNL     1       4.278  10.097  -9.194  0.00  0.00    +0.061 S 
ATOM     25  O   UNL     1       3.405   9.303  -9.985  0.00  0.00    -0.153 OA
ATOM     26  O   UNL     1       4.170  11.512  -9.128  0.00  0.00    -0.153 OA
BRANCH  24  32
ATOM     27  C   UNL     1       7.258   7.476 -12.358  0.00  0.00    +0.009 C 
ATOM     28  C   UNL     1       6.809   8.788 -11.712  0.00  0.00    +0.002 C 
ATOM     29  C   UNL     1       8.028   9.681 -11.468  0.00  0.00    +0.006 C 
ATOM     30  C   UNL     1       7.577  11.007 -10.852  0.00  0.00    +0.017 C 
ATOM     31  C   UNL     1       6.899  10.737  -9.509  0.00  0.00    +0.109 C 
ATOM     32  N   UNL     1       5.816   9.763  -9.707  0.00  0.00    -0.176 NA
ATOM     33  C   UNL     1       6.124   8.491 -10.374  0.00  0.00    +0.112 C 
ENDBRANCH  24  32
ENDBRANCH   1  24
BRANCH   5  34
ATOM     34  N   UNL     1       3.169   6.348  -5.762  0.00  0.00    +0.058 N 
ATOM     35  O   UNL     1       2.987   5.589  -6.697  0.00  0.00    -0.126 OA
ATOM     36  O   UNL     1       2.983   5.964  -4.621  0.00  0.00    -0.126 OA
ENDBRANCH   5  34
TORSDOF 6
