REMARK  Name = ZINC12456809
REMARK  5 active torsions:
REMARK  status: ('A' for Active; 'I' for Inactive)
REMARK    1  A    between atoms: C_11  and  C_13
REMARK    2  A    between atoms: C_16  and  N_19
REMARK    3  A    between atoms: C_22  and  N_70
REMARK    4  A    between atoms: C_25  and  C_26
REMARK    5  A    between atoms: C_25  and  N_70
REMARK                            x       y       z     vdW  Elec       q    Type
REMARK                         _______ _______ _______ _____ _____    ______ ____
ROOT
ATOM      1  N   UNL     1      -3.419   2.349  -2.132  0.00  0.00    -0.330 N 
ATOM      2  C   UNL     1      -3.607   0.902  -1.965  0.00  0.00    +0.103 C 
ATOM      3  C   UNL     1      -2.751   0.407  -0.797  0.00  0.00    +0.003 C 
ATOM      4  C   UNL     1      -1.279   0.719  -1.081  0.00  0.00    -0.069 C 
ATOM      5  C   UNL     1      -1.117   2.226  -1.300  0.00  0.00    +0.003 C 
ATOM      6  C   UNL     1      -2.022   2.669  -2.452  0.00  0.00    +0.103 C 
ENDROOT
BRANCH   1  10
ATOM      7  C   UNL     1      -5.996   3.863  -5.027  0.00  0.00    +0.037 A 
ATOM      8  C   UNL     1      -5.109   4.716  -4.365  0.00  0.00    +0.015 A 
ATOM      9  C   UNL     1      -4.258   4.212  -3.408  0.00  0.00    +0.024 A 
ATOM     10  C   UNL     1      -4.280   2.855  -3.099  0.00  0.00    +0.030 A 
ATOM     11  C   UNL     1      -5.159   2.002  -3.762  0.00  0.00    +0.024 A 
ATOM     12  C   UNL     1      -6.016   2.501  -4.715  0.00  0.00    +0.015 A 
BRANCH   7  23
ATOM     13  C   UNL     1      -4.664   2.349 -11.382  0.00  0.00    +0.000 A 
ATOM     14  C   UNL     1      -4.373   1.370 -10.449  0.00  0.00    +0.000 A 
ATOM     15  C   UNL     1      -4.944   1.430  -9.195  0.00  0.00    +0.005 A 
ATOM     16  C   UNL     1      -5.807   2.465  -8.861  0.00  0.00    -0.027 A 
ATOM     17  C   UNL     1      -6.092   3.444  -9.786  0.00  0.00    -0.041 A 
ATOM     18  C   UNL     1      -5.519   3.379 -11.051  0.00  0.00    +0.004 A 
ATOM     19  C   UNL     1      -7.005   4.606  -9.492  0.00  0.00    +0.054 C 
ATOM     20  C   UNL     1      -7.912   4.296  -8.297  0.00  0.00    +0.113 C 
ATOM     21  N   UNL     1      -7.066   3.749  -7.224  0.00  0.00    -0.293 N 
ATOM     22  C   UNL     1      -6.404   2.465  -7.476  0.00  0.00    +0.143 C 
ATOM     23  C   UNL     1      -6.910   4.400  -6.054  0.00  0.00    +0.247 C 
ATOM     24  O   UNL     1      -7.522   5.430  -5.845  0.00  0.00    -0.270 OA
ENDBRANCH   7  23
ENDBRANCH   1  10
BRANCH   4  25
ATOM     25  N   UNL     1      -0.463   0.297   0.073  0.00  0.00    +0.383 N 
ATOM     26  H   UNL     1      -0.867  -0.553   0.481  0.00  0.00    -0.085 HD
ATOM     27  H   UNL     1      -0.458   1.046   0.776  0.00  0.00    -0.085 HD
BRANCH  25  28
ATOM     28  C   UNL     1       0.922   0.022  -0.353  0.00  0.00    -0.045 C 
BRANCH  28  29
ATOM     29  C   UNL     1       1.744  -0.412   0.862  0.00  0.00    +0.132 C 
ATOM     30  C   UNL     1       3.186  -0.576   0.457  0.00  0.00    -0.017 A 
ATOM     31  C   UNL     1       3.763   0.388  -0.355  0.00  0.00    +0.006 A 
ATOM     32  C   UNL     1       5.083   0.272  -0.743  0.00  0.00    +0.000 A 
ATOM     33  C   UNL     1       5.834  -0.809  -0.320  0.00  0.00    +0.000 A 
ATOM     34  C   UNL     1       5.260  -1.770   0.488  0.00  0.00    +0.004 A 
ATOM     35  C   UNL     1       3.934  -1.656   0.876  0.00  0.00    -0.040 A 
ATOM     36  C   UNL     1       3.339  -2.731   1.750  0.00  0.00    +0.063 C 
ATOM     37  C   UNL     1       2.047  -2.220   2.390  0.00  0.00    +0.165 C 
ATOM     38  O   UNL     1       1.229  -1.644   1.365  0.00  0.00    -0.374 OA
ENDBRANCH  28  29
ENDBRANCH  25  28
ENDBRANCH   4  25
TORSDOF 5
