REMARK  Name = ZINC09577725
REMARK  9 active torsions:
REMARK  status: ('A' for Active; 'I' for Inactive)
REMARK    1  A    between atoms: C_1  and  C_2
REMARK    2  A    between atoms: C_11  and  N_21
REMARK    3  A    between atoms: C_13  and  C_15
REMARK    4  A    between atoms: C_26  and  C_27
REMARK    5  A    between atoms: C_26  and  N_68
REMARK    6  A    between atoms: N_29  and  C_30
REMARK    7  A    between atoms: C_30  and  C_31
REMARK    8  A    between atoms: C_31  and  C_32
REMARK    9  A    between atoms: C_31  and  C_33
REMARK                            x       y       z     vdW  Elec       q    Type
REMARK                         _______ _______ _______ _____ _____    ______ ____
ROOT
ATOM      1  C   UNL     1       5.053  -1.831   5.442  0.00  0.00    +0.008 C 
ATOM      2  C   UNL     1       4.466  -1.418   4.091  0.00  0.00    -0.009 C 
ATOM      3  C   UNL     1       3.220  -2.258   3.794  0.00  0.00    +0.008 C 
ATOM      4  C   UNL     1       2.773  -2.030   2.350  0.00  0.00    +0.037 C 
ATOM      5  C   UNL     1       2.627  -0.529   2.111  0.00  0.00    -0.025 A 
ATOM      6  C   UNL     1       3.219   0.360   2.934  0.00  0.00    -0.004 A 
ATOM      7  S   UNL     1       2.784   1.952   2.285  0.00  0.00    -0.073 S 
ATOM      8  C   UNL     1       1.805   1.419   0.905  0.00  0.00    +0.114 A 
ATOM      9  C   UNL     1       1.850   0.013   0.996  0.00  0.00    +0.051 A 
ATOM     10  C   UNL     1       1.131  -0.691  -0.012  0.00  0.00    +0.134 A 
ATOM     11  N   UNL     1       0.485  -0.007  -0.941  0.00  0.00    -0.212 NA
ATOM     12  C   UNL     1       0.484   1.322  -0.966  0.00  0.00    +0.164 A 
ATOM     13  N   UNL     1       1.137   2.029  -0.052  0.00  0.00    -0.220 NA
ATOM     14  C   UNL     1       4.062   0.062   4.136  0.00  0.00    +0.046 C 
ENDROOT
BRANCH  10  15
ATOM     15  N   UNL     1       1.108  -2.074  -0.019  0.00  0.00    -0.318 N 
ATOM     16  C   UNL     1       1.749  -2.605  -1.230  0.00  0.00    +0.088 C 
ATOM     17  C   UNL     1       1.775  -4.134  -1.162  0.00  0.00    -0.059 C 
ATOM     18  C   UNL     1      -0.240  -4.108   0.179  0.00  0.00    -0.059 C 
ATOM     19  C   UNL     1      -0.266  -2.579   0.111  0.00  0.00    +0.088 C 
ATOM     20  N   UNL     1       0.386  -4.629  -1.054  0.00  0.00    +0.387 N 
ATOM     21  H   UNL     1      -0.150  -4.300  -1.865  0.00  0.00    -0.081 HD
BRANCH  20  22
ATOM     22  C   UNL     1       0.377  -6.108  -1.040  0.00  0.00    +0.019 C 
BRANCH  22  23
ATOM     23  C   UNL     1       0.814  -6.610  -2.391  0.00  0.00    +0.196 C 
ATOM     24  O   UNL     1       1.116  -5.823  -3.263  0.00  0.00    -0.278 OA
ATOM     25  N   UNL     1       0.870  -7.935  -2.632  0.00  0.00    -0.317 N 
ATOM     26  H   UNL     1       0.628  -8.565  -1.935  0.00  0.00    +0.149 HD
BRANCH  25  27
ATOM     27  C   UNL     1       1.294  -8.424  -3.946  0.00  0.00    +0.107 C 
BRANCH  27  28
ATOM     28  C   UNL     1       1.269  -9.954  -3.954  0.00  0.00    -0.000 C 
ATOM     29  C   UNL     1      -0.171 -10.441  -3.787  0.00  0.00    +0.009 C 
ATOM     30  C   UNL     1       1.831 -10.466  -5.281  0.00  0.00    +0.009 C 
ENDBRANCH  27  28
ENDBRANCH  25  27
ENDBRANCH  22  23
ENDBRANCH  20  22
ENDBRANCH  10  15
BRANCH  12  31
ATOM     31  C   UNL     1      -0.257   2.027  -2.039  0.00  0.00    +0.037 A 
ATOM     32  C   UNL     1      -0.275   3.425  -2.090  0.00  0.00    +0.014 A 
ATOM     33  C   UNL     1      -0.980   4.036  -3.112  0.00  0.00    +0.020 A 
ATOM     34  C   UNL     1      -1.639   3.252  -4.042  0.00  0.00    +0.111 A 
ATOM     35  N   UNL     1      -1.603   1.935  -3.969  0.00  0.00    -0.263 NA
ATOM     36  C   UNL     1      -0.942   1.309  -3.018  0.00  0.00    +0.122 A 
ENDBRANCH  12  31
TORSDOF 6
