REMARK  Name = ZINC40318048
REMARK  9 active torsions:
REMARK  status: ('A' for Active; 'I' for Inactive)
REMARK    1  A    between atoms: C_3  and  O_9
REMARK    2  A    between atoms: O_9  and  C_10
REMARK    3  A    between atoms: C_10  and  C_11
REMARK    4  A    between atoms: C_11  and  C_13
REMARK    5  A    between atoms: C_11  and  O_30
REMARK    6  A    between atoms: C_13  and  N_14
REMARK    7  A    between atoms: N_14  and  C_15
REMARK    8  A    between atoms: N_14  and  C_22
REMARK    9  A    between atoms: C_15  and  C_16
REMARK                            x       y       z     vdW  Elec       q    Type
REMARK                         _______ _______ _______ _____ _____    ______ ____
ROOT
ATOM      1  N   UNL     1       6.133   6.526   0.111  0.00  0.00    +0.389 N 
ATOM      2  H   UNL     1       6.678   6.726   0.936  0.00  0.00    -0.081 HD
ENDROOT
BRANCH   1   3
ATOM      3  C   UNL     1       7.031   6.186  -1.000  0.00  0.00    -0.045 C 
ATOM      4  C   UNL     1       8.288   7.070  -0.941  0.00  0.00    +0.009 C 
ATOM      5  C   UNL     1       9.080   6.951  -2.265  0.00  0.00    +0.164 C 
ATOM      6  S   UNL     1       7.765   6.554  -3.488  0.00  0.00    -0.033 S 
ATOM      7  O   UNL     1       8.015   5.266  -4.035  0.00  0.00    -0.174 OA
ATOM      8  O   UNL     1       7.594   7.662  -4.360  0.00  0.00    -0.174 OA
ATOM      9  C   UNL     1       6.316   6.452  -2.355  0.00  0.00    +0.151 C 
ENDBRANCH   1   3
BRANCH   1  10
ATOM     10  C   UNL     1       5.236   5.394   0.380  0.00  0.00    -0.043 C 
BRANCH  10  11
ATOM     11  C   UNL     1       6.051   4.212   0.908  0.00  0.00    +0.135 C 
BRANCH  11  12
ATOM     12  O   UNL     1       6.712   4.591   2.117  0.00  0.00    -0.390 OA
ATOM     13  H   UNL     1       6.111   4.862   2.825  0.00  0.00    +0.210 HD
ENDBRANCH  11  12
BRANCH  11  14
ATOM     14  C   UNL     1       5.118   3.031   1.185  0.00  0.00    +0.258 C 
BRANCH  14  15
ATOM     15  O   UNL     1       5.891   1.892   1.567  0.00  0.00    -0.488 OA
BRANCH  15  18
ATOM     16  C   UNL     1       3.135  -0.433   2.051  0.00  0.00    +0.023 A 
ATOM     17  C   UNL     1       3.826   0.728   1.763  0.00  0.00    +0.048 A 
ATOM     18  C   UNL     1       5.210   0.750   1.851  0.00  0.00    +0.139 A 
ATOM     19  C   UNL     1       5.898  -0.395   2.228  0.00  0.00    +0.084 A 
ATOM     20  C   UNL     1       5.203  -1.554   2.515  0.00  0.00    +0.043 A 
ATOM     21  C   UNL     1       3.822  -1.574   2.426  0.00  0.00    +0.043 A 
ATOM     22 CL   UNL     1       2.950  -3.031   2.788  0.00  0.00    -0.083 Cl
ATOM     23 CL   UNL     1       7.630  -0.371   2.338  0.00  0.00    -0.080 Cl
ENDBRANCH  15  18
ENDBRANCH  14  15
ENDBRANCH  11  14
ENDBRANCH  10  11
ENDBRANCH   1  10
BRANCH   1  24
ATOM     24  C   UNL     1       5.336   7.707  -0.247  0.00  0.00    -0.003 C 
BRANCH  24  25
ATOM     25  C   UNL     1       6.244   8.901  -0.388  0.00  0.00    +0.090 A 
ATOM     26  C   UNL     1       6.532   9.540  -1.536  0.00  0.00    +0.044 A 
ATOM     27  C   UNL     1       7.416  10.594  -1.209  0.00  0.00    +0.057 A 
ATOM     28  C   UNL     1       7.615  10.536   0.122  0.00  0.00    +0.170 A 
ATOM     29  O   UNL     1       6.898   9.513   0.614  0.00  0.00    -0.455 OA
ATOM     30 BR   UNL     1       8.712  11.703   1.127  0.00  0.00    -0.008 Br
ENDBRANCH  24  25
ENDBRANCH   1  24
TORSDOF 9
