REMARK  Name = ZINC39141079
REMARK  3 active torsions:
REMARK  status: ('A' for Active; 'I' for Inactive)
REMARK    1  A    between atoms: C_4  and  C_7
REMARK    2  A    between atoms: C_9  and  C_21
REMARK    3  A    between atoms: C_26  and  C_27
REMARK                            x       y       z     vdW  Elec       q    Type
REMARK                         _______ _______ _______ _____ _____    ______ ____
ROOT
ATOM      1  C   UNL     1       3.697  -0.687  -0.038  0.00  0.00    +0.036 C 
ATOM      2  C   UNL     1       3.707  -2.012  -0.051  0.00  0.00    +0.006 C 
ATOM      3  C   UNL     1       4.965  -2.832  -0.056  0.00  0.00    +0.063 C 
ATOM      4  C   UNL     1       6.136  -2.012  -0.601  0.00  0.00    +0.149 C 
ATOM      5  C   UNL     1       6.049  -0.662   0.094  0.00  0.00    +0.104 C 
ATOM      6  N   UNL     1       7.065  -0.256   0.797  0.00  0.00    -0.180 NA
ATOM      7  C   UNL     1       8.165  -1.013   0.937  0.00  0.00    +0.182 C 
ATOM      8  S   UNL     1       9.466  -0.367   1.844  0.00  0.00    -0.015 S 
ATOM      9  N   UNL     1       8.315  -2.236   0.417  0.00  0.00    -0.156 NA
ATOM     10  C   UNL     1       7.402  -2.808  -0.341  0.00  0.00    +0.249 C 
ATOM     11  O   UNL     1       7.573  -4.038  -0.857  0.00  0.00    -0.273 OA
ATOM     12  N   UNL     1       4.895   0.044  -0.047  0.00  0.00    -0.304 N 
ATOM     13  H   UNL     1       4.899   1.009  -0.145  0.00  0.00    +0.153 HD
ENDROOT
BRANCH   1  17
ATOM     14  C   UNL     1      -0.017   1.379   0.010  0.00  0.00    +0.000 A 
ATOM     15  C   UNL     1       1.169   2.093   0.002  0.00  0.00    +0.001 A 
ATOM     16  C   UNL     1       2.377   1.427  -0.013  0.00  0.00    +0.010 A 
ATOM     17  C   UNL     1       2.403   0.033  -0.021  0.00  0.00    -0.004 A 
ATOM     18  C   UNL     1       1.205  -0.680  -0.013  0.00  0.00    +0.010 A 
ATOM     19  C   UNL     1       0.002  -0.004   0.002  0.00  0.00    +0.001 A 
ENDBRANCH   1  17
BRANCH   3  20
ATOM     20  C   UNL     1       4.765  -4.046  -0.927  0.00  0.00    -0.028 A 
ATOM     21  C   UNL     1       4.463  -3.893  -2.267  0.00  0.00    +0.005 A 
ATOM     22  C   UNL     1       4.280  -5.007  -3.066  0.00  0.00    +0.000 A 
ATOM     23  C   UNL     1       4.399  -6.273  -2.524  0.00  0.00    +0.001 A 
ATOM     24  C   UNL     1       4.702  -6.426  -1.184  0.00  0.00    +0.012 A 
ATOM     25  C   UNL     1       4.889  -5.312  -0.386  0.00  0.00    +0.059 A 
BRANCH  25  26
ATOM     26  C   UNL     1       5.225  -5.479   1.073  0.00  0.00    +0.418 C 
ATOM     27  F   UNL     1       5.296  -6.841   1.383  0.00  0.00    -0.166 F 
ATOM     28  F   UNL     1       6.458  -4.875   1.340  0.00  0.00    -0.166 F 
ATOM     29  F   UNL     1       4.232  -4.875   1.852  0.00  0.00    -0.166 F 
ENDBRANCH  25  26
ENDBRANCH   3  20
TORSDOF 3
