REMARK  Name = ZINC12039557
REMARK  14 active torsions:
REMARK  status: ('A' for Active; 'I' for Inactive)
REMARK    1  A    between atoms: C_1  and  C_2
REMARK    2  A    between atoms: C_2  and  C_3
REMARK    3  A    between atoms: C_6  and  C_9
REMARK    4  A    between atoms: C_9  and  N_72
REMARK    5  A    between atoms: C_15  and  C_19
REMARK    6  A    between atoms: C_19  and  C_21
REMARK    7  A    between atoms: C_19  and  N_25
REMARK    8  A    between atoms: C_21  and  C_22
REMARK    9  A    between atoms: C_22  and  C_23
REMARK   10  A    between atoms: C_22  and  C_24
REMARK   11  A    between atoms: C_26  and  C_28
REMARK   12  A    between atoms: C_31  and  C_33
REMARK   13  A    between atoms: C_33  and  O_34
REMARK   14  A    between atoms: O_34  and  C_35
REMARK                            x       y       z     vdW  Elec       q    Type
REMARK                         _______ _______ _______ _____ _____    ______ ____
ROOT
ATOM      1  C   UNL     1      -2.060   1.002   6.033  0.00  0.00    -0.071 C 
ATOM      2  C   UNL     1      -3.281   0.572   6.852  0.00  0.00    +0.058 C 
ATOM      3  C   UNL     1      -2.896   0.518   8.308  0.00  0.00    +0.132 A 
ATOM      4  N   UNL     1      -3.168  -0.417   9.169  0.00  0.00    -0.134 NA
ATOM      5  N   UNL     1      -2.700  -0.090  10.324  0.00  0.00    -0.132 NA
ATOM      6  C   UNL     1      -2.102   1.070  10.244  0.00  0.00    +0.154 A 
ATOM      7  N   UNL     1      -2.198   1.480   8.962  0.00  0.00    -0.315 N 
ATOM      8  C   UNL     1      -1.659   2.704   8.370  0.00  0.00    +0.106 C 
ATOM      9  C   UNL     1      -2.521   3.104   7.169  0.00  0.00    -0.056 C 
ATOM     10  N   UNL     1      -1.975   2.476   5.944  0.00  0.00    +0.384 N 
ATOM     11  H   UNL     1      -0.989   2.745   5.846  0.00  0.00    -0.081 HD
ENDROOT
BRANCH  10  12
ATOM     12  C   UNL     1      -2.718   2.950   4.762  0.00  0.00    -0.043 C 
BRANCH  12  16
ATOM     13  C   UNL     1      -0.718   1.572   1.248  0.00  0.00    -0.048 A 
ATOM     14  C   UNL     1      -0.360   2.779   1.819  0.00  0.00    +0.004 A 
ATOM     15  C   UNL     1      -1.010   3.227   2.953  0.00  0.00    +0.002 A 
ATOM     16  C   UNL     1      -2.012   2.463   3.523  0.00  0.00    -0.064 A 
ATOM     17  C   UNL     1      -2.366   1.254   2.955  0.00  0.00    +0.002 A 
ATOM     18  C   UNL     1      -1.719   0.808   1.818  0.00  0.00    +0.004 A 
BRANCH  13  20
ATOM     19  C   UNL     1      -0.753   1.593  -1.232  0.00  0.00    +0.009 C 
ATOM     20  C   UNL     1      -0.013   1.086   0.008  0.00  0.00    +0.032 C 
ENDBRANCH  13  20
ENDBRANCH  12  16
ENDBRANCH  10  12
BRANCH   6  21
ATOM     21  C   UNL     1      -1.429   1.809  11.372  0.00  0.00    +0.142 C 
BRANCH  21  22
ATOM     22  N   UNL     1      -0.604   0.876  12.144  0.00  0.00    -0.299 N 
ATOM     23  C   UNL     1       0.450   1.334  12.849  0.00  0.00    +0.280 C 
ATOM     24  O   UNL     1       0.716   2.521  12.844  0.00  0.00    -0.267 OA
ATOM     25  H   UNL     1      -0.816  -0.070  12.148  0.00  0.00    +0.150 HD
BRANCH  23  26
ATOM     26  C   UNL     1       1.276   0.400  13.621  0.00  0.00    +0.190 A 
ATOM     27  C   UNL     1       2.366   0.728  14.375  0.00  0.00    +0.055 A 
ATOM     28  C   UNL     1       2.844  -0.467  14.935  0.00  0.00    +0.048 A 
ATOM     29  C   UNL     1       2.035  -1.460  14.504  0.00  0.00    +0.131 A 
ATOM     30  O   UNL     1       1.088  -0.933  13.717  0.00  0.00    -0.453 OA
BRANCH  29  31
ATOM     31  C   UNL     1       2.171  -2.919  14.856  0.00  0.00    +0.233 C 
BRANCH  31  32
ATOM     32  O   UNL     1       1.419  -3.196  16.038  0.00  0.00    -0.375 OA
ATOM     33  C   UNL     1       1.482  -4.560  16.460  0.00  0.00    +0.194 C 
ENDBRANCH  31  32
ENDBRANCH  29  31
ENDBRANCH  23  26
ENDBRANCH  21  22
BRANCH  21  34
ATOM     34  C   UNL     1      -2.492   2.424  12.284  0.00  0.00    +0.033 C 
BRANCH  34  35
ATOM     35  C   UNL     1      -1.812   3.278  13.357  0.00  0.00    -0.015 C 
ATOM     36  C   UNL     1      -1.111   4.465  12.694  0.00  0.00    +0.007 C 
ATOM     37  C   UNL     1      -2.864   3.792  14.342  0.00  0.00    +0.007 C 
ENDBRANCH  34  35
ENDBRANCH  21  34
ENDBRANCH   6  21
TORSDOF 10
