REMARK  Name = ZINC13734757
REMARK  6 active torsions:
REMARK  status: ('A' for Active; 'I' for Inactive)
REMARK    1  A    between atoms: C_1  and  C_2
REMARK    2  A    between atoms: C_5  and  N_9
REMARK    3  A    between atoms: C_7  and  C_8
REMARK    4  A    between atoms: C_37  and  C_39
REMARK    5  A    between atoms: C_39  and  C_40
REMARK    6  A    between atoms: C_39  and  C_41
REMARK                            x       y       z     vdW  Elec       q    Type
REMARK                         _______ _______ _______ _____ _____    ______ ____
ROOT
ATOM      1  N   UNL     1       0.059  -4.172  -0.021  0.00  0.00    -0.210 N 
ATOM      2  C   UNL     1       0.167  -4.901   1.096  0.00  0.00    +0.232 C 
ATOM      3  O   UNL     1       0.261  -4.452   2.219  0.00  0.00    -0.274 OA
ATOM      4  C   UNL     1       0.152  -6.370   0.741  0.00  0.00    +0.107 C 
ATOM      5  C   UNL     1       0.021  -6.363  -0.807  0.00  0.00    +0.121 C 
ATOM      6  C   UNL     1      -0.036  -4.891  -1.145  0.00  0.00    +0.233 C 
ATOM      7  O   UNL     1      -0.147  -4.433  -2.262  0.00  0.00    -0.274 OA
ATOM      8  C   UNL     1      -1.335  -7.022  -1.084  0.00  0.00    +0.118 C 
ATOM      9  C   UNL     1      -2.405  -6.002  -1.344  0.00  0.00    +0.005 A 
ATOM     10  C   UNL     1      -2.918  -4.960  -0.602  0.00  0.00    +0.008 A 
ATOM     11  C   UNL     1      -3.929  -4.172  -1.123  0.00  0.00    +0.000 A 
ATOM     12  C   UNL     1      -4.422  -4.431  -2.389  0.00  0.00    +0.002 A 
ATOM     13  C   UNL     1      -3.911  -5.473  -3.135  0.00  0.00    +0.026 A 
ATOM     14  C   UNL     1      -2.893  -6.271  -2.616  0.00  0.00    +0.057 A 
ATOM     15  N   UNL     1      -2.226  -7.371  -3.179  0.00  0.00    -0.262 N 
ATOM     16  C   UNL     1      -1.285  -7.872  -2.329  0.00  0.00    +0.143 A 
ATOM     17  N   UNL     1      -0.534  -8.895  -2.623  0.00  0.00    -0.231 NA
ATOM     18  C   UNL     1      -0.632  -9.544  -3.808  0.00  0.00    +0.078 A 
ATOM     19  C   UNL     1       0.176 -10.640  -4.115  0.00  0.00    +0.028 A 
ATOM     20  C   UNL     1       0.040 -11.268  -5.332  0.00  0.00    +0.002 A 
ATOM     21  C   UNL     1      -0.893 -10.825  -6.261  0.00  0.00    +0.001 A 
ATOM     22  C   UNL     1      -1.701  -9.745  -5.981  0.00  0.00    +0.015 A 
ATOM     23  C   UNL     1      -1.580  -9.095  -4.754  0.00  0.00    +0.065 A 
ATOM     24  C   UNL     1      -2.413  -7.941  -4.399  0.00  0.00    +0.266 A 
ATOM     25  O   UNL     1      -3.247  -7.507  -5.172  0.00  0.00    -0.267 OA
ATOM     26  N   UNL     1      -1.640  -7.838   0.106  0.00  0.00    -0.296 NA
ATOM     27  C   UNL     1      -1.156  -7.004   1.262  0.00  0.00    +0.070 C 
ATOM     28  H   UNL     1      -2.631  -8.012   0.180  0.00  0.00    +0.123 HD
ENDROOT
BRANCH   1  33
ATOM     29  C   UNL     1      -0.016   1.503   0.012  0.00  0.00    +0.044 C 
ATOM     30  C   UNL     1       0.004  -0.004   0.003  0.00  0.00    -0.047 A 
ATOM     31  C   UNL     1      -1.042  -0.711   0.568  0.00  0.00    +0.005 A 
ATOM     32  C   UNL     1      -1.026  -2.092   0.561  0.00  0.00    +0.024 A 
ATOM     33  C   UNL     1       0.040  -2.771  -0.013  0.00  0.00    +0.044 A 
ATOM     34  C   UNL     1       1.088  -2.058  -0.580  0.00  0.00    +0.027 A 
ATOM     35  C   UNL     1       1.065  -0.677  -0.575  0.00  0.00    -0.046 A 
ATOM     36  C   UNL     1       2.200   0.098  -1.194  0.00  0.00    +0.044 C 
ENDBRANCH   1  33
BRANCH  27  37
ATOM     37  C   UNL     1      -0.872  -7.891   2.476  0.00  0.00    +0.001 C 
ATOM     38  C   UNL     1      -2.180  -8.507   2.974  0.00  0.00    +0.009 C 
ATOM     39  C   UNL     1       0.098  -9.005   2.078  0.00  0.00    +0.009 C 
ENDBRANCH  27  37
TORSDOF 2
