REMARK  Name = ZINC13017195
REMARK  1 active torsions:
REMARK  status: ('A' for Active; 'I' for Inactive)
REMARK    1  A    between atoms: C_17  and  C_24
REMARK                            x       y       z     vdW  Elec       q    Type
REMARK                         _______ _______ _______ _____ _____    ______ ____
ROOT
ATOM      1  C   UNL     1       3.957  -1.885  -0.798  0.00  0.00    +0.028 A 
ATOM      2  C   UNL     1       4.956  -2.054  -1.739  0.00  0.00    +0.043 A 
ATOM      3  C   UNL     1       4.652  -2.583  -2.981  0.00  0.00    +0.043 A 
ATOM      4  C   UNL     1       3.353  -2.946  -3.276  0.00  0.00    +0.085 A 
ATOM      5  C   UNL     1       2.345  -2.781  -2.329  0.00  0.00    +0.154 A 
ATOM      6  C   UNL     1       2.653  -2.244  -1.092  0.00  0.00    +0.007 A 
ATOM      7  C   UNL     1       1.591  -2.030  -0.034  0.00  0.00    +0.077 C 
ATOM      8  C   UNL     1       1.217  -0.586  -0.018  0.00  0.00    +0.033 A 
ATOM      9  C   UNL     1       0.002  -0.004   0.002  0.00  0.00    +0.088 A 
ATOM     10  N   UNL     1      -0.017   1.371   0.010  0.00  0.00    -0.311 N 
ATOM     11  H   UNL     1      -0.864   1.843   0.016  0.00  0.00    +0.170 HD
ATOM     12  C   UNL     1       1.139   2.065   0.002  0.00  0.00    +0.289 A 
ATOM     13  O   UNL     1       1.305   3.272   0.009  0.00  0.00    -0.260 OA
ATOM     14  S   UNL     1       2.329   0.802  -0.020  0.00  0.00    -0.030 S 
ATOM     15  S   UNL     1      -1.473  -1.003   0.021  0.00  0.00    -0.091 S 
ATOM     16  C   UNL     1      -0.811  -2.624   0.514  0.00  0.00    +0.180 C 
ATOM     17  C   UNL     1       0.412  -2.944  -0.332  0.00  0.00    +0.135 C 
ATOM     18  C   UNL     1       0.094  -2.850  -1.805  0.00  0.00    +0.318 C 
ATOM     19  O   UNL     1      -0.993  -2.501  -2.199  0.00  0.00    -0.250 OA
ATOM     20  O   UNL     1       1.085  -3.177  -2.660  0.00  0.00    -0.424 OA
ATOM     21 CL   UNL     1       2.973  -3.609  -4.835  0.00  0.00    -0.080 Cl
ATOM     22 CL   UNL     1       6.590  -1.604  -1.363  0.00  0.00    -0.083 Cl
ENDROOT
BRANCH  16  23
ATOM     23  C   UNL     1      -1.862  -3.683   0.301  0.00  0.00    +0.370 C 
ATOM     24  O   UNL     1      -1.932  -4.260  -0.758  0.00  0.00    -0.245 OA
ATOM     25  O   UNL     1      -2.720  -3.985   1.288  0.00  0.00    -0.245 OA
ENDBRANCH  16  23
TORSDOF 1
