REMARK  Name = ZINC06193650
REMARK  10 active torsions:
REMARK  status: ('A' for Active; 'I' for Inactive)
REMARK    1  A    between atoms: C_1  and  C_2
REMARK    2  A    between atoms: C_2  and  N_66
REMARK    3  A    between atoms: C_3  and  C_4
REMARK    4  A    between atoms: C_3  and  N_66
REMARK    5  A    between atoms: C_10  and  C_12
REMARK    6  A    between atoms: C_10  and  C_26
REMARK    7  A    between atoms: C_10  and  N_66
REMARK    8  A    between atoms: C_17  and  C_25
REMARK    9  A    between atoms: C_18  and  C_24
REMARK   10  A    between atoms: N_30  and  C_31
REMARK                            x       y       z     vdW  Elec       q    Type
REMARK                         _______ _______ _______ _____ _____    ______ ____
ROOT
ATOM      1  C   UNL     1       4.618  -1.499  -2.475  0.00  0.00    +0.039 C 
ENDROOT
BRANCH   1   2
ATOM      2  C   UNL     1       4.300  -1.234  -3.924  0.00  0.00    +0.011 A 
ATOM      3  C   UNL     1       4.003  -2.267  -4.751  0.00  0.00    +0.017 A 
ATOM      4  C   UNL     1       3.699  -1.976  -6.153  0.00  0.00    -0.001 A 
ATOM      5  C   UNL     1       3.386  -3.000  -7.053  0.00  0.00    +0.010 A 
ATOM      6  C   UNL     1       3.106  -2.695  -8.355  0.00  0.00    +0.004 A 
ATOM      7  C   UNL     1       3.130  -1.378  -8.793  0.00  0.00    -0.046 A 
ATOM      8  C   UNL     1       3.436  -0.353  -7.923  0.00  0.00    -0.024 A 
ATOM      9  C   UNL     1       3.724  -0.639  -6.593  0.00  0.00    +0.052 A 
ATOM     10  N   UNL     1       4.032   0.366  -5.702  0.00  0.00    -0.322 N 
ATOM     11  H   UNL     1       4.053   1.315  -6.017  0.00  0.00    +0.169 HD
ATOM     12  C   UNL     1       4.305   0.089  -4.414  0.00  0.00    +0.251 A 
ATOM     13  O   UNL     1       4.569   1.004  -3.653  0.00  0.00    -0.268 OA
ATOM     14  C   UNL     1       3.459   1.072  -8.413  0.00  0.00    +0.046 C 
ATOM     15  C   UNL     1       2.818  -1.065 -10.233  0.00  0.00    +0.044 C 
ENDBRANCH   1   2
BRANCH   1  16
ATOM     16  C   UNL     1       6.025  -1.050  -2.179  0.00  0.00    +0.143 A 
ATOM     17  N   UNL     1       6.426   0.179  -1.964  0.00  0.00    -0.115 NA
ATOM     18  N   UNL     1       7.695   0.152  -1.746  0.00  0.00    -0.023 NA
ATOM     19  N   UNL     1       8.117  -1.062  -1.826  0.00  0.00    -0.044 NA
ATOM     20  N   UNL     1       7.117  -1.833  -2.091  0.00  0.00    -0.227 N 
BRANCH  20  21
ATOM     21  C   UNL     1       7.161  -3.287  -2.265  0.00  0.00    +0.111 C 
ATOM     22  C   UNL     1       7.732  -3.953  -0.997  0.00  0.00    +0.027 C 
ATOM     23  C   UNL     1       8.587  -5.127  -1.537  0.00  0.00    +0.002 C 
ATOM     24  C   UNL     1       9.227  -4.526  -2.813  0.00  0.00    +0.002 C 
ATOM     25  C   UNL     1       8.111  -3.651  -3.420  0.00  0.00    +0.027 C 
ENDBRANCH  20  21
ENDBRANCH   1  16
BRANCH   1  26
ATOM     26  N   UNL     1       3.685  -0.730  -1.625  0.00  0.00    +0.392 N 
ATOM     27  H   UNL     1       3.940   0.264  -1.665  0.00  0.00    -0.080 HD
BRANCH  26  29
ATOM     28  C   UNL     1       5.082  -0.668   0.381  0.00  0.00    -0.017 C 
ATOM     29  C   UNL     1       3.779  -1.193  -0.224  0.00  0.00    -0.080 C 
ENDBRANCH  26  29
BRANCH  26  30
ATOM     30  C   UNL     1       2.301  -0.890  -2.119  0.00  0.00    -0.042 C 
BRANCH  30  31
ATOM     31  C   UNL     1       1.406   0.070  -1.379  0.00  0.00    -0.064 A 
ATOM     32  C   UNL     1       1.212   1.349  -1.866  0.00  0.00    +0.002 A 
ATOM     33  C   UNL     1       0.391   2.230  -1.188  0.00  0.00    +0.000 A 
ATOM     34  C   UNL     1      -0.235   1.832  -0.022  0.00  0.00    +0.000 A 
ATOM     35  C   UNL     1      -0.042   0.553   0.466  0.00  0.00    +0.000 A 
ATOM     36  C   UNL     1       0.779  -0.328  -0.213  0.00  0.00    +0.002 A 
ENDBRANCH  30  31
ENDBRANCH  26  30
ENDBRANCH   1  26
TORSDOF 7
