REMARK  Name = ZINC63705055
REMARK  5 active torsions:
REMARK  status: ('A' for Active; 'I' for Inactive)
REMARK    1  A    between atoms: C_7  and  C_10
REMARK    2  A    between atoms: C_10  and  C_11
REMARK    3  A    between atoms: C_11  and  N_12
REMARK    4  A    between atoms: C_13  and  C_15
REMARK    5  A    between atoms: C_19  and  N_21
REMARK                            x       y       z     vdW  Elec       q    Type
REMARK                         _______ _______ _______ _____ _____    ______ ____
ROOT
ATOM      1  C   UNL     1      -1.127  -6.759  -2.918  0.00  0.00    +0.039 A 
ATOM      2  C   UNL     1      -1.626  -7.053  -1.647  0.00  0.00    +0.014 A 
ATOM      3  C   UNL     1      -2.681  -7.932  -1.502  0.00  0.00    +0.023 A 
ATOM      4  C   UNL     1      -3.250  -8.527  -2.612  0.00  0.00    +0.066 A 
ATOM      5  C   UNL     1      -2.760  -8.242  -3.890  0.00  0.00    +0.085 A 
ATOM      6  C   UNL     1      -1.700  -7.351  -4.043  0.00  0.00    +0.042 A 
ATOM      7 CL   UNL     1      -4.576  -9.631  -2.419  0.00  0.00    -0.081 Cl
ENDROOT
BRANCH   5   8
ATOM      8  N   UNL     1      -3.325  -8.832  -4.990  0.00  0.00    -0.225 NA
ATOM      9  C   UNL     1      -3.670  -8.100  -6.025  0.00  0.00    +0.155 C 
ATOM     10  N   UNL     1      -3.633  -6.695  -6.148  0.00  0.00    -0.318 N 
ATOM     11  C   UNL     1      -3.335  -6.324  -7.501  0.00  0.00    +0.108 C 
ATOM     12  C   UNL     1      -3.238  -4.891  -8.003  0.00  0.00    +0.189 C 
ATOM     13  S   UNL     1      -3.068  -5.269  -9.813  0.00  0.00    -0.028 S 
ATOM     14  O   UNL     1      -1.689  -5.391 -10.134  0.00  0.00    -0.174 OA
ATOM     15  O   UNL     1      -3.882  -4.370 -10.553  0.00  0.00    -0.174 OA
ATOM     16  C   UNL     1      -3.844  -6.949  -9.837  0.00  0.00    +0.182 C 
ATOM     17  C   UNL     1      -4.423  -7.010  -8.412  0.00  0.00    +0.097 C 
ATOM     18  S   UNL     1      -4.291  -8.654  -7.618  0.00  0.00    -0.084 S 
ATOM     19  H   UNL     1      -3.788  -6.070  -5.422  0.00  0.00    +0.148 HD
ENDBRANCH   5   8
BRANCH   1  21
ATOM     20  N   UNL     1       0.554  -5.245  -1.983  0.00  0.00    -0.311 N 
ATOM     21  C   UNL     1       0.001  -5.817  -3.071  0.00  0.00    +0.244 C 
ATOM     22  O   UNL     1       0.431  -5.558  -4.178  0.00  0.00    -0.270 OA
ATOM     23  H   UNL     1       0.211  -5.452  -1.099  0.00  0.00    +0.149 HD
BRANCH  20  24
ATOM     24  C   UNL     1       1.673  -4.312  -2.134  0.00  0.00    +0.109 C 
BRANCH  24  25
ATOM     25  C   UNL     1       2.109  -3.811  -0.756  0.00  0.00    +0.052 C 
BRANCH  25  32
ATOM     26  C   UNL     1       2.313   0.765  -1.028  0.00  0.00    +0.001 A 
ATOM     27  C   UNL     1       3.616   1.262  -1.173  0.00  0.00    +0.002 A 
ATOM     28  C   UNL     1       4.700   0.460  -1.224  0.00  0.00    +0.026 A 
ATOM     29  C   UNL     1       4.556  -0.952  -1.133  0.00  0.00    +0.043 A 
ATOM     30  N   UNL     1       5.436  -1.923  -1.158  0.00  0.00    -0.380 N 
ATOM     31  C   UNL     1       4.727  -3.200  -1.023  0.00  0.00    +0.144 C 
ATOM     32  C   UNL     1       3.260  -2.851  -0.911  0.00  0.00    -0.040 C 
ATOM     33  C   UNL     1       3.190  -1.502  -0.980  0.00  0.00    -0.001 A 
ATOM     34  C   UNL     1       2.064  -0.561  -0.932  0.00  0.00    +0.010 A 
ATOM     35  H   UNL     1       6.396  -1.815  -1.250  0.00  0.00    +0.160 HD
ENDBRANCH  25  32
ENDBRANCH  24  25
ENDBRANCH  20  24
ENDBRANCH   1  21
TORSDOF 5
