REMARK  Name = ZINC16652720
REMARK  15 active torsions:
REMARK  status: ('A' for Active; 'I' for Inactive)
REMARK    1  A    between atoms: C_1  and  C_2
REMARK    2  A    between atoms: C_2  and  C_3
REMARK    3  A    between atoms: C_2  and  C_4
REMARK    4  A    between atoms: C_4  and  N_5
REMARK    5  A    between atoms: N_5  and  C_6
REMARK    6  A    between atoms: C_6  and  C_7
REMARK    7  A    between atoms: N_9  and  C_10
REMARK    8  A    between atoms: N_9  and  C_20
REMARK    9  A    between atoms: C_10  and  C_11
REMARK   10  A    between atoms: C_20  and  C_21
REMARK   11  A    between atoms: C_26  and  C_28
REMARK   12  A    between atoms: C_31  and  C_34
REMARK   13  A    between atoms: C_34  and  C_35
REMARK   14  A    between atoms: C_34  and  C_36
REMARK   15  A    between atoms: C_34  and  C_37
REMARK                            x       y       z     vdW  Elec       q    Type
REMARK                         _______ _______ _______ _____ _____    ______ ____
ROOT
ATOM      1  C   UNL     1       1.210   1.931   0.288  0.00  0.00    +0.234 C 
ATOM      2  O   UNL     1       2.192   1.296   0.612  0.00  0.00    -0.274 OA
ATOM      3  N   UNL     1       0.007   1.327   0.224  0.00  0.00    -0.289 N 
ENDROOT
BRANCH   1   4
ATOM      4  C   UNL     1       1.337   3.396  -0.042  0.00  0.00    +0.204 C 
BRANCH   4   5
ATOM      5  N   UNL     1       2.734   3.811   0.102  0.00  0.00    -0.288 N 
ATOM      6  C   UNL     1       3.183   4.270   1.287  0.00  0.00    +0.247 C 
ATOM      7  O   UNL     1       2.447   4.274   2.255  0.00  0.00    -0.270 OA
BRANCH   6   8
ATOM      8  C   UNL     1       4.569   4.770   1.410  0.00  0.00    +0.037 A 
ATOM      9  C   UNL     1       5.240   5.255   0.287  0.00  0.00    +0.013 A 
ATOM     10  C   UNL     1       6.532   5.724   0.409  0.00  0.00    +0.005 A 
ATOM     11  C   UNL     1       7.165   5.705   1.639  0.00  0.00    -0.042 A 
ATOM     12  C   UNL     1       6.506   5.221   2.755  0.00  0.00    +0.005 A 
ATOM     13  C   UNL     1       5.213   4.753   2.648  0.00  0.00    +0.013 A 
BRANCH  11  14
ATOM     14  C   UNL     1       8.578   6.214   1.764  0.00  0.00    -0.013 C 
ATOM     15  C   UNL     1       9.482   5.089   2.271  0.00  0.00    +0.015 C 
ATOM     16  C   UNL     1       9.072   6.689   0.396  0.00  0.00    +0.015 C 
ATOM     17  C   UNL     1       8.614   7.381   2.753  0.00  0.00    +0.015 C 
ENDBRANCH  11  14
ENDBRANCH   6   8
BRANCH   5  18
ATOM     18  C   UNL     1       3.645   3.726  -1.043  0.00  0.00    +0.111 C 
BRANCH  18  20
ATOM     19  C   UNL     1       4.472   4.916  -3.078  0.00  0.00    +0.009 C 
ATOM     20  C   UNL     1       3.438   4.940  -1.950  0.00  0.00    +0.000 C 
ATOM     21  C   UNL     1       2.030   4.895  -2.549  0.00  0.00    +0.009 C 
ENDBRANCH  18  20
ENDBRANCH   5  18
ENDBRANCH   4   5
ENDBRANCH   1   4
BRANCH   3  22
ATOM     22  C   UNL     1      -0.115  -0.097   0.545  0.00  0.00    +0.143 C 
BRANCH  22  23
ATOM     23  C   UNL     1      -0.394  -0.258   2.017  0.00  0.00    -0.026 A 
ATOM     24  C   UNL     1       0.655  -0.390   2.908  0.00  0.00    +0.009 A 
ATOM     25  C   UNL     1       0.404  -0.532   4.260  0.00  0.00    +0.050 A 
ATOM     26  C   UNL     1      -0.901  -0.555   4.724  0.00  0.00    +0.166 A 
ATOM     27  C   UNL     1      -1.958  -0.428   3.826  0.00  0.00    +0.167 A 
ATOM     28  C   UNL     1      -1.699  -0.280   2.473  0.00  0.00    +0.054 A 
ATOM     29  O   UNL     1      -3.131  -0.481   4.523  0.00  0.00    -0.453 OA
ATOM     30  C   UNL     1      -2.793  -1.050   5.802  0.00  0.00    +0.466 C 
ATOM     31  O   UNL     1      -1.411  -0.688   5.983  0.00  0.00    -0.453 OA
ENDBRANCH  22  23
ENDBRANCH   3  22
BRANCH   3  32
ATOM     32  C   UNL     1      -1.177   2.093  -0.172  0.00  0.00    +0.182 C 
BRANCH  32  33
ATOM     33  C   UNL     1      -1.827   2.683   1.052  0.00  0.00    +0.122 A 
ATOM     34  C   UNL     1      -1.551   3.887   1.586  0.00  0.00    +0.046 A 
ATOM     35  C   UNL     1      -2.386   4.034   2.718  0.00  0.00    +0.041 A 
ATOM     36  C   UNL     1      -3.122   2.911   2.807  0.00  0.00    +0.195 A 
ATOM     37  O   UNL     1      -2.783   2.099   1.793  0.00  0.00    -0.466 OA
ENDBRANCH  32  33
ENDBRANCH   3  32
TORSDOF 10
