REMARK  Name = ZINC01467662
REMARK  10 active torsions:
REMARK  status: ('A' for Active; 'I' for Inactive)
REMARK    1  A    between atoms: C_1  and  C_2
REMARK    2  A    between atoms: C_2  and  O_3
REMARK    3  A    between atoms: O_3  and  C_4
REMARK    4  A    between atoms: C_4  and  C_6
REMARK    5  A    between atoms: C_7  and  C_35
REMARK    6  A    between atoms: N_11  and  C_12
REMARK    7  A    between atoms: C_12  and  C_14
REMARK    8  A    between atoms: C_15  and  C_16
REMARK    9  A    between atoms: N_18  and  C_28
REMARK   10  A    between atoms: C_20  and  C_21
REMARK                            x       y       z     vdW  Elec       q    Type
REMARK                         _______ _______ _______ _____ _____    ______ ____
ROOT
ATOM      1  C   UNL     1       5.494  -0.537  -9.671  0.00  0.00    +0.021 A 
ATOM      2  C   UNL     1       5.895  -1.651 -10.383  0.00  0.00    +0.123 A 
ATOM      3  N   UNL     1       6.524  -1.226 -11.494  0.00  0.00    -0.239 N 
ATOM      4  N   UNL     1       6.541   0.172 -11.519  0.00  0.00    -0.166 NA
ATOM      5  C   UNL     1       5.930   0.629 -10.449  0.00  0.00    +0.100 A 
ENDROOT
BRANCH   5   6
ATOM      6  C   UNL     1       5.723   2.053 -10.094  0.00  0.00    +0.003 A 
ATOM      7  C   UNL     1       4.559   2.447  -9.435  0.00  0.00    +0.013 A 
ATOM      8  C   UNL     1       4.371   3.773  -9.106  0.00  0.00    +0.039 A 
ATOM      9  C   UNL     1       5.336   4.713  -9.430  0.00  0.00    +0.123 A 
ATOM     10  C   UNL     1       6.494   4.327 -10.085  0.00  0.00    +0.039 A 
ATOM     11  C   UNL     1       6.694   3.001 -10.412  0.00  0.00    +0.013 A 
ATOM     12  F   UNL     1       5.147   6.011  -9.106  0.00  0.00    -0.205 F 
ENDBRANCH   5   6
BRANCH   3  13
ATOM     13  C   UNL     1       7.079  -2.057 -12.476  0.00  0.00    +0.065 A 
ATOM     14  C   UNL     1       6.997  -3.437 -12.346  0.00  0.00    +0.028 A 
ATOM     15  C   UNL     1       7.545  -4.255 -13.315  0.00  0.00    +0.002 A 
ATOM     16  C   UNL     1       8.174  -3.700 -14.414  0.00  0.00    +0.000 A 
ATOM     17  C   UNL     1       8.258  -2.325 -14.546  0.00  0.00    +0.002 A 
ATOM     18  C   UNL     1       7.706  -1.503 -13.584  0.00  0.00    +0.028 A 
ENDBRANCH   3  13
BRANCH   1  20
ATOM     19  C   UNL     1       4.436  -1.683  -7.794  0.00  0.00    +0.070 C 
ATOM     20  C   UNL     1       4.771  -0.521  -8.393  0.00  0.00    +0.017 C 
BRANCH  19  21
ATOM     21  C   UNL     1       3.714  -1.667  -6.518  0.00  0.00    +0.262 C 
ATOM     22  O   UNL     1       3.415  -0.604  -5.999  0.00  0.00    -0.269 OA
BRANCH  21  28
ATOM     23  C   UNL     1       1.449  -2.344  -2.517  0.00  0.00    +0.118 A 
ATOM     24  C   UNL     1       1.653  -3.643  -2.866  0.00  0.00    +0.036 A 
ATOM     25  N   UNL     1       2.308  -3.870  -4.018  0.00  0.00    -0.339 N 
ATOM     26  H   UNL     1       2.480  -4.778  -4.315  0.00  0.00    +0.167 HD
ATOM     27  C   UNL     1       2.727  -2.808  -4.767  0.00  0.00    +0.164 A 
ATOM     28  N   UNL     1       3.382  -2.821  -5.923  0.00  0.00    -0.153 NA
ATOM     29  S   UNL     1       2.208  -1.478  -3.878  0.00  0.00    -0.046 S 
ATOM     30  C   UNL     1       1.168  -4.777  -1.999  0.00  0.00    +0.065 C 
BRANCH  23  31
ATOM     31  C   UNL     1       0.776  -1.800  -1.335  0.00  0.00    +0.348 C 
ATOM     32  O   UNL     1       0.312  -2.552  -0.499  0.00  0.00    -0.244 OA
BRANCH  31  33
ATOM     33  O   UNL     1       0.671  -0.465  -1.174  0.00  0.00    -0.461 OA
BRANCH  33  35
ATOM     34  C   UNL     1      -0.019   1.526   0.010  0.00  0.00    +0.048 C 
ATOM     35  C   UNL     1       0.002  -0.004   0.002  0.00  0.00    +0.229 C 
ENDBRANCH  33  35
ENDBRANCH  31  33
ENDBRANCH  23  31
ENDBRANCH  21  28
ENDBRANCH  19  21
ENDBRANCH   1  20
TORSDOF 8
