REMARK  Name = ZINC59270901
REMARK  9 active torsions:
REMARK  status: ('A' for Active; 'I' for Inactive)
REMARK    1  A    between atoms: C_1  and  C_2
REMARK    2  A    between atoms: C_5  and  C_8
REMARK    3  A    between atoms: C_8  and  N_9
REMARK    4  A    between atoms: C_10  and  C_29
REMARK    5  A    between atoms: C_11  and  C_15
REMARK    6  A    between atoms: C_12  and  C_14
REMARK    7  A    between atoms: C_16  and  C_17
REMARK    8  A    between atoms: C_16  and  C_19
REMARK    9  A    between atoms: N_21  and  C_22
REMARK                            x       y       z     vdW  Elec       q    Type
REMARK                         _______ _______ _______ _____ _____    ______ ____
ROOT
ATOM      1  N   UNL     1       1.439  -4.711  -0.066  0.00  0.00    -0.263 N 
ATOM      2  C   UNL     1       2.181  -4.959  -1.157  0.00  0.00    +0.044 A 
ATOM      3  C   UNL     1       3.425  -5.389  -0.721  0.00  0.00    +0.020 A 
ATOM      4  C   UNL     1       3.392  -5.387   0.695  0.00  0.00    +0.067 A 
ATOM      5  N   UNL     1       2.212  -4.978   1.069  0.00  0.00    -0.175 NA
ATOM      6  C   UNL     1       4.523  -5.782   1.609  0.00  0.00    +0.068 C 
ATOM      7  C   UNL     1       1.742  -4.800  -2.590  0.00  0.00    +0.066 C 
ENDROOT
BRANCH   3   8
ATOM      8  C   UNL     1       4.558  -5.774  -1.565  0.00  0.00    +0.035 C 
ATOM      9  C   UNL     1       5.806  -5.237  -1.329  0.00  0.00    +0.114 C 
BRANCH   9  10
ATOM     10  C   UNL     1       6.944  -5.622  -2.177  0.00  0.00    +0.259 C 
ATOM     11  O   UNL     1       6.784  -6.416  -3.085  0.00  0.00    -0.269 OA
ATOM     12  N   UNL     1       8.164  -5.098  -1.947  0.00  0.00    -0.280 N 
ATOM     13  H   UNL     1       8.278  -4.417  -1.265  0.00  0.00    +0.155 HD
BRANCH  12  14
ATOM     14  C   UNL     1       9.264  -5.535  -2.691  0.00  0.00    +0.048 A 
ATOM     15  C   UNL     1       9.107  -5.888  -4.025  0.00  0.00    +0.024 A 
ATOM     16  C   UNL     1      10.196  -6.319  -4.757  0.00  0.00    +0.002 A 
ATOM     17  C   UNL     1      11.443  -6.399  -4.163  0.00  0.00    +0.001 A 
ATOM     18  C   UNL     1      11.604  -6.048  -2.835  0.00  0.00    +0.017 A 
ATOM     19  C   UNL     1      10.519  -5.611  -2.099  0.00  0.00    +0.039 A 
ATOM     20 BR   UNL     1      10.741  -5.125  -0.285  0.00  0.00    -0.048 Br
ENDBRANCH  12  14
ENDBRANCH   9  10
BRANCH   9  21
ATOM     21  C   UNL     1       5.994  -4.303  -0.260  0.00  0.00    +0.104 C 
ATOM     22  N   UNL     1       6.143  -3.562   0.589  0.00  0.00    -0.191 NA
ENDBRANCH   9  21
ENDBRANCH   3   8
BRANCH   1  23
ATOM     23  C   UNL     1       0.054  -4.235  -0.064  0.00  0.00    +0.178 C 
BRANCH  23  28
ATOM     24  C   UNL     1      -0.001   1.543  -0.056  0.00  0.00    +0.044 C 
ATOM     25  C   UNL     1       0.013   0.036  -0.058  0.00  0.00    -0.050 A 
ATOM     26  C   UNL     1       0.020  -0.653  -1.256  0.00  0.00    +0.004 A 
ATOM     27  C   UNL     1       0.033  -2.035  -1.258  0.00  0.00    +0.006 A 
ATOM     28  C   UNL     1       0.040  -2.728  -0.062  0.00  0.00    -0.026 A 
ATOM     29  C   UNL     1       0.034  -2.039   1.136  0.00  0.00    +0.006 A 
ATOM     30  C   UNL     1       0.025  -0.656   1.138  0.00  0.00    +0.004 A 
ENDBRANCH  23  28
ENDBRANCH   1  23
TORSDOF 6
