REMARK  Name = ZINC31046546
REMARK  8 active torsions:
REMARK  status: ('A' for Active; 'I' for Inactive)
REMARK    1  A    between atoms: C_1  and  C_2
REMARK    2  A    between atoms: C_5  and  C_8
REMARK    3  A    between atoms: C_8  and  C_10
REMARK    4  A    between atoms: C_8  and  N_11
REMARK    5  A    between atoms: C_12  and  C_14
REMARK    6  A    between atoms: N_19  and  C_21
REMARK    7  A    between atoms: C_21  and  C_22
REMARK    8  A    between atoms: C_24  and  C_27
REMARK                            x       y       z     vdW  Elec       q    Type
REMARK                         _______ _______ _______ _____ _____    ______ ____
ROOT
ATOM      1  C   UNL     1       9.739  -0.988   2.773  0.00  0.00    +0.058 C 
ATOM      2  C   UNL     1       9.082  -2.043   3.668  0.00  0.00    +0.009 C 
ATOM      3  C   UNL     1       7.560  -1.900   3.579  0.00  0.00    -0.018 C 
ATOM      4  C   UNL     1       7.122  -2.046   2.120  0.00  0.00    -0.078 C 
ATOM      5  N   UNL     1       7.777  -1.014   1.306  0.00  0.00    +0.386 N 
ATOM      6  C   UNL     1       9.238  -1.161   1.337  0.00  0.00    -0.065 C 
ATOM      7  H   UNL     1       7.529  -0.035   1.742  0.00  0.00    -0.081 HD
ENDROOT
BRANCH   1   9
ATOM      8  N   UNL     1      11.899  -1.050   3.977  0.00  0.00    -0.309 N 
ATOM      9  C   UNL     1      11.235  -1.160   2.808  0.00  0.00    +0.215 C 
ATOM     10  O   UNL     1      11.843  -1.397   1.786  0.00  0.00    -0.276 OA
ATOM     11  H   UNL     1      11.348  -0.835   4.904  0.00  0.00    +0.149 HD
BRANCH   8  12
ATOM     12  C   UNL     1      13.354  -1.217   4.011  0.00  0.00    +0.100 C 
ATOM     13  C   UNL     1      13.694  -2.705   4.126  0.00  0.00    +0.033 C 
BRANCH  12  18
ATOM     14  C   UNL     1      15.510   1.612   8.565  0.00  0.00    +0.044 C 
ATOM     15  C   UNL     1      14.948   0.874   7.377  0.00  0.00    -0.050 A 
ATOM     16  C   UNL     1      15.618   0.897   6.169  0.00  0.00    +0.004 A 
ATOM     17  C   UNL     1      15.102   0.221   5.079  0.00  0.00    +0.006 A 
ATOM     18  C   UNL     1      13.916  -0.480   5.199  0.00  0.00    -0.027 A 
ATOM     19  C   UNL     1      13.244  -0.499   6.406  0.00  0.00    +0.006 A 
ATOM     20  C   UNL     1      13.761   0.174   7.497  0.00  0.00    +0.004 A 
ENDBRANCH  12  18
ENDBRANCH   8  12
ENDBRANCH   1   9
BRANCH   5  21
ATOM     21  C   UNL     1       7.276  -1.036  -0.075  0.00  0.00    +0.022 C 
BRANCH  21  22
ATOM     22  C   UNL     1       5.772  -1.131  -0.062  0.00  0.00    +0.211 A 
ATOM     23  N   UNL     1       4.929  -0.129  -0.053  0.00  0.00    -0.193 NA
ATOM     24  C   UNL     1       3.699  -0.689  -0.038  0.00  0.00    +0.202 A 
ATOM     25  N   UNL     1       3.865  -1.986  -0.049  0.00  0.00    -0.056 NA
ATOM     26  O   UNL     1       5.047  -2.255  -0.062  0.00  0.00    -0.340 OA
BRANCH  24  27
ATOM     27  C   UNL     1       2.402   0.033  -0.021  0.00  0.00    +0.023 A 
ATOM     28  C   UNL     1       1.205  -0.680  -0.014  0.00  0.00    +0.013 A 
ATOM     29  C   UNL     1       0.002  -0.004   0.002  0.00  0.00    +0.021 A 
ATOM     30  C   UNL     1      -0.017   1.380   0.010  0.00  0.00    +0.041 A 
ATOM     31  C   UNL     1       1.170   2.093   0.002  0.00  0.00    +0.021 A 
ATOM     32  C   UNL     1       2.378   1.426  -0.013  0.00  0.00    +0.013 A 
ATOM     33 CL   UNL     1      -1.533   2.225   0.021  0.00  0.00    -0.084 Cl
ENDBRANCH  24  27
ENDBRANCH  21  22
ENDBRANCH   5  21
TORSDOF 6
