REMARK  Name = ZINC27333833
REMARK  10 active torsions:
REMARK  status: ('A' for Active; 'I' for Inactive)
REMARK    1  A    between atoms: C_2  and  C_3
REMARK    2  A    between atoms: C_3  and  N_4
REMARK    3  A    between atoms: N_4  and  C_5
REMARK    4  A    between atoms: N_4  and  S_11
REMARK    5  A    between atoms: S_11  and  C_14
REMARK    6  A    between atoms: C_18  and  C_20
REMARK    7  A    between atoms: N_22  and  C_23
REMARK    8  A    between atoms: C_23  and  C_24
REMARK    9  A    between atoms: C_24  and  C_26
REMARK   10  A    between atoms: C_24  and  N_31
REMARK                            x       y       z     vdW  Elec       q    Type
REMARK                         _______ _______ _______ _____ _____    ______ ____
ROOT
ATOM      1  C   UNL     1       0.547  -1.035   1.857  0.00  0.00    +0.109 A 
ATOM      2  C   UNL     1      -0.555  -1.106   2.691  0.00  0.00    +0.029 A 
ATOM      3  C   UNL     1      -0.390  -1.169   4.063  0.00  0.00    +0.003 A 
ATOM      4  C   UNL     1       0.877  -1.159   4.609  0.00  0.00    +0.013 A 
ATOM      5  C   UNL     1       1.994  -1.087   3.774  0.00  0.00    +0.039 A 
ATOM      6  C   UNL     1       1.820  -1.030   2.390  0.00  0.00    +0.041 A 
ENDROOT
BRANCH   5   7
ATOM      7  C   UNL     1       3.354  -1.077   4.353  0.00  0.00    +0.244 C 
ATOM      8  O   UNL     1       4.324  -1.014   3.623  0.00  0.00    -0.270 OA
ATOM      9  N   UNL     1       3.519  -1.138   5.689  0.00  0.00    -0.312 N 
ATOM     10  H   UNL     1       2.641  -1.196   6.349  0.00  0.00    +0.149 HD
BRANCH   9  11
ATOM     11  C   UNL     1       4.867  -1.129   6.262  0.00  0.00    +0.097 C 
BRANCH  11  12
ATOM     12  C   UNL     1       4.773  -1.207   7.787  0.00  0.00    +0.016 C 
BRANCH  12  13
ATOM     13  N   UNL     1       3.982  -2.384   8.170  0.00  0.00    +0.387 N 
ATOM     14  C   UNL     1       4.505  -3.611   7.516  0.00  0.00    -0.078 C 
ATOM     15  C   UNL     1       3.941  -4.752   8.400  0.00  0.00    -0.020 C 
ATOM     16  C   UNL     1       4.029  -4.160   9.825  0.00  0.00    -0.020 C 
ATOM     17  C   UNL     1       4.073  -2.634   9.625  0.00  0.00    -0.078 C 
ATOM     18  H   UNL     1       2.950  -2.164   7.862  0.00  0.00    -0.081 HD
ENDBRANCH  12  13
BRANCH  12  19
ATOM     19  C   UNL     1       6.158  -1.321   8.371  0.00  0.00    +0.093 A 
ATOM     20  C   UNL     1       6.821  -0.346   9.019  0.00  0.00    +0.043 A 
ATOM     21  C   UNL     1       8.074  -0.883   9.394  0.00  0.00    +0.041 A 
ATOM     22  C   UNL     1       8.105  -2.151   8.945  0.00  0.00    +0.195 A 
ATOM     23  O   UNL     1       6.942  -2.410   8.326  0.00  0.00    -0.469 OA
ENDBRANCH  12  19
ENDBRANCH  11  12
ENDBRANCH   9  11
ENDBRANCH   5   7
BRANCH   1  24
ATOM     24  S   UNL     1       0.326  -0.957   0.111  0.00  0.00    +0.075 S 
ATOM     25  O   UNL     1      -0.945  -1.532  -0.163  0.00  0.00    -0.150 OA
ATOM     26  O   UNL     1       1.525  -1.446  -0.473  0.00  0.00    -0.150 OA
BRANCH  24  27
ATOM     27  N   UNL     1       0.219   0.644  -0.298  0.00  0.00    -0.199 N 
BRANCH  27  28
ATOM     28  C   UNL     1      -1.034   1.247  -0.439  0.00  0.00    +0.052 A 
ATOM     29  C   UNL     1      -1.378   2.331   0.359  0.00  0.00    +0.025 A 
ATOM     30  C   UNL     1      -2.615   2.927   0.214  0.00  0.00    +0.002 A 
ATOM     31  C   UNL     1      -3.514   2.440  -0.716  0.00  0.00    +0.000 A 
ATOM     32  C   UNL     1      -3.177   1.358  -1.509  0.00  0.00    +0.002 A 
ATOM     33  C   UNL     1      -1.939   0.760  -1.373  0.00  0.00    +0.025 A 
ENDBRANCH  27  28
BRANCH  27  34
ATOM     34  C   UNL     1       1.437   1.427  -0.518  0.00  0.00    +0.158 C 
BRANCH  34  36
ATOM     35  C   UNL     1       1.918   2.585  -2.613  0.00  0.00    +0.005 C 
ATOM     36  C   UNL     1       1.764   1.444  -1.989  0.00  0.00    -0.014 C 
ENDBRANCH  34  36
ENDBRANCH  27  34
ENDBRANCH  24  27
ENDBRANCH   1  24
TORSDOF 10
