REMARK  Name = ZINC34793357
REMARK  8 active torsions:
REMARK  status: ('A' for Active; 'I' for Inactive)
REMARK    1  A    between atoms: C_1  and  C_2
REMARK    2  A    between atoms: C_2  and  N_3
REMARK    3  A    between atoms: C_6  and  C_11
REMARK    4  A    between atoms: N_21  and  C_23
REMARK    5  A    between atoms: C_23  and  C_24
REMARK    6  A    between atoms: N_26  and  C_27
REMARK    7  A    between atoms: C_27  and  C_28
REMARK    8  A    between atoms: C_28  and  C_29
REMARK                            x       y       z     vdW  Elec       q    Type
REMARK                         _______ _______ _______ _____ _____    ______ ____
ROOT
ATOM      1  N   UNL     1      -1.385  -0.530   0.323  0.00  0.00    -0.257 N 
ATOM      2  C   UNL     1      -2.072  -0.890   1.448  0.00  0.00    +0.042 C 
ATOM      3  C   UNL     1      -3.335  -1.357   1.376  0.00  0.00    +0.058 C 
ATOM      4  C   UNL     1      -3.968  -1.468   0.004  0.00  0.00    +0.143 C 
ATOM      5  N   UNL     1      -3.145  -1.054  -1.146  0.00  0.00    -0.288 N 
ATOM      6  C   UNL     1      -1.897  -0.603  -0.912  0.00  0.00    +0.307 C 
ATOM      7  O   UNL     1      -1.212  -0.255  -1.854  0.00  0.00    -0.252 OA
ATOM      8  C   UNL     1      -3.820  -1.657   2.665  0.00  0.00    +0.247 C 
ATOM      9  O   UNL     1      -4.932  -2.096   2.896  0.00  0.00    -0.270 OA
ATOM     10  N   UNL     1      -2.895  -1.397   3.606  0.00  0.00    -0.283 N 
ATOM     11  C   UNL     1      -1.702  -0.887   2.914  0.00  0.00    +0.160 C 
ATOM     12  H   UNL     1      -3.495  -1.102  -2.049  0.00  0.00    +0.151 HD
ENDROOT
BRANCH   4  13
ATOM     13  C   UNL     1      -5.222  -0.632   0.001  0.00  0.00    -0.004 A 
ATOM     14  C   UNL     1      -5.409   0.337   0.970  0.00  0.00    +0.008 A 
ATOM     15  C   UNL     1      -6.558   1.104   0.969  0.00  0.00    +0.020 A 
ATOM     16  C   UNL     1      -7.523   0.903  -0.003  0.00  0.00    +0.042 A 
ATOM     17  C   UNL     1      -7.337  -0.066  -0.972  0.00  0.00    +0.040 A 
ATOM     18  C   UNL     1      -6.183  -0.830  -0.973  0.00  0.00    +0.048 A 
ATOM     19 CL   UNL     1      -5.946  -2.042  -2.194  0.00  0.00    -0.083 Cl
ATOM     20 CL   UNL     1      -8.967   1.866  -0.004  0.00  0.00    -0.083 Cl
ENDBRANCH   4  13
BRANCH   1  22
ATOM     21  C   UNL     1      -0.045   1.488   0.661  0.00  0.00    +0.025 C 
ATOM     22  C   UNL     1      -0.017  -0.031   0.477  0.00  0.00    +0.111 C 
ENDBRANCH   1  22
BRANCH  10  23
ATOM     23  C   UNL     1      -3.047  -1.587   5.050  0.00  0.00    +0.204 C 
BRANCH  23  24
ATOM     24  C   UNL     1      -2.602  -2.978   5.424  0.00  0.00    +0.230 C 
ATOM     25  O   UNL     1      -2.198  -3.736   4.568  0.00  0.00    -0.274 OA
ATOM     26  N   UNL     1      -2.654  -3.379   6.710  0.00  0.00    -0.314 N 
ATOM     27  H   UNL     1      -2.977  -2.773   7.394  0.00  0.00    +0.149 HD
BRANCH  26  28
ATOM     28  C   UNL     1      -2.221  -4.731   7.073  0.00  0.00    +0.109 C 
BRANCH  28  29
ATOM     29  C   UNL     1      -2.380  -4.929   8.582  0.00  0.00    +0.061 C 
BRANCH  29  30
ATOM     30  C   UNL     1      -1.935  -6.320   8.955  0.00  0.00    -0.009 A 
ATOM     31  C   UNL     1      -0.705  -6.753   9.322  0.00  0.00    +0.011 A 
ATOM     32  C   UNL     1      -0.527  -8.090   9.624  0.00  0.00    +0.008 A 
ATOM     33  C   UNL     1      -1.589  -8.928   9.546  0.00  0.00    +0.045 A 
ATOM     34  S   UNL     1      -2.895  -7.823   9.037  0.00  0.00    -0.102 S 
ENDBRANCH  29  30
ENDBRANCH  28  29
ENDBRANCH  26  28
ENDBRANCH  23  24
ENDBRANCH  10  23
TORSDOF 7
