REMARK  Name = ZINC07736305
REMARK  7 active torsions:
REMARK  status: ('A' for Active; 'I' for Inactive)
REMARK    1  A    between atoms: C_1  and  C_2
REMARK    2  A    between atoms: C_2  and  C_3
REMARK    3  A    between atoms: N_11  and  C_15
REMARK    4  A    between atoms: C_15  and  C_16
REMARK    5  A    between atoms: N_18  and  N_19
REMARK    6  A    between atoms: N_19  and  C_20
REMARK    7  A    between atoms: N_19  and  C_26
REMARK                            x       y       z     vdW  Elec       q    Type
REMARK                         _______ _______ _______ _____ _____    ______ ____
ROOT
ATOM      1  C   UNL     1      -1.639   2.878   0.922  0.00  0.00    +0.247 C 
ATOM      2  O   UNL     1      -1.077   2.811   1.994  0.00  0.00    -0.273 OA
ATOM      3  N   UNL     1      -1.162   2.188  -0.133  0.00  0.00    -0.228 N 
ATOM      4  H   UNL     1      -1.611   2.241  -0.991  0.00  0.00    +0.173 HD
ENDROOT
BRANCH   1   5
ATOM      5  C   UNL     1      -2.870   3.733   0.768  0.00  0.00    +0.215 C 
BRANCH   5  14
ATOM      6  C   UNL     1      -2.196   8.434   4.529  0.00  0.00    -0.011 C 
ATOM      7  C   UNL     1      -1.316   7.183   4.515  0.00  0.00    +0.006 C 
ATOM      8  C   UNL     1      -2.173   5.955   4.835  0.00  0.00    +0.035 C 
ATOM      9  C   UNL     1      -3.286   5.826   3.802  0.00  0.00    +0.113 C 
ATOM     10  C   UNL     1      -4.159   7.077   3.790  0.00  0.00    +0.035 C 
ATOM     11  C   UNL     1      -3.295   8.300   3.473  0.00  0.00    +0.006 C 
ATOM     12  C   UNL     1      -2.704   5.577   2.429  0.00  0.00    +0.247 C 
ATOM     13  O   UNL     1      -1.963   6.305   1.803  0.00  0.00    -0.273 OA
ATOM     14  N   UNL     1      -3.182   4.375   2.048  0.00  0.00    -0.215 N 
ATOM     15  C   UNL     1      -3.981   3.843   2.981  0.00  0.00    +0.310 C 
ATOM     16  O   UNL     1      -4.535   2.768   2.864  0.00  0.00    -0.252 OA
ATOM     17  N   UNL     1      -4.099   4.633   4.066  0.00  0.00    -0.285 N 
ATOM     18  H   UNL     1      -4.622   4.450   4.862  0.00  0.00    +0.151 HD
BRANCH   6  20
ATOM     19  C   UNL     1      -2.190  10.927   4.355  0.00  0.00    +0.004 C 
ATOM     20  C   UNL     1      -1.339   9.663   4.218  0.00  0.00    -0.000 C 
ENDBRANCH   6  20
ENDBRANCH   5  14
ENDBRANCH   1   5
BRANCH   3  21
ATOM     21  N   UNL     1      -0.017   1.393   0.010  0.00  0.00    -0.220 N 
BRANCH  21  22
ATOM     22  C   UNL     1      -0.136   0.002   0.073  0.00  0.00    +0.053 A 
ATOM     23  C   UNL     1      -0.878  -0.678  -0.884  0.00  0.00    +0.025 A 
ATOM     24  C   UNL     1      -0.989  -2.053  -0.821  0.00  0.00    +0.002 A 
ATOM     25  C   UNL     1      -0.371  -2.752   0.201  0.00  0.00    +0.000 A 
ATOM     26  C   UNL     1       0.364  -2.078   1.158  0.00  0.00    +0.002 A 
ATOM     27  C   UNL     1       0.484  -0.703   1.098  0.00  0.00    +0.025 A 
ENDBRANCH  21  22
BRANCH  21  28
ATOM     28  C   UNL     1       1.244   1.990   0.083  0.00  0.00    +0.053 A 
ATOM     29  C   UNL     1       2.389   1.204   0.063  0.00  0.00    +0.025 A 
ATOM     30  C   UNL     1       3.634   1.799   0.130  0.00  0.00    +0.002 A 
ATOM     31  C   UNL     1       3.741   3.174   0.228  0.00  0.00    +0.000 A 
ATOM     32  C   UNL     1       2.603   3.959   0.253  0.00  0.00    +0.002 A 
ATOM     33  C   UNL     1       1.355   3.372   0.180  0.00  0.00    +0.025 A 
ENDBRANCH  21  28
ENDBRANCH   3  21
TORSDOF 6
