REMARK  Name = ZINC14542020
REMARK  11 active torsions:
REMARK  status: ('A' for Active; 'I' for Inactive)
REMARK    1  A    between atoms: C_1  and  C_2
REMARK    2  A    between atoms: C_6  and  C_8
REMARK    3  A    between atoms: C_8  and  N_9
REMARK    4  A    between atoms: N_9  and  C_10
REMARK    5  A    between atoms: C_12  and  C_22
REMARK    6  A    between atoms: C_14  and  S_16
REMARK    7  A    between atoms: S_16  and  N_19
REMARK    8  A    between atoms: N_19  and  C_20
REMARK    9  A    between atoms: N_19  and  C_21
REMARK   10  A    between atoms: N_24  and  C_25
REMARK   11  A    between atoms: C_25  and  C_26
REMARK                            x       y       z     vdW  Elec       q    Type
REMARK                         _______ _______ _______ _____ _____    ______ ____
ROOT
ATOM      1  C   UNL     1      -0.048   3.852   0.022  0.00  0.00    +0.030 A 
ATOM      2  C   UNL     1      -1.245   3.152   0.030  0.00  0.00    +0.036 A 
ATOM      3  C   UNL     1      -1.231   1.757   0.017  0.00  0.00    +0.040 A 
ATOM      4  C   UNL     1      -0.013   1.076   0.008  0.00  0.00    +0.041 A 
ATOM      5  C   UNL     1       1.173   1.782   0.000  0.00  0.00    +0.108 A 
ATOM      6  C   UNL     1       1.160   3.164   0.007  0.00  0.00    +0.051 A 
ENDROOT
BRANCH   3   7
ATOM      7  C   UNL     1      -2.503   1.003   0.019  0.00  0.00    +0.244 C 
ATOM      8  O   UNL     1      -2.489  -0.212   0.013  0.00  0.00    -0.270 OA
ATOM      9  N   UNL     1      -3.678   1.663   0.029  0.00  0.00    -0.311 N 
ATOM     10  H   UNL     1      -3.689   2.633   0.034  0.00  0.00    +0.149 HD
BRANCH   9  11
ATOM     11  C   UNL     1      -4.938   0.916   0.030  0.00  0.00    +0.106 C 
BRANCH  11  12
ATOM     12  C   UNL     1      -6.112   1.896   0.041  0.00  0.00    -0.008 C 
ATOM     13  C   UNL     1      -6.100   2.690   1.349  0.00  0.00    +0.002 C 
ATOM     14  C   UNL     1      -6.283   1.720   2.517  0.00  0.00    -0.018 C 
ATOM     15  C   UNL     1      -7.603   0.971   2.336  0.00  0.00    -0.078 C 
ATOM     16  C   UNL     1      -7.426   1.118  -0.083  0.00  0.00    -0.064 C 
ATOM     17  C   UNL     1      -7.377   0.305  -1.381  0.00  0.00    -0.015 C 
ATOM     18  C   UNL     1      -8.653  -0.527  -1.521  0.00  0.00    -0.003 C 
ATOM     19  C   UNL     1      -8.785  -1.438  -0.296  0.00  0.00    -0.019 C 
ATOM     20  C   UNL     1      -8.825  -0.571   0.962  0.00  0.00    -0.078 C 
ATOM     21  N   UNL     1      -7.576   0.204   1.078  0.00  0.00    +0.382 N 
ATOM     22  H   UNL     1      -6.779  -0.443   1.096  0.00  0.00    -0.081 HD
ENDBRANCH  11  12
ENDBRANCH   9  11
ENDBRANCH   3   7
BRANCH   5  23
ATOM     23  S   UNL     1       2.709   0.919  -0.018  0.00  0.00    +0.060 S 
ATOM     24  O   UNL     1       3.678   1.802   0.528  0.00  0.00    -0.153 OA
ATOM     25  O   UNL     1       2.458  -0.369   0.528  0.00  0.00    -0.153 OA
BRANCH  23  26
ATOM     26  N   UNL     1       3.121   0.687  -1.605  0.00  0.00    -0.183 NA
ATOM     27  C   UNL     1       3.925   1.690  -2.308  0.00  0.00    +0.131 C 
ATOM     28  C   UNL     1       2.682  -0.522  -2.307  0.00  0.00    +0.131 C 
ENDBRANCH  23  26
ENDBRANCH   5  23
BRANCH   1  29
ATOM     29  N   UNL     1      -0.056   5.249   0.028  0.00  0.00    -0.340 N 
ATOM     30  H   UNL     1       0.781   5.739   0.022  0.00  0.00    +0.146 HD
BRANCH  29  31
ATOM     31  C   UNL     1      -1.329   5.974   0.044  0.00  0.00    +0.137 C 
BRANCH  31  37
ATOM     32  C   UNL     1      -0.585  10.251  -2.447  0.00  0.00    +0.044 C 
ATOM     33  C   UNL     1      -0.707   9.503  -1.144  0.00  0.00    -0.050 A 
ATOM     34  C   UNL     1      -0.573  10.179   0.055  0.00  0.00    +0.003 A 
ATOM     35  C   UNL     1      -0.685   9.493   1.250  0.00  0.00    +0.001 A 
ATOM     36  C   UNL     1      -0.934   8.133   1.246  0.00  0.00    +0.005 A 
ATOM     37  C   UNL     1      -1.062   7.458   0.048  0.00  0.00    -0.030 A 
ATOM     38  C   UNL     1      -0.951   8.143  -1.148  0.00  0.00    +0.008 A 
ENDBRANCH  31  37
ENDBRANCH  29  31
ENDBRANCH   1  29
TORSDOF 8
