REMARK  Name = ZINC49501484
REMARK  3 active torsions:
REMARK  status: ('A' for Active; 'I' for Inactive)
REMARK    1  A    between atoms: C_9  and  O_11
REMARK    2  A    between atoms: O_11  and  C_12
REMARK    3  A    between atoms: C_12  and  C_14
REMARK                            x       y       z     vdW  Elec       q    Type
REMARK                         _______ _______ _______ _____ _____    ______ ____
ROOT
ATOM      1  O   UNL     1       1.212  -2.046  -0.021  0.00  0.00    -0.422 OA
ENDROOT
BRANCH   1  10
ATOM      2  C   UNL     1       1.254   1.409  -1.179  0.00  0.00    +0.006 A 
ATOM      3  C   UNL     1       1.180   2.102   0.007  0.00  0.00    +0.028 A 
ATOM      4  C   UNL     1       1.115   1.411   1.214  0.00  0.00    +0.069 A 
ATOM      5  C   UNL     1       1.125   0.004   1.214  0.00  0.00    +0.062 A 
ATOM      6  C   UNL     1       1.050  -0.408   2.566  0.00  0.00    +0.146 A 
ATOM      7  N   UNL     1       0.999   0.651   3.322  0.00  0.00    -0.181 NA
ATOM      8  N   UNL     1       1.036   1.802   2.527  0.00  0.00    -0.277 N 
ATOM      9  H   UNL     1       1.012   2.717   2.848  0.00  0.00    +0.189 HD
ATOM     10  C   UNL     1       1.201  -0.688  -0.006  0.00  0.00    +0.143 A 
ATOM     11  C   UNL     1       1.264   0.020  -1.188  0.00  0.00    +0.047 A 
ENDBRANCH   1  10
BRANCH   1  12
ATOM     12  C   UNL     1       0.034  -2.689   0.090  0.00  0.00    +0.345 C 
ATOM     13  O   UNL     1      -1.004  -2.058   0.101  0.00  0.00    -0.245 OA
BRANCH  12  14
ATOM     14  C   UNL     1       0.004  -4.162   0.198  0.00  0.00    +0.062 A 
ATOM     15  C   UNL     1       1.196  -4.890   0.190  0.00  0.00    +0.016 A 
ATOM     16  C   UNL     1       1.162  -6.264   0.292  0.00  0.00    +0.019 A 
ATOM     17  C   UNL     1      -0.050  -6.925   0.401  0.00  0.00    +0.053 A 
ATOM     18  C   UNL     1      -1.238  -6.209   0.408  0.00  0.00    +0.138 A 
ATOM     19  C   UNL     1      -1.216  -4.831   0.313  0.00  0.00    +0.054 A 
ATOM     20  F   UNL     1      -2.417  -6.860   0.514  0.00  0.00    -0.204 F 
ATOM     21 BR   UNL     1      -0.086  -8.810   0.539  0.00  0.00    -0.047 Br
ENDBRANCH  12  14
ENDBRANCH   1  12
TORSDOF 3
