REMARK  Name = ZINC58175545
REMARK  6 active torsions:
REMARK  status: ('A' for Active; 'I' for Inactive)
REMARK    1  A    between atoms: C_1  and  C_2
REMARK    2  A    between atoms: C_7  and  C_13
REMARK    3  A    between atoms: C_13  and  N_14
REMARK    4  A    between atoms: N_14  and  C_15
REMARK    5  A    between atoms: C_20  and  N_21
REMARK    6  A    between atoms: N_21  and  C_22
REMARK                            x       y       z     vdW  Elec       q    Type
REMARK                         _______ _______ _______ _____ _____    ______ ____
ROOT
ATOM      1  C   UNL     1      -1.365  -8.115   0.398  0.00  0.00    +0.047 A 
ATOM      2  C   UNL     1      -0.348  -9.001   0.731  0.00  0.00    +0.025 A 
ATOM      3  C   UNL     1      -0.546 -10.361   0.593  0.00  0.00    +0.002 A 
ATOM      4  C   UNL     1      -1.755 -10.841   0.123  0.00  0.00    +0.002 A 
ATOM      5  C   UNL     1      -2.769  -9.962  -0.210  0.00  0.00    +0.023 A 
ATOM      6  C   UNL     1      -2.580  -8.601  -0.069  0.00  0.00    +0.033 A 
ENDROOT
BRANCH   6   7
ATOM      7  N   UNL     1      -3.608  -7.714  -0.400  0.00  0.00    -0.399 NA
ATOM      8  H   UNL     1      -4.500  -8.158  -0.242  0.00  0.00    +0.124 HD
ATOM      9  H   UNL     1      -3.537  -6.887   0.175  0.00  0.00    +0.124 HD
BRANCH   7  10
ATOM     10  C   UNL     1      -3.493  -7.337  -1.815  0.00  0.00    +0.017 C 
ATOM     11  C   UNL     1      -3.740  -8.566  -2.692  0.00  0.00    +0.027 C 
ATOM     12  C   UNL     1      -3.620  -8.174  -4.166  0.00  0.00    -0.008 C 
ATOM     13  C   UNL     1      -4.657  -7.097  -4.493  0.00  0.00    +0.007 C 
ATOM     14  C   UNL     1      -4.409  -5.868  -3.616  0.00  0.00    -0.008 C 
ATOM     15  C   UNL     1      -4.529  -6.260  -2.142  0.00  0.00    +0.027 C 
ATOM     16  C   UNL     1      -3.005  -5.323  -3.886  0.00  0.00    +0.007 C 
ATOM     17  C   UNL     1      -1.969  -6.400  -3.559  0.00  0.00    -0.008 C 
ATOM     18  C   UNL     1      -2.216  -7.629  -4.436  0.00  0.00    +0.007 C 
ATOM     19  C   UNL     1      -2.089  -6.792  -2.085  0.00  0.00    +0.027 C 
ENDBRANCH   7  10
ENDBRANCH   6   7
BRANCH   1  20
ATOM     20  N   UNL     1      -1.169  -6.740   0.537  0.00  0.00    -0.337 N 
ATOM     21  H   UNL     1      -1.905  -6.127   0.385  0.00  0.00    +0.147 HD
BRANCH  20  22
ATOM     22  C   UNL     1       0.150  -6.222   0.912  0.00  0.00    +0.155 C 
BRANCH  22  29
ATOM     23  C   UNL     1      -0.366   1.572   0.084  0.00  0.00    +0.045 C 
ATOM     24  C   UNL     1      -0.306   0.068   0.027  0.00  0.00    -0.034 A 
ATOM     25  C   UNL     1      -0.498  -0.594  -1.195  0.00  0.00    +0.008 A 
ATOM     26  C   UNL     1      -0.443  -1.954  -1.238  0.00  0.00    +0.045 A 
ATOM     27  C   UNL     1      -0.193  -2.675  -0.056  0.00  0.00    +0.118 A 
ATOM     28  N   UNL     1      -0.138  -4.005  -0.097  0.00  0.00    -0.343 N 
ATOM     29  C   UNL     1       0.095  -4.718   0.993  0.00  0.00    +0.040 A 
ATOM     30  C   UNL     1       0.286  -4.086   2.206  0.00  0.00    +0.093 A 
ATOM     31  C   UNL     1       0.230  -2.688   2.257  0.00  0.00    +0.258 A 
ATOM     32  O   UNL     1       0.396  -2.099   3.313  0.00  0.00    -0.267 OA
ATOM     33  N   UNL     1      -0.009  -2.002   1.119  0.00  0.00    -0.269 N 
ATOM     34  C   UNL     1      -0.062  -0.641   1.152  0.00  0.00    +0.099 A 
ATOM     35  H   UNL     1      -0.272  -4.460  -0.943  0.00  0.00    +0.167 HD
ENDBRANCH  22  29
ENDBRANCH  20  22
ENDBRANCH   1  20
TORSDOF 5
