REMARK  Name = ZINC16459777
REMARK  16 active torsions:
REMARK  status: ('A' for Active; 'I' for Inactive)
REMARK    1  A    between atoms: C_1  and  C_2
REMARK    2  A    between atoms: C_2  and  N_68
REMARK    3  A    between atoms: C_3  and  C_4
REMARK    4  A    between atoms: C_3  and  N_68
REMARK    5  A    between atoms: C_5  and  C_6
REMARK    6  A    between atoms: C_5  and  N_68
REMARK    7  A    between atoms: C_6  and  C_7
REMARK    8  A    between atoms: C_7  and  C_8
REMARK    9  A    between atoms: C_8  and  C_10
REMARK   10  A    between atoms: C_8  and  N_11
REMARK   11  A    between atoms: C_12  and  C_14
REMARK   12  A    between atoms: C_17  and  C_19
REMARK   13  A    between atoms: C_19  and  S_20
REMARK   14  A    between atoms: S_20  and  C_21
REMARK   15  A    between atoms: C_24  and  C_32
REMARK   16  A    between atoms: N_25  and  C_26
REMARK                            x       y       z     vdW  Elec       q    Type
REMARK                         _______ _______ _______ _____ _____    ______ ____
ROOT
ATOM      1  C   UNL     1      -1.331   2.839  -2.804  0.00  0.00    +0.164 A 
ATOM      2  C   UNL     1      -2.100   1.716  -2.783  0.00  0.00    +0.230 A 
ATOM      3  O   UNL     1      -1.695   0.984  -1.733  0.00  0.00    -0.446 OA
ATOM      4  C   UNL     1      -0.700   1.642  -1.122  0.00  0.00    +0.206 A 
ATOM      5  N   UNL     1      -0.475   2.757  -1.750  0.00  0.00    -0.208 NA
ENDROOT
BRANCH   1   7
ATOM      6  N   UNL     1      -0.584   4.996  -3.679  0.00  0.00    -0.307 N 
ATOM      7  C   UNL     1      -1.414   3.939  -3.782  0.00  0.00    +0.266 C 
ATOM      8  O   UNL     1      -2.232   3.893  -4.681  0.00  0.00    -0.268 OA
ATOM      9  H   UNL     1       0.069   5.032  -2.962  0.00  0.00    +0.149 HD
BRANCH   6  10
ATOM     10  C   UNL     1      -0.666   6.089  -4.651  0.00  0.00    +0.070 C 
ATOM     11  C   UNL     1      -1.745   7.081  -4.212  0.00  0.00    +0.028 C 
BRANCH  10  12
ATOM     12  C   UNL     1       0.683   6.805  -4.729  0.00  0.00    +0.020 C 
BRANCH  12  13
ATOM     13  C   UNL     1       1.738   5.847  -5.287  0.00  0.00    -0.017 C 
BRANCH  13  14
ATOM     14  C   UNL     1       3.087   6.563  -5.364  0.00  0.00    -0.079 C 
BRANCH  14  15
ATOM     15  N   UNL     1       4.120   5.585  -5.769  0.00  0.00    +0.379 N 
ATOM     16  H   UNL     1       3.962   4.706  -5.263  0.00  0.00    -0.082 HD
BRANCH  15  18
ATOM     17  C   UNL     1       4.949   4.156  -7.573  0.00  0.00    -0.017 C 
ATOM     18  C   UNL     1       4.029   5.327  -7.221  0.00  0.00    -0.082 C 
ENDBRANCH  15  18
BRANCH  15  19
ATOM     19  C   UNL     1       5.463   6.100  -5.430  0.00  0.00    -0.082 C 
ATOM     20  C   UNL     1       5.692   5.922  -3.928  0.00  0.00    -0.017 C 
ENDBRANCH  15  19
ENDBRANCH  14  15
ENDBRANCH  13  14
ENDBRANCH  12  13
ENDBRANCH  10  12
ENDBRANCH   6  10
ENDBRANCH   1   7
BRANCH   4  21
ATOM     21  C   UNL     1       0.038   1.166   0.103  0.00  0.00    +0.173 C 
BRANCH  21  22
ATOM     22  S   UNL     1      -0.804   1.771   1.587  0.00  0.00    -0.076 S 
BRANCH  22  23
ATOM     23  C   UNL     1       0.240   1.087   2.830  0.00  0.00    +0.197 A 
ATOM     24  N   UNL     1       1.311   0.354   2.632  0.00  0.00    -0.122 NA
ATOM     25  N   UNL     1       1.836   0.021   3.756  0.00  0.00    -0.127 NA
ATOM     26  C   UNL     1       1.133   0.522   4.748  0.00  0.00    +0.176 A 
ATOM     27  N   UNL     1       0.089   1.227   4.185  0.00  0.00    -0.270 N 
BRANCH  27  28
ATOM     28  C   UNL     1      -0.917   1.934   4.857  0.00  0.00    +0.051 A 
ATOM     29  C   UNL     1      -0.593   3.050   5.617  0.00  0.00    +0.026 A 
ATOM     30  C   UNL     1      -1.587   3.748   6.274  0.00  0.00    +0.002 A 
ATOM     31  C   UNL     1      -2.903   3.330   6.185  0.00  0.00    +0.000 A 
ATOM     32  C   UNL     1      -3.227   2.216   5.434  0.00  0.00    +0.002 A 
ATOM     33  C   UNL     1      -2.238   1.517   4.769  0.00  0.00    +0.026 A 
ENDBRANCH  27  28
BRANCH  26  34
ATOM     34  C   UNL     1       1.409   0.365   6.184  0.00  0.00    +0.057 A 
ATOM     35  C   UNL     1       2.554  -0.068   6.803  0.00  0.00    +0.019 A 
ATOM     36  C   UNL     1       2.579  -0.133   8.178  0.00  0.00    +0.008 A 
ATOM     37  C   UNL     1       1.474   0.232   8.878  0.00  0.00    +0.046 A 
ATOM     38  S   UNL     1       0.342   0.696   7.578  0.00  0.00    -0.094 S 
ENDBRANCH  26  34
ENDBRANCH  22  23
ENDBRANCH  21  22
ENDBRANCH   4  21
TORSDOF 13
