REMARK  Name = ZINC20681808
REMARK  6 active torsions:
REMARK  status: ('A' for Active; 'I' for Inactive)
REMARK    1  A    between atoms: C_1  and  O_2
REMARK    2  A    between atoms: O_2  and  C_3
REMARK    3  A    between atoms: C_3  and  C_5
REMARK    4  A    between atoms: C_12  and  C_21
REMARK    5  A    between atoms: C_24  and  O_28
REMARK    6  A    between atoms: C_26  and  O_27
REMARK                            x       y       z     vdW  Elec       q    Type
REMARK                         _______ _______ _______ _____ _____    ______ ____
ROOT
ATOM      1  C   UNL     1      -0.878   1.084  -3.437  0.00  0.00    +0.080 A 
ATOM      2  C   UNL     1      -0.314   0.747  -4.668  0.00  0.00    +0.017 A 
ATOM      3  C   UNL     1       1.037   0.492  -4.751  0.00  0.00    +0.001 A 
ATOM      4  C   UNL     1       1.831   0.566  -3.620  0.00  0.00    +0.006 A 
ATOM      5  C   UNL     1       1.288   0.898  -2.387  0.00  0.00    -0.019 A 
ATOM      6  C   UNL     1      -0.067   1.163  -2.288  0.00  0.00    +0.045 A 
ATOM      7  N   UNL     1      -0.673   1.481  -1.079  0.00  0.00    -0.336 N 
ATOM      8  C   UNL     1       0.064   0.973   0.078  0.00  0.00    +0.108 C 
ATOM      9  C   UNL     1       1.497   1.510   0.045  0.00  0.00    +0.029 C 
ATOM     10  C   UNL     1       2.211   0.954  -1.205  0.00  0.00    +0.049 C 
ATOM     11  C   UNL     1       2.653  -0.431  -0.791  0.00  0.00    -0.023 C 
ATOM     12  C   UNL     1       2.700  -0.527   0.514  0.00  0.00    -0.030 C 
ATOM     13  C   UNL     1       2.304   0.786   1.159  0.00  0.00    +0.033 C 
ATOM     14  H   UNL     1      -1.604   2.049  -0.932  0.00  0.00    +0.147 HD
ENDROOT
BRANCH   8  15
ATOM     15  C   UNL     1      -0.613   1.427   1.345  0.00  0.00    +0.015 A 
ATOM     16  C   UNL     1      -0.832   0.528   2.371  0.00  0.00    +0.012 A 
ATOM     17  C   UNL     1      -1.452   0.941   3.534  0.00  0.00    +0.046 A 
ATOM     18  C   UNL     1      -1.858   2.261   3.675  0.00  0.00    +0.120 A 
ATOM     19  C   UNL     1      -1.641   3.165   2.647  0.00  0.00    +0.091 A 
ATOM     20  C   UNL     1      -1.013   2.749   1.482  0.00  0.00    +0.125 A 
BRANCH  20  21
ATOM     21  O   UNL     1      -0.792   3.634   0.475  0.00  0.00    -0.506 OA
ATOM     22  H   UNL     1      -1.109   4.681   0.584  0.00  0.00    +0.292 HD
ENDBRANCH  20  21
BRANCH  18  23
ATOM     23  O   UNL     1      -2.469   2.667   4.819  0.00  0.00    -0.507 OA
ATOM     24  H   UNL     1      -2.791   3.713   4.929  0.00  0.00    +0.292 HD
ENDBRANCH  18  23
ENDBRANCH   8  15
BRANCH   1  25
ATOM     25  C   UNL     1      -2.322   1.357  -3.340  0.00  0.00    +0.341 C 
ATOM     26  O   UNL     1      -2.794   1.766  -2.297  0.00  0.00    -0.245 OA
BRANCH  25  28
ATOM     27  C   UNL     1      -4.533   1.445  -4.238  0.00  0.00    +0.280 C 
ATOM     28  O   UNL     1      -3.120   1.154  -4.406  0.00  0.00    -0.464 OA
ENDBRANCH  25  28
ENDBRANCH   1  25
TORSDOF 5
