REMARK  Name = ZINC35990810
REMARK  14 active torsions:
REMARK  status: ('A' for Active; 'I' for Inactive)
REMARK    1  A    between atoms: C_1  and  C_2
REMARK    2  A    between atoms: C_2  and  N_3
REMARK    3  A    between atoms: C_4  and  C_26
REMARK    4  A    between atoms: C_5  and  C_21
REMARK    5  A    between atoms: C_6  and  C_11
REMARK    6  A    between atoms: C_13  and  O_19
REMARK    7  A    between atoms: C_16  and  O_17
REMARK    8  A    between atoms: O_17  and  C_18
REMARK    9  A    between atoms: O_19  and  C_20
REMARK   10  A    between atoms: C_21  and  O_23
REMARK   11  A    between atoms: O_23  and  C_24
REMARK   12  A    between atoms: C_24  and  C_25
REMARK   13  A    between atoms: C_26  and  N_27
REMARK   14  A    between atoms: C_31  and  C_34
REMARK                            x       y       z     vdW  Elec       q    Type
REMARK                         _______ _______ _______ _____ _____    ______ ____
ROOT
ATOM      1  N   UNL     1      -1.521  -0.388   0.266  0.00  0.00    -0.258 N 
ATOM      2  C   UNL     1      -2.295  -0.687   1.351  0.00  0.00    +0.041 C 
ATOM      3  C   UNL     1      -3.510  -1.257   1.204  0.00  0.00    +0.080 C 
ATOM      4  C   UNL     1      -3.986  -1.551  -0.204  0.00  0.00    +0.147 C 
ATOM      5  N   UNL     1      -3.076  -1.189  -1.305  0.00  0.00    -0.288 N 
ATOM      6  C   UNL     1      -1.893  -0.621  -0.999  0.00  0.00    +0.307 C 
ATOM      7  O   UNL     1      -1.137  -0.315  -1.900  0.00  0.00    -0.252 OA
ATOM      8  H   UNL     1      -3.324  -1.353  -2.228  0.00  0.00    +0.151 HD
ENDROOT
BRANCH   4   9
ATOM      9  C   UNL     1      -4.265  -3.029  -0.301  0.00  0.00    +0.023 A 
ATOM     10  C   UNL     1      -3.284  -3.890  -0.752  0.00  0.00    +0.055 A 
ATOM     11  C   UNL     1      -3.541  -5.250  -0.841  0.00  0.00    +0.121 A 
ATOM     12  C   UNL     1      -4.784  -5.745  -0.476  0.00  0.00    +0.049 A 
ATOM     13  C   UNL     1      -5.766  -4.885  -0.025  0.00  0.00    +0.049 A 
ATOM     14  C   UNL     1      -5.506  -3.525   0.069  0.00  0.00    +0.126 A 
BRANCH  14  15
ATOM     15  O   UNL     1      -6.471  -2.678   0.518  0.00  0.00    -0.495 OA
ATOM     16  C   UNL     1      -7.762  -3.239   0.766  0.00  0.00    +0.277 C 
ENDBRANCH  14  15
BRANCH  11  17
ATOM     17  O   UNL     1      -2.575  -6.097  -1.286  0.00  0.00    -0.495 OA
ATOM     18  C   UNL     1      -2.909  -7.485  -1.351  0.00  0.00    +0.277 C 
ENDBRANCH  11  17
ENDBRANCH   4   9
BRANCH   1  20
ATOM     19  C   UNL     1      -0.363   1.752   0.517  0.00  0.00    +0.025 C 
ATOM     20  C   UNL     1      -0.213   0.229   0.499  0.00  0.00    +0.111 C 
ENDBRANCH   1  20
BRANCH   3  21
ATOM     21  C   UNL     1      -4.312  -1.569   2.327  0.00  0.00    +0.339 C 
ATOM     22  O   UNL     1      -4.317  -2.699   2.776  0.00  0.00    -0.245 OA
BRANCH  21  23
ATOM     23  O   UNL     1      -5.072  -0.612   2.899  0.00  0.00    -0.462 OA
BRANCH  23  24
ATOM     24  C   UNL     1      -5.770  -0.967   4.095  0.00  0.00    +0.229 C 
ATOM     25  C   UNL     1      -6.666   0.196   4.527  0.00  0.00    +0.048 C 
ENDBRANCH  23  24
ENDBRANCH  21  23
ENDBRANCH   3  21
BRANCH   2  26
ATOM     26  C   UNL     1      -1.783  -0.378   2.734  0.00  0.00    +0.136 C 
BRANCH  26  27
ATOM     27  N   UNL     1      -0.623  -1.229   3.030  0.00  0.00    -0.300 NA
ATOM     28  C   UNL     1      -1.016  -2.643   3.116  0.00  0.00    +0.066 C 
ATOM     29  C   UNL     1       0.227  -3.500   3.365  0.00  0.00    -0.067 C 
ATOM     30  N   UNL     1       0.872  -3.076   4.614  0.00  0.00    +0.382 N 
ATOM     31  C   UNL     1       1.281  -1.670   4.504  0.00  0.00    -0.061 C 
ATOM     32  C   UNL     1       0.046  -0.797   4.264  0.00  0.00    +0.069 C 
ATOM     33  C   UNL     1       1.969  -1.235   5.799  0.00  0.00    -0.012 C 
ATOM     34  H   UNL     1       0.222  -3.179   5.380  0.00  0.00    -0.085 HD
ATOM     35  H   UNL     1       1.685  -3.650   4.784  0.00  0.00    -0.085 HD
ENDBRANCH  26  27
ENDBRANCH   2  26
TORSDOF 9
