REMARK  Name = ZINC15674008
REMARK  8 active torsions:
REMARK  status: ('A' for Active; 'I' for Inactive)
REMARK    1  A    between atoms: C_5  and  C_7
REMARK    2  A    between atoms: C_10  and  C_13
REMARK    3  A    between atoms: C_13  and  N_58
REMARK    4  A    between atoms: C_15  and  O_36
REMARK    5  A    between atoms: C_18  and  C_20
REMARK    6  A    between atoms: C_22  and  C_25
REMARK    7  A    between atoms: C_25  and  S_26
REMARK    8  A    between atoms: S_26  and  C_29
REMARK                            x       y       z     vdW  Elec       q    Type
REMARK                         _______ _______ _______ _____ _____    ______ ____
ROOT
ATOM      1  C   UNL     1      -3.774   2.038   6.136  0.00  0.00    -0.046 C 
ATOM      2  C   UNL     1      -4.908   2.447   5.177  0.00  0.00    +0.097 C 
ATOM      3  C   UNL     1      -4.282   2.394   3.762  0.00  0.00    +0.023 C 
ATOM      4  C   UNL     1      -3.071   1.448   3.957  0.00  0.00    +0.025 C 
ATOM      5  N   UNL     1      -2.593   1.813   5.295  0.00  0.00    +0.392 N 
ATOM      6  H   UNL     1      -2.036   2.674   5.241  0.00  0.00    -0.080 HD
ENDROOT
BRANCH   4   7
ATOM      7  C   UNL     1      -2.016   1.712   2.913  0.00  0.00    +0.214 A 
ATOM      8  N   UNL     1      -1.704   0.935   1.904  0.00  0.00    -0.196 NA
ATOM      9  C   UNL     1      -0.718   1.572   1.248  0.00  0.00    +0.193 A 
ATOM     10  N   UNL     1      -0.481   2.681   1.883  0.00  0.00    -0.060 NA
ATOM     11  O   UNL     1      -1.220   2.783   2.840  0.00  0.00    -0.340 OA
BRANCH   9  12
ATOM     12  C   UNL     1      -0.013   1.086   0.008  0.00  0.00    +0.251 C 
BRANCH  12  13
ATOM     13  S   UNL     1      -0.890   1.687  -1.462  0.00  0.00    +0.004 S 
ATOM     14  O   UNL     1      -2.163   1.063  -1.561  0.00  0.00    -0.169 OA
ATOM     15  O   UNL     1      -0.765   3.099  -1.563  0.00  0.00    -0.169 OA
BRANCH  13  16
ATOM     16  C   UNL     1       0.028   1.055  -2.827  0.00  0.00    +0.089 A 
ATOM     17  C   UNL     1       1.062   1.797  -3.367  0.00  0.00    +0.030 A 
ATOM     18  C   UNL     1       1.786   1.300  -4.434  0.00  0.00    +0.040 A 
ATOM     19  C   UNL     1       1.467   0.063  -4.970  0.00  0.00    +0.124 A 
ATOM     20  C   UNL     1       0.428  -0.676  -4.432  0.00  0.00    +0.040 A 
ATOM     21  C   UNL     1      -0.291  -0.180  -3.361  0.00  0.00    +0.030 A 
ATOM     22  F   UNL     1       2.170  -0.421  -6.017  0.00  0.00    -0.205 F 
ENDBRANCH  13  16
ENDBRANCH  12  13
ENDBRANCH   9  12
ENDBRANCH   4   7
BRANCH   2  23
ATOM     23  O   UNL     1      -5.994   1.523   5.269  0.00  0.00    -0.394 OA
ATOM     24  H   UNL     1      -6.399   1.479   6.146  0.00  0.00    +0.210 HD
ENDBRANCH   2  23
BRANCH   5  25
ATOM     25  C   UNL     1      -1.751   0.721   5.869  0.00  0.00    -0.042 C 
BRANCH  25  29
ATOM     26  C   UNL     1      -0.945   1.527   9.990  0.00  0.00    +0.000 A 
ATOM     27  C   UNL     1      -2.077   0.799   9.628  0.00  0.00    +0.010 A 
ATOM     28  C   UNL     1      -2.332   0.542   8.296  0.00  0.00    +0.002 A 
ATOM     29  C   UNL     1      -1.467   1.005   7.321  0.00  0.00    -0.064 A 
ATOM     30  C   UNL     1      -0.339   1.723   7.675  0.00  0.00    +0.002 A 
ATOM     31  C   UNL     1      -0.077   1.991   9.004  0.00  0.00    +0.010 A 
BRANCH  26  36
ATOM     32  C   UNL     1       0.716   2.788  13.110  0.00  0.00    +0.004 A 
ATOM     33  C   UNL     1      -0.181   2.305  14.053  0.00  0.00    +0.020 A 
ATOM     34  C   UNL     1      -1.286   1.589  13.632  0.00  0.00    +0.111 A 
ATOM     35  N   UNL     1      -1.501   1.366  12.351  0.00  0.00    -0.255 NA
ATOM     36  C   UNL     1      -0.666   1.807  11.419  0.00  0.00    +0.071 A 
ATOM     37  C   UNL     1       0.468   2.535  11.772  0.00  0.00    +0.028 A 
ENDBRANCH  26  36
ENDBRANCH  25  29
ENDBRANCH   5  25
TORSDOF 8
