REMARK  Name = ZINC36316073
REMARK  18 active torsions:
REMARK  status: ('A' for Active; 'I' for Inactive)
REMARK    1  A    between atoms: C_1  and  C_2
REMARK    2  A    between atoms: C_5  and  O_8
REMARK    3  A    between atoms: O_8  and  C_9
REMARK    4  A    between atoms: C_10  and  C_21
REMARK    5  A    between atoms: C_11  and  C_15
REMARK    6  A    between atoms: N_13  and  C_14
REMARK    7  A    between atoms: C_21  and  N_22
REMARK    8  A    between atoms: N_22  and  C_23
REMARK    9  A    between atoms: N_22  and  C_30
REMARK   10  A    between atoms: C_23  and  C_24
REMARK   11  A    between atoms: C_30  and  C_31
REMARK   12  A    between atoms: C_31  and  C_33
REMARK   13  A    between atoms: C_31  and  O_39
REMARK   14  A    between atoms: C_33  and  O_34
REMARK   15  A    between atoms: O_34  and  C_35
REMARK   16  A    between atoms: C_35  and  C_36
REMARK   17  A    between atoms: C_35  and  C_37
REMARK   18  A    between atoms: C_35  and  C_38
REMARK                            x       y       z     vdW  Elec       q    Type
REMARK                         _______ _______ _______ _____ _____    ______ ____
ROOT
ATOM      1  C   UNL     1      -0.751  -5.494   1.834  0.00  0.00    +0.221 A 
ATOM      2  C   UNL     1      -1.048  -6.818   1.871  0.00  0.00    +0.025 A 
ATOM      3  C   UNL     1      -1.850  -7.048   3.005  0.00  0.00    +0.098 A 
ATOM      4  N   UNL     1      -2.024  -5.899   3.623  0.00  0.00    -0.168 NA
ATOM      5  N   UNL     1      -1.338  -4.908   2.910  0.00  0.00    -0.235 N 
ATOM      6  C   UNL     1      -1.269  -3.487   3.260  0.00  0.00    +0.176 C 
ENDROOT
BRANCH   3   7
ATOM      7  C   UNL     1      -2.403  -8.358   3.429  0.00  0.00    +0.002 A 
ATOM      8  C   UNL     1      -2.390  -8.720   4.774  0.00  0.00    +0.010 A 
ATOM      9  C   UNL     1      -2.906  -9.939   5.164  0.00  0.00    +0.001 A 
ATOM     10  C   UNL     1      -3.436 -10.802   4.221  0.00  0.00    +0.000 A 
ATOM     11  C   UNL     1      -3.451 -10.447   2.884  0.00  0.00    +0.001 A 
ATOM     12  C   UNL     1      -2.943  -9.228   2.484  0.00  0.00    +0.010 A 
ENDBRANCH   3   7
BRANCH   1  13
ATOM     13  O   UNL     1       0.003  -4.868   0.895  0.00  0.00    -0.438 OA
BRANCH  13  18
ATOM     14  C   UNL     1      -2.654  -2.396  -3.413  0.00  0.00    +0.044 C 
ATOM     15  C   UNL     1      -1.943  -3.057  -2.260  0.00  0.00    -0.050 A 
ATOM     16  C   UNL     1      -0.574  -2.922  -2.125  0.00  0.00    +0.007 A 
ATOM     17  C   UNL     1       0.080  -3.528  -1.069  0.00  0.00    +0.046 A 
ATOM     18  C   UNL     1      -0.638  -4.271  -0.144  0.00  0.00    +0.130 A 
ATOM     19  C   UNL     1      -2.012  -4.405  -0.282  0.00  0.00    +0.046 A 
ATOM     20  C   UNL     1      -2.662  -3.793  -1.336  0.00  0.00    +0.007 A 
ENDBRANCH  13  18
ENDBRANCH   1  13
BRANCH   2  21
ATOM     21  C   UNL     1      -0.600  -7.856   0.875  0.00  0.00    -0.035 C 
BRANCH  21  22
ATOM     22  N   UNL     1       0.846  -8.077   1.016  0.00  0.00    +0.386 N 
ATOM     23  H   UNL     1       1.330  -7.195   0.942  0.00  0.00    -0.081 HD
BRANCH  22  24
ATOM     24  C   UNL     1       1.124  -8.681   2.326  0.00  0.00    -0.046 C 
BRANCH  24  25
ATOM     25  C   UNL     1       1.239  -7.579   3.381  0.00  0.00    +0.102 C 
ATOM     26  C   UNL     1       1.670  -8.181   4.742  0.00  0.00    +0.032 C 
ATOM     27  C   UNL     1       2.331  -6.947   5.414  0.00  0.00    +0.030 C 
ATOM     28  C   UNL     1       2.967  -6.220   4.210  0.00  0.00    +0.160 C 
ATOM     29  O   UNL     1       2.284  -6.658   3.028  0.00  0.00    -0.378 OA
ENDBRANCH  24  25
ENDBRANCH  22  24
BRANCH  22  30
ATOM     30  C   UNL     1       1.309  -8.979  -0.047  0.00  0.00    -0.044 C 
BRANCH  30  31
ATOM     31  C   UNL     1       2.834  -9.085   0.002  0.00  0.00    +0.124 C 
BRANCH  31  32
ATOM     32  O   UNL     1       3.408  -7.790  -0.185  0.00  0.00    -0.391 OA
ATOM     33  H   UNL     1       3.178  -7.375  -1.028  0.00  0.00    +0.210 HD
ENDBRANCH  31  32
BRANCH  31  34
ATOM     34  C   UNL     1       3.317 -10.021  -1.108  0.00  0.00    +0.189 C 
BRANCH  34  35
ATOM     35  O   UNL     1       4.728 -10.212  -0.990  0.00  0.00    -0.372 OA
BRANCH  35  36
ATOM     36  C   UNL     1       5.283 -11.075  -1.984  0.00  0.00    +0.061 C 
ATOM     37  C   UNL     1       5.021 -10.488  -3.373  0.00  0.00    +0.041 C 
ATOM     38  C   UNL     1       6.791 -11.206  -1.762  0.00  0.00    +0.041 C 
ATOM     39  C   UNL     1       4.631 -12.456  -1.883  0.00  0.00    +0.041 C 
ENDBRANCH  35  36
ENDBRANCH  34  35
ENDBRANCH  31  34
ENDBRANCH  30  31
ENDBRANCH  22  30
ENDBRANCH  21  22
ENDBRANCH   2  21
TORSDOF 13
