REMARK  Name = ZINC00868902
REMARK  14 active torsions:
REMARK  status: ('A' for Active; 'I' for Inactive)
REMARK    1  A    between atoms: C_1  and  C_2
REMARK    2  A    between atoms: C_3  and  C_34
REMARK    3  A    between atoms: C_4  and  C_25
REMARK    4  A    between atoms: C_10  and  C_15
REMARK    5  A    between atoms: C_18  and  O_23
REMARK    6  A    between atoms: C_19  and  O_21
REMARK    7  A    between atoms: O_21  and  C_22
REMARK    8  A    between atoms: O_23  and  C_24
REMARK    9  A    between atoms: C_28  and  N_31
REMARK   10  A    between atoms: C_34  and  O_36
REMARK   11  A    between atoms: O_36  and  C_37
REMARK   12  A    between atoms: C_37  and  C_38
REMARK   13  A    between atoms: C_38  and  C_39
REMARK   14  A    between atoms: C_38  and  C_40
REMARK                            x       y       z     vdW  Elec       q    Type
REMARK                         _______ _______ _______ _____ _____    ______ ____
ROOT
ATOM      1  C   UNL     1       5.747  -2.540  -3.871  0.00  0.00    +0.061 C 
ATOM      2  C   UNL     1       5.402  -1.925  -2.539  0.00  0.00    +0.016 C 
ATOM      3  C   UNL     1       5.825  -2.510  -1.405  0.00  0.00    +0.065 C 
ATOM      4  C   UNL     1       5.508  -1.922  -0.061  0.00  0.00    +0.092 C 
ATOM      5  C   UNL     1       4.369  -0.938  -0.156  0.00  0.00    +0.024 C 
ATOM      6  C   UNL     1       4.005  -0.417  -1.347  0.00  0.00    +0.016 C 
ATOM      7  N   UNL     1       4.663  -0.776  -2.492  0.00  0.00    -0.321 N 
ATOM      8  C   UNL     1       2.867   0.568  -1.449  0.00  0.00    +0.059 C 
ATOM      9  C   UNL     1       2.777   1.385  -0.158  0.00  0.00    +0.032 C 
ATOM     10  C   UNL     1       2.575   0.420   1.015  0.00  0.00    +0.088 C 
ATOM     11  C   UNL     1       3.703  -0.576   1.028  0.00  0.00    +0.162 C 
ATOM     12  O   UNL     1       4.044  -1.077   2.082  0.00  0.00    -0.292 OA
ATOM     13  H   UNL     1       4.592  -0.131  -3.381  0.00  0.00    +0.152 HD
ENDROOT
BRANCH   9  14
ATOM     14  C   UNL     1       1.609   2.334  -0.240  0.00  0.00    -0.040 A 
ATOM     15  C   UNL     1       0.330   1.840  -0.410  0.00  0.00    +0.008 A 
ATOM     16  C   UNL     1      -0.744   2.707  -0.491  0.00  0.00    +0.049 A 
ATOM     17  C   UNL     1      -0.540   4.074  -0.390  0.00  0.00    +0.161 A 
ATOM     18  C   UNL     1       0.748   4.571  -0.219  0.00  0.00    +0.162 A 
ATOM     19  C   UNL     1       1.820   3.697  -0.145  0.00  0.00    +0.053 A 
BRANCH  18  20
ATOM     20  O   UNL     1       0.954   5.912  -0.126  0.00  0.00    -0.491 OA
ATOM     21  C   UNL     1       2.302   6.351   0.049  0.00  0.00    +0.277 C 
ENDBRANCH  18  20
BRANCH  17  22
ATOM     22  O   UNL     1      -1.597   4.928  -0.464  0.00  0.00    -0.491 OA
ATOM     23  C   UNL     1      -2.890   4.346  -0.640  0.00  0.00    +0.277 C 
ENDBRANCH  17  22
ENDBRANCH   9  14
BRANCH   4  24
ATOM     24  C   UNL     1       6.728  -1.217   0.471  0.00  0.00    -0.035 A 
ATOM     25  C   UNL     1       7.267  -0.149  -0.222  0.00  0.00    +0.007 A 
ATOM     26  C   UNL     1       8.384   0.501   0.269  0.00  0.00    +0.033 A 
ATOM     27  C   UNL     1       8.969   0.077   1.447  0.00  0.00    +0.126 A 
ATOM     28  C   UNL     1       8.433  -0.995   2.138  0.00  0.00    +0.033 A 
ATOM     29  C   UNL     1       7.313  -1.641   1.650  0.00  0.00    +0.007 A 
BRANCH  27  30
ATOM     30  N   UNL     1      10.168   0.769   1.970  0.00  0.00    +0.056 N 
ATOM     31  O   UNL     1      10.683   0.395   3.008  0.00  0.00    -0.126 OA
ATOM     32  O   UNL     1      10.640   1.713   1.361  0.00  0.00    -0.126 OA
ENDBRANCH  27  30
ENDBRANCH   4  24
BRANCH   3  33
ATOM     33  C   UNL     1       6.582  -3.702  -1.479  0.00  0.00    +0.338 C 
ATOM     34  O   UNL     1       6.742  -4.255  -2.551  0.00  0.00    -0.245 OA
BRANCH  33  35
ATOM     35  O   UNL     1       7.127  -4.226  -0.361  0.00  0.00    -0.461 OA
BRANCH  35  36
ATOM     36  C   UNL     1       7.880  -5.431  -0.510  0.00  0.00    +0.235 C 
BRANCH  36  37
ATOM     37  C   UNL     1       8.415  -5.870   0.854  0.00  0.00    +0.020 C 
ATOM     38  C   UNL     1       7.244  -6.234   1.769  0.00  0.00    +0.010 C 
ATOM     39  C   UNL     1       9.323  -7.089   0.678  0.00  0.00    +0.010 C 
ENDBRANCH  36  37
ENDBRANCH  35  36
ENDBRANCH  33  35
ENDBRANCH   3  33
TORSDOF 9
