REMARK  Name = ZINC13405620
REMARK  11 active torsions:
REMARK  status: ('A' for Active; 'I' for Inactive)
REMARK    1  A    between atoms: C_1  and  C_2
REMARK    2  A    between atoms: C_2  and  C_3
REMARK    3  A    between atoms: C_2  and  C_4
REMARK    4  A    between atoms: C_4  and  C_6
REMARK    5  A    between atoms: C_4  and  N_8
REMARK    6  A    between atoms: C_18  and  S_19
REMARK    7  A    between atoms: S_19  and  C_20
REMARK    8  A    between atoms: C_20  and  C_21
REMARK    9  A    between atoms: N_23  and  C_24
REMARK   10  A    between atoms: C_24  and  C_25
REMARK   11  A    between atoms: C_25  and  C_26
REMARK                            x       y       z     vdW  Elec       q    Type
REMARK                         _______ _______ _______ _____ _____    ______ ____
ROOT
ATOM      1  N   UNL     1      10.030  -4.298  -5.254  0.00  0.00    -0.273 N 
ATOM      2  C   UNL     1      11.203  -4.955  -5.097  0.00  0.00    +0.263 A 
ATOM      3  O   UNL     1      11.854  -5.324  -6.057  0.00  0.00    -0.267 OA
ATOM      4  C   UNL     1      11.658  -5.210  -3.724  0.00  0.00    +0.065 A 
ATOM      5  C   UNL     1      12.850  -5.883  -3.456  0.00  0.00    +0.015 A 
ATOM      6  C   UNL     1      13.227  -6.094  -2.158  0.00  0.00    +0.001 A 
ATOM      7  C   UNL     1      12.437  -5.646  -1.107  0.00  0.00    +0.002 A 
ATOM      8  C   UNL     1      11.264  -4.985  -1.341  0.00  0.00    +0.028 A 
ATOM      9  C   UNL     1      10.851  -4.753  -2.657  0.00  0.00    +0.079 A 
ATOM     10  N   UNL     1       9.702  -4.105  -2.933  0.00  0.00    -0.223 NA
ATOM     11  C   UNL     1       9.315  -3.887  -4.165  0.00  0.00    +0.173 A 
ENDROOT
BRANCH   1  12
ATOM     12  C   UNL     1       9.526  -4.022  -6.602  0.00  0.00    +0.208 C 
BRANCH  12  14
ATOM     13  C   UNL     1       8.296  -6.196  -6.588  0.00  0.00    +0.010 C 
ATOM     14  C   UNL     1       9.312  -5.341  -7.347  0.00  0.00    +0.017 C 
ATOM     15  C   UNL     1       8.786  -5.052  -8.754  0.00  0.00    +0.010 C 
ENDBRANCH  12  14
BRANCH  12  16
ATOM     16  C   UNL     1      10.527  -3.179  -7.349  0.00  0.00    +0.379 C 
ATOM     17  O   UNL     1      11.556  -2.844  -6.811  0.00  0.00    -0.244 OA
ATOM     18  O   UNL     1      10.276  -2.801  -8.612  0.00  0.00    -0.244 OA
ENDBRANCH  12  16
ENDBRANCH   1  12
BRANCH  11  19
ATOM     19  S   UNL     1       7.798  -3.031  -4.431  0.00  0.00    -0.078 S 
BRANCH  19  20
ATOM     20  C   UNL     1       7.294  -2.745  -2.716  0.00  0.00    +0.173 C 
BRANCH  20  21
ATOM     21  C   UNL     1       5.982  -2.004  -2.695  0.00  0.00    +0.223 C 
ATOM     22  O   UNL     1       5.441  -1.699  -3.736  0.00  0.00    -0.275 OA
ATOM     23  N   UNL     1       5.410  -1.680  -1.518  0.00  0.00    -0.314 N 
ATOM     24  H   UNL     1       5.843  -1.923  -0.685  0.00  0.00    +0.149 HD
BRANCH  23  25
ATOM     25  C   UNL     1       4.135  -0.959  -1.498  0.00  0.00    +0.109 C 
BRANCH  25  26
ATOM     26  C   UNL     1       3.709  -0.717  -0.048  0.00  0.00    +0.054 C 
BRANCH  26  27
ATOM     27  C   UNL     1       2.397   0.024  -0.027  0.00  0.00    -0.042 A 
ATOM     28  C   UNL     1       1.207  -0.680  -0.016  0.00  0.00    +0.007 A 
ATOM     29  C   UNL     1       0.002  -0.004   0.002  0.00  0.00    +0.050 A 
ATOM     30  C   UNL     1      -0.017   1.383   0.010  0.00  0.00    +0.162 A 
ATOM     31  C   UNL     1       1.179   2.090   0.002  0.00  0.00    +0.162 A 
ATOM     32  C   UNL     1       2.385   1.406  -0.018  0.00  0.00    +0.053 A 
ATOM     33  O   UNL     1       1.184   3.451   0.018  0.00  0.00    -0.485 OA
ATOM     34  C   UNL     1      -0.040   4.103  -0.340  0.00  0.00    +0.270 C 
ATOM     35  C   UNL     1      -1.189   3.413   0.408  0.00  0.00    +0.270 C 
ATOM     36  O   UNL     1      -1.212   2.035   0.019  0.00  0.00    -0.485 OA
ENDBRANCH  26  27
ENDBRANCH  25  26
ENDBRANCH  23  25
ENDBRANCH  20  21
ENDBRANCH  19  20
ENDBRANCH  11  19
TORSDOF 9
