REMARK  Name = ZINC01372537
REMARK  9 active torsions:
REMARK  status: ('A' for Active; 'I' for Inactive)
REMARK    1  A    between atoms: C_1  and  C_2
REMARK    2  A    between atoms: C_7  and  C_8
REMARK    3  A    between atoms: C_8  and  C_10
REMARK    4  A    between atoms: C_8  and  N_20
REMARK    5  A    between atoms: N_12  and  C_13
REMARK    6  A    between atoms: C_13  and  C_14
REMARK    7  A    between atoms: N_20  and  C_21
REMARK    8  A    between atoms: C_28  and  C_30
REMARK    9  A    between atoms: C_30  and  N_31
REMARK                            x       y       z     vdW  Elec       q    Type
REMARK                         _______ _______ _______ _____ _____    ______ ____
ROOT
ATOM      1  N   UNL     1      -4.684   3.801  -1.776  0.00  0.00    -0.251 N 
ATOM      2  C   UNL     1      -3.396   3.728  -2.164  0.00  0.00    +0.242 C 
ATOM      3  O   UNL     1      -3.122   3.620  -3.341  0.00  0.00    -0.273 OA
ENDROOT
BRANCH   1   4
ATOM      4  C   UNL     1      -5.000   3.927  -0.417  0.00  0.00    +0.073 A 
ATOM      5  C   UNL     1      -4.999   5.178   0.184  0.00  0.00    +0.026 A 
ATOM      6  C   UNL     1      -5.312   5.299   1.524  0.00  0.00    +0.002 A 
ATOM      7  C   UNL     1      -5.626   4.176   2.268  0.00  0.00    +0.003 A 
ATOM      8  C   UNL     1      -5.628   2.928   1.673  0.00  0.00    +0.040 A 
ATOM      9  C   UNL     1      -5.321   2.800   0.330  0.00  0.00    +0.145 A 
ATOM     10  F   UNL     1      -5.329   1.581  -0.252  0.00  0.00    -0.204 F 
ENDBRANCH   1   4
BRANCH   1  11
ATOM     11  C   UNL     1      -5.754   3.750  -2.775  0.00  0.00    +0.198 C 
BRANCH  11  18
ATOM     12  C   UNL     1      -5.095   1.008  -3.402  0.00  0.00    +0.044 C 
ATOM     13  C   UNL     1      -6.401   1.333  -2.724  0.00  0.00    -0.045 A 
ATOM     14  C   UNL     1      -7.284   0.319  -2.402  0.00  0.00    +0.004 A 
ATOM     15  C   UNL     1      -8.481   0.616  -1.780  0.00  0.00    +0.000 A 
ATOM     16  C   UNL     1      -8.796   1.929  -1.480  0.00  0.00    +0.000 A 
ATOM     17  C   UNL     1      -7.912   2.942  -1.797  0.00  0.00    +0.006 A 
ATOM     18  C   UNL     1      -6.716   2.644  -2.424  0.00  0.00    -0.015 A 
ENDBRANCH  11  18
BRANCH  11  19
ATOM     19  C   UNL     1      -6.487   5.067  -2.795  0.00  0.00    +0.239 C 
ATOM     20  O   UNL     1      -6.368   5.841  -1.869  0.00  0.00    -0.273 OA
ATOM     21  N   UNL     1      -7.275   5.384  -3.841  0.00  0.00    -0.309 N 
ATOM     22  H   UNL     1      -7.431   4.735  -4.545  0.00  0.00    +0.149 HD
BRANCH  21  23
ATOM     23  C   UNL     1      -7.897   6.708  -3.915  0.00  0.00    +0.139 C 
BRANCH  23  24
ATOM     24  C   UNL     1      -8.722   6.806  -5.172  0.00  0.00    -0.030 A 
ATOM     25  C   UNL     1      -8.148   7.272  -6.340  0.00  0.00    +0.005 A 
ATOM     26  C   UNL     1      -8.903   7.357  -7.495  0.00  0.00    +0.000 A 
ATOM     27  C   UNL     1     -10.235   6.987  -7.479  0.00  0.00    +0.000 A 
ATOM     28  C   UNL     1     -10.810   6.527  -6.310  0.00  0.00    +0.000 A 
ATOM     29  C   UNL     1     -10.054   6.437  -5.156  0.00  0.00    +0.005 A 
ENDBRANCH  23  24
ENDBRANCH  21  23
ENDBRANCH  11  19
ENDBRANCH   1  11
BRANCH   2  30
ATOM     30  C   UNL     1      -2.295   3.781  -1.136  0.00  0.00    +0.242 C 
BRANCH  30  31
ATOM     31  N   UNL     1      -0.996   3.684  -1.806  0.00  0.00    -0.235 N 
ATOM     32  C   UNL     1      -0.301   2.532  -2.090  0.00  0.00    +0.090 A 
ATOM     33  C   UNL     1      -0.544   1.179  -1.877  0.00  0.00    +0.029 A 
ATOM     34  C   UNL     1       0.373   0.252  -2.285  0.00  0.00    +0.002 A 
ATOM     35  C   UNL     1       1.542   0.647  -2.921  0.00  0.00    +0.002 A 
ATOM     36  C   UNL     1       1.802   1.967  -3.147  0.00  0.00    +0.032 A 
ATOM     37  C   UNL     1       0.881   2.938  -2.733  0.00  0.00    +0.113 A 
ATOM     38  N   UNL     1       0.861   4.284  -2.815  0.00  0.00    -0.129 NA
ATOM     39  N   UNL     1      -0.216   4.747  -2.285  0.00  0.00    -0.064 NA
ENDBRANCH  30  31
ENDBRANCH   2  30
TORSDOF 8
