REMARK  Name = ZINC36693503
REMARK  8 active torsions:
REMARK  status: ('A' for Active; 'I' for Inactive)
REMARK    1  A    between atoms: C_1  and  N_2
REMARK    2  A    between atoms: N_2  and  C_3
REMARK    3  A    between atoms: N_2  and  S_4
REMARK    4  A    between atoms: S_4  and  C_7
REMARK    5  A    between atoms: C_10  and  C_13
REMARK    6  A    between atoms: C_19  and  C_21
REMARK    7  A    between atoms: C_21  and  C_22
REMARK    8  A    between atoms: C_21  and  C_28
REMARK                            x       y       z     vdW  Elec       q    Type
REMARK                         _______ _______ _______ _____ _____    ______ ____
ROOT
ATOM      1  C   UNL     1       5.942  -1.145  -3.148  0.00  0.00    +0.250 A 
ATOM      2  N   UNL     1       6.751  -0.400  -3.862  0.00  0.00    -0.106 NA
ATOM      3  N   UNL     1       7.885  -0.995  -3.982  0.00  0.00    -0.092 NA
ATOM      4  C   UNL     1       7.844  -2.143  -3.350  0.00  0.00    +0.314 A 
ATOM      5  O   UNL     1       6.619  -2.261  -2.804  0.00  0.00    -0.405 OA
ATOM      6  N   UNL     1       8.876  -3.064  -3.255  0.00  0.00    -0.238 N 
ATOM      7  C   UNL     1      10.059  -2.813  -3.848  0.00  0.00    +0.232 C 
ATOM      8  O   UNL     1      10.222  -1.782  -4.465  0.00  0.00    -0.274 OA
ATOM      9  H   UNL     1       8.745  -3.889  -2.762  0.00  0.00    +0.159 HD
ENDROOT
BRANCH   1  13
ATOM     10  C   UNL     1       1.934  -0.210  -2.098  0.00  0.00    +0.105 A 
ATOM     11  C   UNL     1       2.669   0.675  -2.866  0.00  0.00    +0.029 A 
ATOM     12  C   UNL     1       3.971   0.378  -3.210  0.00  0.00    +0.015 A 
ATOM     13  C   UNL     1       4.547  -0.819  -2.783  0.00  0.00    +0.039 A 
ATOM     14  C   UNL     1       3.800  -1.708  -2.008  0.00  0.00    +0.015 A 
ATOM     15  C   UNL     1       2.501  -1.397  -1.666  0.00  0.00    +0.029 A 
BRANCH  10  16
ATOM     16  S   UNL     1       0.272   0.177  -1.661  0.00  0.00    +0.060 S 
ATOM     17  O   UNL     1      -0.377  -1.058  -1.392  0.00  0.00    -0.153 OA
ATOM     18  O   UNL     1      -0.204   1.089  -2.642  0.00  0.00    -0.153 OA
BRANCH  16  20
ATOM     19  C   UNL     1       0.432   2.468  -0.232  0.00  0.00    +0.131 C 
ATOM     20  N   UNL     1       0.322   1.007  -0.229  0.00  0.00    -0.183 NA
ATOM     21  C   UNL     1       0.256   0.280   1.041  0.00  0.00    +0.131 C 
ENDBRANCH  16  20
ENDBRANCH  10  16
ENDBRANCH   1  13
BRANCH   7  22
ATOM     22  C   UNL     1      11.181  -3.815  -3.745  0.00  0.00    +0.135 C 
BRANCH  22  23
ATOM     23  C   UNL     1      12.386  -3.298  -4.489  0.00  0.00    -0.031 A 
ATOM     24  C   UNL     1      12.978  -4.074  -5.468  0.00  0.00    +0.005 A 
ATOM     25  C   UNL     1      14.083  -3.600  -6.150  0.00  0.00    +0.000 A 
ATOM     26  C   UNL     1      14.595  -2.350  -5.854  0.00  0.00    +0.000 A 
ATOM     27  C   UNL     1      14.002  -1.575  -4.875  0.00  0.00    +0.000 A 
ATOM     28  C   UNL     1      12.895  -2.047  -4.196  0.00  0.00    +0.005 A 
ENDBRANCH  22  23
BRANCH  22  29
ATOM     29  C   UNL     1      11.537  -4.023  -2.296  0.00  0.00    -0.031 A 
ATOM     30  C   UNL     1      11.793  -2.934  -1.483  0.00  0.00    +0.005 A 
ATOM     31  C   UNL     1      12.119  -3.125  -0.154  0.00  0.00    +0.000 A 
ATOM     32  C   UNL     1      12.189  -4.405   0.364  0.00  0.00    +0.000 A 
ATOM     33  C   UNL     1      11.932  -5.494  -0.448  0.00  0.00    +0.000 A 
ATOM     34  C   UNL     1      11.602  -5.303  -1.777  0.00  0.00    +0.005 A 
ENDBRANCH  22  29
ENDBRANCH   7  22
TORSDOF 6
