REMARK  Name = ZINC63830780
REMARK  9 active torsions:
REMARK  status: ('A' for Active; 'I' for Inactive)
REMARK    1  A    between atoms: C_1  and  N_2
REMARK    2  A    between atoms: N_5  and  C_14
REMARK    3  A    between atoms: C_14  and  C_15
REMARK    4  A    between atoms: N_17  and  C_18
REMARK    5  A    between atoms: C_18  and  C_19
REMARK    6  A    between atoms: C_19  and  C_21
REMARK    7  A    between atoms: C_19  and  C_29
REMARK    8  A    between atoms: C_24  and  O_27
REMARK    9  A    between atoms: O_27  and  C_28
REMARK                            x       y       z     vdW  Elec       q    Type
REMARK                         _______ _______ _______ _____ _____    ______ ____
ROOT
ATOM      1  C   UNL     1       2.807  -4.886  -3.538  0.00  0.00    +0.116 C 
ENDROOT
BRANCH   1   4
ATOM      2  C   UNL     1       1.278  -3.554  -2.187  0.00  0.00    +0.231 C 
ATOM      3  O   UNL     1       2.236  -2.953  -1.748  0.00  0.00    -0.274 OA
ATOM      4  N   UNL     1       1.456  -4.540  -3.088  0.00  0.00    -0.313 N 
ATOM      5  H   UNL     1       0.690  -5.021  -3.439  0.00  0.00    +0.149 HD
BRANCH   2   6
ATOM      6  C   UNL     1      -0.112  -3.198  -1.724  0.00  0.00    +0.213 C 
BRANCH   6  11
ATOM      7  C   UNL     1      -0.018   1.461   0.010  0.00  0.00    +0.134 C 
ATOM      8  N   UNL     1       0.002  -0.004   0.002  0.00  0.00    -0.274 N 
ATOM      9  C   UNL     1      -0.085  -0.806  -1.076  0.00  0.00    +0.312 C 
ATOM     10  O   UNL     1      -0.195  -0.397  -2.216  0.00  0.00    -0.252 OA
ATOM     11  N   UNL     1      -0.037  -2.104  -0.753  0.00  0.00    -0.215 N 
ATOM     12  C   UNL     1       0.087  -2.280   0.579  0.00  0.00    +0.247 C 
ATOM     13  O   UNL     1       0.157  -3.332   1.177  0.00  0.00    -0.273 OA
ATOM     14  C   UNL     1       0.128  -0.888   1.168  0.00  0.00    +0.115 C 
ATOM     15  C   UNL     1       1.454  -0.647   1.880  0.00  0.00    +0.035 C 
ATOM     16  C   UNL     1       1.483   0.779   2.437  0.00  0.00    +0.003 C 
ATOM     17  C   UNL     1       0.319   0.968   3.412  0.00  0.00    +0.000 C 
ATOM     18  C   UNL     1      -1.005   0.744   2.679  0.00  0.00    +0.003 C 
ATOM     19  C   UNL     1      -1.043  -0.682   2.123  0.00  0.00    +0.035 C 
ENDBRANCH   6  11
ENDBRANCH   2   6
ENDBRANCH   1   4
BRANCH   1  20
ATOM     20  C   UNL     1       2.729  -6.029  -4.552  0.00  0.00    +0.064 C 
BRANCH  20  21
ATOM     21  C   UNL     1       2.007  -5.556  -5.787  0.00  0.00    -0.033 C 
ATOM     22  C   UNL     1       0.863  -6.060  -6.303  0.00  0.00    -0.000 A 
ATOM     23  C   UNL     1      -0.018  -7.158  -5.885  0.00  0.00    +0.010 A 
ATOM     24  C   UNL     1      -1.118  -7.433  -6.622  0.00  0.00    +0.001 A 
ATOM     25  C   UNL     1      -1.437  -6.699  -7.772  0.00  0.00    +0.002 A 
ATOM     26  C   UNL     1      -0.678  -5.676  -8.219  0.00  0.00    +0.026 A 
ATOM     27  C   UNL     1       0.502  -5.299  -7.521  0.00  0.00    +0.043 A 
ATOM     28  N   UNL     1       1.390  -4.362  -7.749  0.00  0.00    -0.380 N 
ATOM     29  C   UNL     1       2.411  -4.418  -6.697  0.00  0.00    +0.145 C 
ATOM     30  H   UNL     1       1.372  -3.733  -8.488  0.00  0.00    +0.160 HD
ENDBRANCH  20  21
BRANCH  20  31
ATOM     31  C   UNL     1       4.123  -6.467  -4.923  0.00  0.00    -0.038 A 
ATOM     32  C   UNL     1       5.001  -5.565  -5.494  0.00  0.00    +0.008 A 
ATOM     33  C   UNL     1       6.279  -5.964  -5.834  0.00  0.00    +0.046 A 
ATOM     34  C   UNL     1       6.681  -7.271  -5.602  0.00  0.00    +0.120 A 
ATOM     35  C   UNL     1       5.798  -8.175  -5.029  0.00  0.00    +0.046 A 
ATOM     36  C   UNL     1       4.523  -7.769  -4.685  0.00  0.00    +0.008 A 
BRANCH  34  37
ATOM     37  O   UNL     1       7.938  -7.667  -5.937  0.00  0.00    -0.495 OA
ATOM     38  C   UNL     1       8.282  -9.028  -5.670  0.00  0.00    +0.277 C 
ENDBRANCH  34  37
ENDBRANCH  20  31
ENDBRANCH   1  20
TORSDOF 7
