REMARK  Name = ZINC09078980
REMARK  11 active torsions:
REMARK  status: ('A' for Active; 'I' for Inactive)
REMARK    1  A    between atoms: C_1  and  C_2
REMARK    2  A    between atoms: C_2  and  O_3
REMARK    3  A    between atoms: O_3  and  C_4
REMARK    4  A    between atoms: C_4  and  C_5
REMARK    5  A    between atoms: C_5  and  N_6
REMARK    6  A    between atoms: N_15  and  C_16
REMARK    7  A    between atoms: C_16  and  C_18
REMARK    8  A    between atoms: C_21  and  S_24
REMARK    9  A    between atoms: S_24  and  N_27
REMARK   10  A    between atoms: N_27  and  C_28
REMARK   11  A    between atoms: N_27  and  C_29
REMARK                            x       y       z     vdW  Elec       q    Type
REMARK                         _______ _______ _______ _____ _____    ______ ____
ROOT
ATOM      1  C   UNL     1      -6.978   1.764   3.519  0.00  0.00    +0.269 C 
ATOM      2  O   UNL     1      -7.246   2.424   4.508  0.00  0.00    -0.268 OA
ENDROOT
BRANCH   1  12
ATOM      3  N   UNL     1      -9.981  -0.231   3.410  0.00  0.00    -0.317 N 
ATOM      4  C   UNL     1     -11.114  -0.296   4.202  0.00  0.00    +0.093 A 
ATOM      5  C   UNL     1     -12.234  -1.133   4.055  0.00  0.00    +0.148 A 
ATOM      6  C   UNL     1     -13.286  -1.061   4.939  0.00  0.00    +0.040 A 
ATOM      7  C   UNL     1     -13.275  -0.166   5.996  0.00  0.00    +0.004 A 
ATOM      8  C   UNL     1     -12.185   0.668   6.164  0.00  0.00    +0.017 A 
ATOM      9  C   UNL     1     -11.132   0.598   5.281  0.00  0.00    +0.042 A 
ATOM     10  S   UNL     1      -9.585   1.454   5.127  0.00  0.00    -0.052 S 
ATOM     11  C   UNL     1      -8.988   0.647   3.713  0.00  0.00    +0.167 A 
ATOM     12  N   UNL     1      -7.839   0.844   3.075  0.00  0.00    -0.152 NA
ATOM     13  F   UNL     1     -12.278  -2.018   3.034  0.00  0.00    -0.203 F 
BRANCH   3  14
ATOM     14  C   UNL     1      -9.850  -1.112   2.247  0.00  0.00    +0.152 C 
BRANCH  14  15
ATOM     15  C   UNL     1      -9.174  -2.418   2.671  0.00  0.00    +0.181 C 
BRANCH  15  16
ATOM     16  O   UNL     1      -9.045  -3.277   1.536  0.00  0.00    -0.378 OA
BRANCH  16  18
ATOM     17  C   UNL     1      -8.338  -5.365   0.544  0.00  0.00    +0.034 C 
ATOM     18  C   UNL     1      -8.423  -4.531   1.824  0.00  0.00    +0.156 C 
ENDBRANCH  16  18
ENDBRANCH  15  16
ENDBRANCH  14  15
ENDBRANCH   3  14
ENDBRANCH   1  12
BRANCH   1  19
ATOM     19  C   UNL     1      -5.697   1.984   2.808  0.00  0.00    +0.039 A 
ATOM     20  C   UNL     1      -4.796   2.944   3.268  0.00  0.00    +0.015 A 
ATOM     21  C   UNL     1      -3.604   3.144   2.602  0.00  0.00    +0.029 A 
ATOM     22  C   UNL     1      -3.303   2.394   1.478  0.00  0.00    +0.109 A 
ATOM     23  C   UNL     1      -4.195   1.444   1.014  0.00  0.00    +0.029 A 
ATOM     24  C   UNL     1      -5.387   1.231   1.675  0.00  0.00    +0.015 A 
BRANCH  22  25
ATOM     25  S   UNL     1      -1.779   2.655   0.632  0.00  0.00    +0.074 S 
ATOM     26  O   UNL     1      -1.287   3.917   1.063  0.00  0.00    -0.150 OA
ATOM     27  O   UNL     1      -2.019   2.358  -0.736  0.00  0.00    -0.150 OA
BRANCH  25  28
ATOM     28  N   UNL     1      -0.711   1.516   1.185  0.00  0.00    -0.206 N 
ATOM     29  C   UNL     1      -0.704   0.174   0.598  0.00  0.00    +0.157 C 
BRANCH  28  30
ATOM     30  C   UNL     1       0.183   1.836   2.209  0.00  0.00    +0.051 A 
ATOM     31  C   UNL     1      -0.289   2.087   3.491  0.00  0.00    +0.025 A 
ATOM     32  C   UNL     1       0.598   2.398   4.503  0.00  0.00    +0.002 A 
ATOM     33  C   UNL     1       1.954   2.470   4.239  0.00  0.00    +0.000 A 
ATOM     34  C   UNL     1       2.426   2.225   2.962  0.00  0.00    +0.002 A 
ATOM     35  C   UNL     1       1.545   1.909   1.947  0.00  0.00    +0.025 A 
ENDBRANCH  28  30
ENDBRANCH  25  28
ENDBRANCH  22  25
ENDBRANCH   1  19
TORSDOF 9
