REMARK  Name = ZINC09878218
REMARK  9 active torsions:
REMARK  status: ('A' for Active; 'I' for Inactive)
REMARK    1  A    between atoms: C_4  and  N_7
REMARK    2  A    between atoms: C_8  and  C_30
REMARK    3  A    between atoms: C_11  and  S_12
REMARK    4  A    between atoms: S_12  and  C_13
REMARK    5  A    between atoms: C_13  and  C_14
REMARK    6  A    between atoms: N_16  and  C_17
REMARK    7  A    between atoms: C_22  and  O_23
REMARK    8  A    between atoms: O_23  and  C_24
REMARK    9  A    between atoms: C_30  and  N_65
REMARK                            x       y       z     vdW  Elec       q    Type
REMARK                         _______ _______ _______ _____ _____    ______ ____
ROOT
ATOM      1  N   UNL     1      -0.921  -0.580   3.897  0.00  0.00    -0.276 N 
ATOM      2  C   UNL     1       0.190  -1.129   4.481  0.00  0.00    +0.122 A 
ATOM      3  N   UNL     1       1.113  -1.202   3.564  0.00  0.00    -0.135 NA
ATOM      4  N   UNL     1       0.666  -0.746   2.448  0.00  0.00    -0.122 NA
ATOM      5  C   UNL     1      -0.576  -0.344   2.595  0.00  0.00    +0.197 A 
ENDROOT
BRANCH   1   9
ATOM      6  C   UNL     1      -4.591   0.208   5.712  0.00  0.00    +0.000 A 
ATOM      7  C   UNL     1      -4.509  -0.733   4.702  0.00  0.00    +0.002 A 
ATOM      8  C   UNL     1      -3.294  -0.996   4.098  0.00  0.00    +0.026 A 
ATOM      9  C   UNL     1      -2.156  -0.315   4.508  0.00  0.00    +0.050 A 
ATOM     10  C   UNL     1      -2.241   0.625   5.526  0.00  0.00    +0.026 A 
ATOM     11  C   UNL     1      -3.459   0.887   6.122  0.00  0.00    +0.002 A 
ENDBRANCH   1   9
BRANCH   5  12
ATOM     12  S   UNL     1      -1.604   0.357   1.348  0.00  0.00    -0.076 S 
BRANCH  12  13
ATOM     13  C   UNL     1      -0.457   0.339  -0.053  0.00  0.00    +0.173 C 
BRANCH  13  14
ATOM     14  C   UNL     1      -1.140   0.910  -1.268  0.00  0.00    +0.228 C 
ATOM     15  O   UNL     1      -2.288   1.293  -1.195  0.00  0.00    -0.275 OA
ATOM     16  N   UNL     1      -0.474   0.997  -2.437  0.00  0.00    -0.282 N 
ATOM     17  H   UNL     1       0.449   0.704  -2.492  0.00  0.00    +0.155 HD
BRANCH  16  18
ATOM     18  C   UNL     1      -1.115   1.510  -3.572  0.00  0.00    +0.076 A 
ATOM     19  C   UNL     1      -2.252   2.292  -3.435  0.00  0.00    +0.027 A 
ATOM     20  C   UNL     1      -2.882   2.797  -4.556  0.00  0.00    +0.002 A 
ATOM     21  C   UNL     1      -2.382   2.525  -5.817  0.00  0.00    +0.004 A 
ATOM     22  C   UNL     1      -1.249   1.746  -5.962  0.00  0.00    +0.048 A 
ATOM     23  C   UNL     1      -0.608   1.240  -4.842  0.00  0.00    +0.150 A 
BRANCH  23  24
ATOM     24  O   UNL     1       0.510   0.479  -4.982  0.00  0.00    -0.454 OA
BRANCH  24  25
ATOM     25  C   UNL     1       0.370  -0.872  -4.941  0.00  0.00    +0.129 A 
ATOM     26  C   UNL     1      -0.864  -1.435  -4.653  0.00  0.00    +0.046 A 
ATOM     27  C   UNL     1      -1.004  -2.809  -4.616  0.00  0.00    +0.004 A 
ATOM     28  C   UNL     1       0.087  -3.623  -4.857  0.00  0.00    +0.000 A 
ATOM     29  C   UNL     1       1.320  -3.064  -5.140  0.00  0.00    +0.004 A 
ATOM     30  C   UNL     1       1.464  -1.691  -5.183  0.00  0.00    +0.046 A 
ENDBRANCH  24  25
ENDBRANCH  23  24
ENDBRANCH  16  18
ENDBRANCH  13  14
ENDBRANCH  12  13
ENDBRANCH   5  12
BRANCH   2  31
ATOM     31  C   UNL     1       0.320  -1.568   5.916  0.00  0.00    -0.001 C 
BRANCH  31  37
ATOM     32  C   UNL     1      -1.510  -3.143   5.742  0.00  0.00    -0.078 C 
ATOM     33  C   UNL     1      -1.860  -4.633   5.733  0.00  0.00    -0.019 C 
ATOM     34  C   UNL     1      -1.526  -5.239   7.099  0.00  0.00    -0.004 C 
ATOM     35  C   UNL     1      -0.043  -5.009   7.402  0.00  0.00    -0.019 C 
ATOM     36  C   UNL     1       0.254  -3.508   7.363  0.00  0.00    -0.078 C 
ATOM     37  N   UNL     1      -0.066  -2.991   6.015  0.00  0.00    +0.384 N 
ATOM     38  H   UNL     1       0.463  -3.529   5.318  0.00  0.00    -0.081 HD
ENDBRANCH  31  37
ENDBRANCH   2  31
TORSDOF 9
