REMARK  Name = ZINC20113454
REMARK  5 active torsions:
REMARK  status: ('A' for Active; 'I' for Inactive)
REMARK    1  A    between atoms: C_3  and  C_7
REMARK    2  A    between atoms: N_13  and  C_14
REMARK    3  A    between atoms: C_14  and  N_15
REMARK    4  A    between atoms: N_23  and  N_24
REMARK    5  A    between atoms: C_25  and  C_27
REMARK                            x       y       z     vdW  Elec       q    Type
REMARK                         _______ _______ _______ _____ _____    ______ ____
ROOT
ATOM      1  N   UNL     1       4.651   0.320   3.078  0.00  0.00    -0.252 N 
ATOM      2  C   UNL     1       4.330  -1.033   3.045  0.00  0.00    +0.047 A 
ATOM      3  C   UNL     1       3.377  -1.739   2.318  0.00  0.00    +0.025 A 
ATOM      4  C   UNL     1       3.260  -3.106   2.473  0.00  0.00    +0.017 A 
ATOM      5  C   UNL     1       4.087  -3.790   3.350  0.00  0.00    +0.019 A 
ATOM      6  C   UNL     1       5.039  -3.105   4.079  0.00  0.00    +0.027 A 
ATOM      7  C   UNL     1       5.164  -1.728   3.930  0.00  0.00    +0.029 A 
ATOM      8  C   UNL     1       6.056  -0.718   4.544  0.00  0.00    +0.153 C 
ATOM      9  N   UNL     1       6.999  -0.921   5.434  0.00  0.00    -0.174 NA
ATOM     10  C   UNL     1       5.657   0.565   3.934  0.00  0.00    +0.272 C 
ATOM     11  O   UNL     1       6.151   1.653   4.166  0.00  0.00    -0.268 OA
ATOM     12 BR   UNL     1       3.910  -5.662   3.548  0.00  0.00    -0.050 Br
ENDROOT
BRANCH   9  13
ATOM     13  N   UNL     1       7.754   0.158   5.912  0.00  0.00    -0.200 N 
ATOM     14  C   UNL     1       8.723  -0.050   6.826  0.00  0.00    +0.299 C 
ATOM     15  O   UNL     1       8.941  -1.175   7.236  0.00  0.00    -0.265 OA
ATOM     16  H   UNL     1       7.581   1.054   5.585  0.00  0.00    +0.178 HD
BRANCH  14  17
ATOM     17  C   UNL     1       9.513   1.078   7.325  0.00  0.00    +0.191 A 
ATOM     18  C   UNL     1      10.523   1.007   8.243  0.00  0.00    +0.054 A 
ATOM     19  C   UNL     1      10.996   2.315   8.425  0.00  0.00    +0.042 A 
ATOM     20  C   UNL     1      10.264   3.118   7.620  0.00  0.00    +0.196 A 
ATOM     21  O   UNL     1       9.375   2.368   6.956  0.00  0.00    -0.458 OA
ENDBRANCH  14  17
ENDBRANCH   9  13
BRANCH   1  22
ATOM     22  C   UNL     1       3.980   1.347   2.277  0.00  0.00    +0.201 C 
BRANCH  22  28
ATOM     23  C   UNL     1       3.872   2.137  -0.009  0.00  0.00    +0.090 C 
ATOM     24  C   UNL     1       4.650   2.219  -1.324  0.00  0.00    +0.024 C 
ATOM     25  C   UNL     1       5.889   3.097  -1.125  0.00  0.00    +0.003 C 
ATOM     26  C   UNL     1       6.745   2.511   0.001  0.00  0.00    +0.015 C 
ATOM     27  C   UNL     1       5.906   2.420   1.278  0.00  0.00    +0.086 C 
ATOM     28  N   UNL     1       4.734   1.569   1.036  0.00  0.00    -0.279 NA
BRANCH  23  31
ATOM     29  C   UNL     1       0.307   0.962  -0.389  0.00  0.00    +0.020 A 
ATOM     30  C   UNL     1       1.391   1.809  -0.215  0.00  0.00    +0.008 A 
ATOM     31  C   UNL     1       2.663   1.258  -0.195  0.00  0.00    -0.012 A 
ATOM     32  C   UNL     1       2.807  -0.108  -0.348  0.00  0.00    +0.115 A 
ATOM     33  N   UNL     1       1.753  -0.883  -0.512  0.00  0.00    -0.263 NA
ATOM     34  C   UNL     1       0.529  -0.394  -0.536  0.00  0.00    +0.111 A 
ENDBRANCH  23  31
ENDBRANCH  22  28
ENDBRANCH   1  22
TORSDOF 5
