REMARK  Name = ZINC45499596
REMARK  8 active torsions:
REMARK  status: ('A' for Active; 'I' for Inactive)
REMARK    1  A    between atoms: C_1  and  C_2
REMARK    2  A    between atoms: C_2  and  C_3
REMARK    3  A    between atoms: C_8  and  N_9
REMARK    4  A    between atoms: C_19  and  S_20
REMARK    5  A    between atoms: S_20  and  C_21
REMARK    6  A    between atoms: C_21  and  C_22
REMARK    7  A    between atoms: C_28  and  C_34
REMARK    8  A    between atoms: C_29  and  C_33
REMARK                            x       y       z     vdW  Elec       q    Type
REMARK                         _______ _______ _______ _____ _____    ______ ____
ROOT
ATOM      1  N   UNL     1      -1.311  -0.338   2.505  0.00  0.00    -0.255 N 
ATOM      2  C   UNL     1      -2.235  -1.295   2.259  0.00  0.00    +0.267 A 
ATOM      3  O   UNL     1      -1.906  -2.430   1.967  0.00  0.00    -0.267 OA
ATOM      4  C   UNL     1      -3.650  -0.914   2.356  0.00  0.00    +0.065 A 
ATOM      5  C   UNL     1      -4.677  -1.827   2.122  0.00  0.00    +0.015 A 
ATOM      6  C   UNL     1      -5.979  -1.420   2.227  0.00  0.00    +0.001 A 
ATOM      7  C   UNL     1      -6.287  -0.108   2.564  0.00  0.00    +0.002 A 
ATOM      8  C   UNL     1      -5.300   0.808   2.799  0.00  0.00    +0.028 A 
ATOM      9  C   UNL     1      -3.960   0.422   2.699  0.00  0.00    +0.079 A 
ATOM     10  N   UNL     1      -2.952   1.296   2.924  0.00  0.00    -0.223 NA
ATOM     11  C   UNL     1      -1.696   0.931   2.837  0.00  0.00    +0.177 A 
ENDROOT
BRANCH   1  17
ATOM     12  C   UNL     1       0.731  -0.503   1.223  0.00  0.00    -0.024 A 
ATOM     13  C   UNL     1       2.076  -0.808   1.149  0.00  0.00    +0.005 A 
ATOM     14  C   UNL     1       2.746  -1.266   2.268  0.00  0.00    +0.000 A 
ATOM     15  C   UNL     1       2.071  -1.421   3.466  0.00  0.00    +0.002 A 
ATOM     16  C   UNL     1       0.726  -1.118   3.546  0.00  0.00    +0.026 A 
ATOM     17  C   UNL     1       0.052  -0.652   2.425  0.00  0.00    +0.055 A 
BRANCH  12  19
ATOM     18  C   UNL     1      -0.019   1.526   0.010  0.00  0.00    +0.009 C 
ATOM     19  C   UNL     1       0.002  -0.004   0.002  0.00  0.00    +0.034 C 
ENDBRANCH  12  19
ENDBRANCH   1  17
BRANCH  11  20
ATOM     20  S   UNL     1      -0.447   2.133   3.154  0.00  0.00    -0.079 S 
BRANCH  20  21
ATOM     21  C   UNL     1      -1.378   3.640   3.547  0.00  0.00    +0.151 C 
BRANCH  21  22
ATOM     22  C   UNL     1      -0.416   4.761   3.843  0.00  0.00    +0.121 A 
ATOM     23  N   UNL     1      -0.901   5.987   4.169  0.00  0.00    -0.310 N 
ATOM     24  H   UNL     1      -1.861   6.124   4.207  0.00  0.00    +0.170 HD
ATOM     25  C   UNL     1      -0.077   7.016   4.441  0.00  0.00    +0.260 A 
ATOM     26  O   UNL     1      -0.529   8.110   4.733  0.00  0.00    -0.267 OA
ATOM     27  C   UNL     1       1.339   6.805   4.383  0.00  0.00    +0.075 A 
ATOM     28  C   UNL     1       2.420   7.741   4.630  0.00  0.00    -0.026 A 
ATOM     29  C   UNL     1       3.690   7.320   4.516  0.00  0.00    -0.008 A 
ATOM     30  S   UNL     1       3.517   5.605   4.061  0.00  0.00    -0.073 S 
ATOM     31  C   UNL     1       1.746   5.504   4.037  0.00  0.00    +0.116 A 
ATOM     32  N   UNL     1       0.869   4.536   3.787  0.00  0.00    -0.226 NA
ATOM     33  C   UNL     1       4.957   8.108   4.724  0.00  0.00    +0.052 C 
ATOM     34  C   UNL     1       2.121   9.168   5.010  0.00  0.00    +0.045 C 
ENDBRANCH  21  22
ENDBRANCH  20  21
ENDBRANCH  11  20
TORSDOF 5
