REMARK  Name = ZINC36490953
REMARK  7 active torsions:
REMARK  status: ('A' for Active; 'I' for Inactive)
REMARK    1  A    between atoms: C_3  and  C_10
REMARK    2  A    between atoms: C_5  and  N_7
REMARK    3  A    between atoms: N_12  and  C_13
REMARK    4  A    between atoms: N_12  and  C_19
REMARK    5  A    between atoms: C_19  and  C_21
REMARK    6  A    between atoms: C_19  and  C_27
REMARK    7  A    between atoms: N_29  and  C_30
REMARK                            x       y       z     vdW  Elec       q    Type
REMARK                         _______ _______ _______ _____ _____    ______ ____
ROOT
ATOM      1  C   UNL     1       3.353   3.115  -1.015  0.00  0.00    +0.248 C 
ATOM      2  O   UNL     1       4.153   2.205  -1.113  0.00  0.00    -0.270 OA
ATOM      3  N   UNL     1       3.593   4.137  -0.170  0.00  0.00    -0.283 N 
ENDROOT
BRANCH   1   6
ATOM      4  C   UNL     1      -0.205   3.662  -2.088  0.00  0.00    +0.003 A 
ATOM      5  C   UNL     1       0.946   3.678  -1.327  0.00  0.00    +0.013 A 
ATOM      6  C   UNL     1       2.115   3.101  -1.825  0.00  0.00    +0.039 A 
ATOM      7  C   UNL     1       2.112   2.510  -3.090  0.00  0.00    +0.045 A 
ATOM      8  C   UNL     1       0.954   2.501  -3.840  0.00  0.00    +0.127 A 
ATOM      9  C   UNL     1      -0.202   3.075  -3.341  0.00  0.00    +0.033 A 
BRANCH   8  10
ATOM     10  N   UNL     1       0.949   1.875  -5.181  0.00  0.00    +0.056 N 
ATOM     11  O   UNL     1       1.958   1.373  -5.618  0.00  0.00    -0.126 OA
ATOM     12  O   UNL     1      -0.065   1.866  -5.839  0.00  0.00    -0.126 OA
ENDBRANCH   8  10
ENDBRANCH   1   6
BRANCH   3  13
ATOM     13  C   UNL     1       2.584   5.181   0.023  0.00  0.00    +0.077 C 
ATOM     14  C   UNL     1       3.267   6.549   0.064  0.00  0.00    +0.022 C 
ATOM     15  C   UNL     1       2.213   7.639   0.266  0.00  0.00    +0.002 C 
ATOM     16  C   UNL     1       1.475   7.398   1.585  0.00  0.00    +0.000 C 
ATOM     17  C   UNL     1       0.792   6.029   1.544  0.00  0.00    +0.002 C 
ATOM     18  C   UNL     1       1.847   4.939   1.342  0.00  0.00    +0.022 C 
ENDBRANCH   3  13
BRANCH   3  19
ATOM     19  C   UNL     1       4.864   4.203   0.555  0.00  0.00    +0.166 C 
BRANCH  19  20
ATOM     20  C   UNL     1       4.610   4.675   1.988  0.00  0.00    +0.019 C 
ATOM     21  C   UNL     1       5.906   5.234   2.579  0.00  0.00    +0.006 C 
ATOM     22  C   UNL     1       5.651   5.706   4.012  0.00  0.00    +0.000 C 
ATOM     23  C   UNL     1       5.171   4.526   4.860  0.00  0.00    +0.000 C 
ATOM     24  C   UNL     1       3.875   3.967   4.269  0.00  0.00    +0.000 C 
ATOM     25  C   UNL     1       4.130   3.495   2.836  0.00  0.00    +0.006 C 
ENDBRANCH  19  20
BRANCH  19  26
ATOM     26  C   UNL     1       5.787   5.173  -0.136  0.00  0.00    +0.234 C 
ATOM     27  O   UNL     1       5.448   5.697  -1.176  0.00  0.00    -0.274 OA
ATOM     28  N   UNL     1       6.990   5.459   0.401  0.00  0.00    -0.311 N 
ATOM     29  H   UNL     1       7.296   4.980   1.186  0.00  0.00    +0.149 HD
BRANCH  28  30
ATOM     30  C   UNL     1       7.834   6.494  -0.202  0.00  0.00    +0.073 C 
ATOM     31  C   UNL     1       8.652   5.884  -1.342  0.00  0.00    +0.022 C 
ATOM     32  C   UNL     1       9.534   6.964  -1.972  0.00  0.00    +0.002 C 
ATOM     33  C   UNL     1      10.480   7.531  -0.912  0.00  0.00    +0.000 C 
ATOM     34  C   UNL     1       9.663   8.141   0.229  0.00  0.00    +0.002 C 
ATOM     35  C   UNL     1       8.781   7.061   0.858  0.00  0.00    +0.022 C 
ENDBRANCH  28  30
ENDBRANCH  19  26
ENDBRANCH   3  19
TORSDOF 7
