REMARK  Name = ZINC06142302
REMARK  16 active torsions:
REMARK  status: ('A' for Active; 'I' for Inactive)
REMARK    1  A    between atoms: C_1  and  C_2
REMARK    2  A    between atoms: C_6  and  C_41
REMARK    3  A    between atoms: C_8  and  O_11
REMARK    4  A    between atoms: O_11  and  C_12
REMARK    5  A    between atoms: C_12  and  C_14
REMARK    6  A    between atoms: C_14  and  N_15
REMARK    7  A    between atoms: N_17  and  C_24
REMARK    8  A    between atoms: C_24  and  C_25
REMARK    9  A    between atoms: C_25  and  O_27
REMARK   10  A    between atoms: O_27  and  C_28
REMARK   11  A    between atoms: C_31  and  C_40
REMARK   12  A    between atoms: C_35  and  C_37
REMARK   13  A    between atoms: C_37  and  C_38
REMARK   14  A    between atoms: C_37  and  C_39
REMARK   15  A    between atoms: C_41  and  C_42
REMARK   16  A    between atoms: C_41  and  C_43
REMARK                            x       y       z     vdW  Elec       q    Type
REMARK                         _______ _______ _______ _____ _____    ______ ____
ROOT
ATOM      1  N   UNL     1       4.865   4.690   0.005  0.00  0.00    -0.321 N 
ATOM      2  C   UNL     1       3.653   4.332   0.507  0.00  0.00    +0.178 A 
ATOM      3  N   UNL     1       2.842   4.019  -0.461  0.00  0.00    -0.321 N 
ATOM      4  C   UNL     1       3.477   4.163  -1.652  0.00  0.00    +0.067 A 
ATOM      5  C   UNL     1       4.784   4.596  -1.370  0.00  0.00    +0.067 A 
ATOM      6  C   UNL     1       5.674   4.829  -2.409  0.00  0.00    +0.028 A 
ATOM      7  C   UNL     1       5.268   4.634  -3.713  0.00  0.00    +0.002 A 
ATOM      8  C   UNL     1       3.978   4.207  -3.991  0.00  0.00    +0.002 A 
ATOM      9  C   UNL     1       3.088   3.973  -2.981  0.00  0.00    +0.028 A 
ENDROOT
BRANCH   1  10
ATOM     10  C   UNL     1       6.039   5.103   0.779  0.00  0.00    +0.243 C 
BRANCH  10  11
ATOM     11  C   UNL     1       6.074   6.607   0.873  0.00  0.00    +0.327 C 
ATOM     12  O   UNL     1       5.208   7.266   0.347  0.00  0.00    -0.249 OA
BRANCH  11  13
ATOM     13  O   UNL     1       7.067   7.215   1.540  0.00  0.00    -0.460 OA
BRANCH  13  19
ATOM     14  C   UNL     1      10.027   9.317  -0.748  0.00  0.00    +0.007 C 
ATOM     15  C   UNL     1       9.257   8.750   0.447  0.00  0.00    -0.011 C 
ATOM     16  C   UNL     1       9.908   9.230   1.746  0.00  0.00    +0.004 C 
ATOM     17  C   UNL     1       9.139   8.663   2.941  0.00  0.00    +0.007 C 
ATOM     18  C   UNL     1       7.688   9.145   2.889  0.00  0.00    +0.032 C 
ATOM     19  C   UNL     1       7.037   8.665   1.590  0.00  0.00    +0.180 C 
ATOM     20  C   UNL     1       7.806   9.232   0.395  0.00  0.00    +0.048 C 
BRANCH  18  21
ATOM     21  C   UNL     1       6.918   8.578   4.084  0.00  0.00    -0.011 C 
ATOM     22  C   UNL     1       7.569   9.058   5.383  0.00  0.00    +0.007 C 
ATOM     23  C   UNL     1       5.467   9.060   4.032  0.00  0.00    +0.007 C 
ENDBRANCH  18  21
ENDBRANCH  13  19
ENDBRANCH  11  13
ENDBRANCH  10  11
ENDBRANCH   1  10
BRANCH   3  24
ATOM     24  C   UNL     1       1.454   3.584  -0.291  0.00  0.00    +0.243 C 
BRANCH  24  25
ATOM     25  C   UNL     1       1.396   2.078  -0.290  0.00  0.00    +0.327 C 
ATOM     26  O   UNL     1       2.410   1.434  -0.417  0.00  0.00    -0.249 OA
BRANCH  25  27
ATOM     27  O   UNL     1       0.217   1.452  -0.147  0.00  0.00    -0.460 OA
BRANCH  27  28
ATOM     28  C   UNL     1       0.237   0.000  -0.155  0.00  0.00    +0.180 C 
ATOM     29  C   UNL     1       0.067  -0.504  -1.589  0.00  0.00    +0.048 C 
ATOM     30  C   UNL     1      -1.268  -0.009  -2.150  0.00  0.00    -0.011 C 
ATOM     31  C   UNL     1      -2.412  -0.540  -1.284  0.00  0.00    +0.004 C 
ATOM     32  C   UNL     1      -2.243  -0.035   0.150  0.00  0.00    +0.007 C 
ATOM     33  C   UNL     1      -0.908  -0.530   0.711  0.00  0.00    +0.032 C 
ATOM     34  C   UNL     1      -1.288   1.520  -2.141  0.00  0.00    +0.007 C 
BRANCH  33  35
ATOM     35  C   UNL     1      -0.738  -0.026   2.145  0.00  0.00    -0.011 C 
ATOM     36  C   UNL     1      -1.883  -0.556   3.011  0.00  0.00    +0.007 C 
ATOM     37  C   UNL     1       0.597  -0.521   2.705  0.00  0.00    +0.007 C 
ENDBRANCH  33  35
ENDBRANCH  27  28
ENDBRANCH  25  27
ENDBRANCH  24  25
ENDBRANCH   3  24
TORSDOF 10
