REMARK  Name = ZINC35270668
REMARK  17 active torsions:
REMARK  status: ('A' for Active; 'I' for Inactive)
REMARK    1  A    between atoms: C_1  and  C_2
REMARK    2  A    between atoms: C_2  and  C_4
REMARK    3  A    between atoms: C_2  and  O_34
REMARK    4  A    between atoms: C_4  and  C_6
REMARK    5  A    between atoms: C_4  and  O_33
REMARK    6  A    between atoms: C_7  and  C_8
REMARK    7  A    between atoms: C_9  and  C_10
REMARK    8  A    between atoms: C_10  and  O_12
REMARK    9  A    between atoms: O_12  and  C_13
REMARK   10  A    between atoms: C_16  and  C_31
REMARK   11  A    between atoms: C_17  and  C_28
REMARK   12  A    between atoms: C_17  and  O_30
REMARK   13  A    between atoms: C_18  and  C_27
REMARK   14  A    between atoms: C_21  and  C_25
REMARK   15  A    between atoms: C_21  and  C_26
REMARK   16  A    between atoms: C_28  and  O_29
REMARK   17  A    between atoms: C_31  and  O_32
REMARK                            x       y       z     vdW  Elec       q    Type
REMARK                         _______ _______ _______ _____ _____    ______ ____
ROOT
ATOM      1  C   UNL     1       3.917  -8.530   1.442  0.00  0.00    +0.204 C 
ATOM      2  C   UNL     1       3.631  -8.934   2.862  0.00  0.00    +0.022 C 
ATOM      3  C   UNL     1       4.430  -9.650   3.580  0.00  0.00    -0.011 C 
ATOM      4  C   UNL     1       5.743 -10.192   3.103  0.00  0.00    +0.118 C 
ATOM      5  C   UNL     1       6.233  -9.436   1.851  0.00  0.00    +0.010 C 
ATOM      6  C   UNL     1       5.071  -9.344   0.872  0.00  0.00    +0.048 C 
ATOM      7  C   UNL     1       5.440  -8.935  -0.540  0.00  0.00    -0.028 C 
ATOM      8  C   UNL     1       6.588  -9.808  -1.067  0.00  0.00    +0.007 C 
ATOM      9  C   UNL     1       7.781  -9.719  -0.119  0.00  0.00    +0.001 C 
ATOM     10  C   UNL     1       7.380 -10.256   1.251  0.00  0.00    +0.010 C 
ATOM     11  C   UNL     1       4.230  -9.193  -1.463  0.00  0.00    +0.011 C 
ATOM     12  C   UNL     1       5.837  -7.471  -0.694  0.00  0.00    +0.011 C 
ATOM     13  C   UNL     1       6.757  -8.070   2.296  0.00  0.00    +0.015 C 
ENDROOT
BRANCH   4  14
ATOM     14  O   UNL     1       5.591 -11.577   2.794  0.00  0.00    -0.381 OA
ATOM     15  H   UNL     1       5.311 -12.119   3.544  0.00  0.00    +0.211 HD
ENDBRANCH   4  14
BRANCH   1  16
ATOM     16  O   UNL     1       4.145  -7.125   1.423  0.00  0.00    -0.454 OA
BRANCH  16  17
ATOM     17  C   UNL     1       3.059  -6.329   1.332  0.00  0.00    +0.332 C 
ATOM     18  O   UNL     1       1.948  -6.821   1.270  0.00  0.00    -0.246 OA
BRANCH  17  20
ATOM     19  C   UNL     1       2.125  -4.122   1.216  0.00  0.00    +0.007 C 
ATOM     20  C   UNL     1       3.214  -4.920   1.308  0.00  0.00    +0.091 C 
BRANCH  19  22
ATOM     21  C   UNL     1       1.211  -1.880   1.102  0.00  0.00    +0.006 C 
ATOM     22  C   UNL     1       2.284  -2.668   1.192  0.00  0.00    -0.001 C 
BRANCH  21  23
ATOM     23  C   UNL     1       1.375  -0.383   1.077  0.00  0.00    +0.166 C 
BRANCH  23  25
ATOM     24  C   UNL     1       0.850   1.701  -0.199  0.00  0.00    +0.040 C 
ATOM     25  C   UNL     1       0.797   0.172  -0.227  0.00  0.00    +0.144 C 
BRANCH  25  26
ATOM     26  O   UNL     1      -0.559  -0.256  -0.367  0.00  0.00    -0.389 OA
ATOM     27  H   UNL     1      -1.140   0.037   0.349  0.00  0.00    +0.210 HD
ENDBRANCH  25  26
ENDBRANCH  23  25
BRANCH  23  28
ATOM     28  O   UNL     1       0.681   0.191   2.186  0.00  0.00    -0.385 OA
ATOM     29  H   UNL     1      -0.269   0.008   2.194  0.00  0.00    +0.210 HD
ENDBRANCH  23  28
ENDBRANCH  21  23
ENDBRANCH  19  22
ENDBRANCH  17  20
ENDBRANCH  16  17
ENDBRANCH   1  16
BRANCH   4  30
ATOM     30  C   UNL     1       6.777 -10.032   4.220  0.00  0.00    +0.195 C 
BRANCH  30  31
ATOM     31  O   UNL     1       6.347 -10.755   5.375  0.00  0.00    -0.392 OA
ATOM     32  H   UNL     1       6.956 -10.698   6.124  0.00  0.00    +0.210 HD
ENDBRANCH  30  31
ENDBRANCH   4  30
BRANCH   3  33
ATOM     33  C   UNL     1       4.016  -9.961   4.997  0.00  0.00    +0.189 C 
BRANCH  33  34
ATOM     34  O   UNL     1       2.746  -9.362   5.265  0.00  0.00    -0.391 OA
ATOM     35  H   UNL     1       2.417  -9.522   6.160  0.00  0.00    +0.210 HD
ENDBRANCH  33  34
ENDBRANCH   3  33
TORSDOF 13
