REMARK  Name = ZINC25095856
REMARK  9 active torsions:
REMARK  status: ('A' for Active; 'I' for Inactive)
REMARK    1  A    between atoms: C_1  and  O_2
REMARK    2  A    between atoms: O_2  and  C_3
REMARK    3  A    between atoms: C_3  and  C_4
REMARK    4  A    between atoms: C_4  and  C_5
REMARK    5  A    between atoms: C_5  and  N_6
REMARK    6  A    between atoms: C_16  and  S_17
REMARK    7  A    between atoms: S_17  and  C_18
REMARK    8  A    between atoms: C_18  and  C_19
REMARK    9  A    between atoms: N_21  and  C_22
REMARK                            x       y       z     vdW  Elec       q    Type
REMARK                         _______ _______ _______ _____ _____    ______ ____
ROOT
ATOM      1  C   UNL     1      -4.888   0.917   0.243  0.00  0.00    +0.173 C 
ENDROOT
BRANCH   1   2
ATOM      2  C   UNL     1      -3.601   1.693   0.129  0.00  0.00    +0.227 C 
ATOM      3  O   UNL     1      -3.621   2.905   0.137  0.00  0.00    -0.275 OA
ATOM      4  N   UNL     1      -2.428   1.038   0.018  0.00  0.00    -0.285 N 
ATOM      5  H   UNL     1      -2.416  -0.057  -0.077  0.00  0.00    +0.155 HD
BRANCH   4   6
ATOM      6  C   UNL     1      -1.224   1.754   0.023  0.00  0.00    +0.037 A 
ATOM      7  C   UNL     1      -0.148   1.309  -0.734  0.00  0.00    +0.027 A 
ATOM      8  C   UNL     1       1.043   2.009  -0.725  0.00  0.00    +0.051 A 
ATOM      9  C   UNL     1       1.165   3.160   0.034  0.00  0.00    +0.167 A 
ATOM     10  C   UNL     1       0.084   3.614   0.790  0.00  0.00    +0.169 A 
ATOM     11  C   UNL     1      -1.108   2.912   0.781  0.00  0.00    +0.072 A 
ATOM     12  O   UNL     1       0.465   4.759   1.440  0.00  0.00    -0.447 OA
ATOM     13  C   UNL     1       1.581   5.232   0.672  0.00  0.00    +0.254 C 
ATOM     14  O   UNL     1       2.212   4.027   0.216  0.00  0.00    -0.448 OA
ATOM     15  C   UNL     1       2.533   6.069   1.533  0.00  0.00    +0.093 C 
ATOM     16  C   UNL     1       3.061   7.155   0.559  0.00  0.00    +0.008 C 
ATOM     17  C   UNL     1       1.818   7.473  -0.310  0.00  0.00    +0.008 C 
ATOM     18  C   UNL     1       1.126   6.104  -0.498  0.00  0.00    +0.093 C 
ENDBRANCH   4   6
ENDBRANCH   1   2
BRANCH   1  19
ATOM     19  S   UNL     1      -6.277   2.070   0.376  0.00  0.00    -0.078 S 
BRANCH  19  30
ATOM     20  N   UNL     1      -8.882   1.419   0.617  0.00  0.00    -0.287 N 
ATOM     21  C   UNL     1      -9.938   0.578   0.704  0.00  0.00    +0.262 A 
ATOM     22  O   UNL     1     -11.075   1.000   0.811  0.00  0.00    -0.267 OA
ATOM     23  C   UNL     1      -9.661  -0.865   0.672  0.00  0.00    +0.065 A 
ATOM     24  C   UNL     1     -10.679  -1.813   0.760  0.00  0.00    +0.015 A 
ATOM     25  C   UNL     1     -10.366  -3.143   0.725  0.00  0.00    +0.001 A 
ATOM     26  C   UNL     1      -9.046  -3.559   0.601  0.00  0.00    +0.002 A 
ATOM     27  C   UNL     1      -8.029  -2.651   0.513  0.00  0.00    +0.028 A 
ATOM     28  C   UNL     1      -8.316  -1.283   0.546  0.00  0.00    +0.079 A 
ATOM     29  N   UNL     1      -7.343  -0.354   0.462  0.00  0.00    -0.223 NA
ATOM     30  C   UNL     1      -7.613   0.928   0.493  0.00  0.00    +0.173 A 
BRANCH  20  31
ATOM     31  C   UNL     1      -9.100   2.868   0.650  0.00  0.00    +0.129 C 
BRANCH  31  32
ATOM     32  C   UNL     1      -9.312   3.384  -0.774  0.00  0.00    +0.050 C 
BRANCH  32  33
ATOM     33  C   UNL     1      -9.541   4.896  -0.740  0.00  0.00    +0.161 C 
BRANCH  33  35
ATOM     34  C   UNL     1      -9.963   6.788  -2.150  0.00  0.00    +0.193 C 
ATOM     35  O   UNL     1      -9.739   5.379  -2.070  0.00  0.00    -0.383 OA
ENDBRANCH  33  35
ENDBRANCH  32  33
ENDBRANCH  31  32
ENDBRANCH  20  31
ENDBRANCH  19  30
ENDBRANCH   1  19
TORSDOF 8
