REMARK  Name = ZINC42009823
REMARK  4 active torsions:
REMARK  status: ('A' for Active; 'I' for Inactive)
REMARK    1  A    between atoms: C_3  and  N_16
REMARK    2  A    between atoms: C_6  and  S_7
REMARK    3  A    between atoms: S_7  and  C_8
REMARK    4  A    between atoms: C_8  and  C_13
REMARK                            x       y       z     vdW  Elec       q    Type
REMARK                         _______ _______ _______ _____ _____    ______ ____
ROOT
ATOM      1  C   UNL     1      -0.017   1.390   0.010  0.00  0.00    +0.019 A 
ATOM      2  C   UNL     1       1.190   2.065   0.002  0.00  0.00    +0.044 A 
ATOM      3  C   UNL     1       2.374   1.337  -0.013  0.00  0.00    +0.116 A 
ATOM      4  N   UNL     1       2.355   0.013  -0.020  0.00  0.00    -0.240 NA
ATOM      5  C   UNL     1       1.222  -0.664  -0.013  0.00  0.00    +0.127 A 
ATOM      6  C   UNL     1       0.002  -0.004   0.002  0.00  0.00    +0.027 A 
ENDROOT
BRANCH   3   7
ATOM      7  N   UNL     1       3.596   2.007  -0.022  0.00  0.00    -0.343 N 
ATOM      8  H   UNL     1       3.616   2.977  -0.017  0.00  0.00    +0.144 HD
ATOM      9  H   UNL     1       4.425   1.505  -0.033  0.00  0.00    +0.144 HD
ENDBRANCH   3   7
BRANCH   6  10
ATOM     10  S   UNL     1      -1.505  -0.917   0.012  0.00  0.00    -0.105 S 
BRANCH  10  11
ATOM     11  C   UNL     1      -0.969  -2.650  -0.003  0.00  0.00    +0.131 C 
ATOM     12  C   UNL     1      -2.202  -3.542  -0.132  0.00  0.00    +0.041 C 
ATOM     13  C   UNL     1      -1.940  -4.923   0.533  0.00  0.00    +0.071 C 
ATOM     14  S   UNL     1      -0.994  -4.373   2.021  0.00  0.00    -0.159 S 
ATOM     15  C   UNL     1      -0.144  -2.922   1.270  0.00  0.00    +0.098 C 
BRANCH  11  16
ATOM     16  C   UNL     1      -0.088  -2.871  -1.205  0.00  0.00    +0.373 C 
ATOM     17  O   UNL     1       0.136  -1.952  -1.974  0.00  0.00    -0.245 OA
ATOM     18  O   UNL     1       0.399  -3.969  -1.410  0.00  0.00    -0.245 OA
ENDBRANCH  11  16
ENDBRANCH  10  11
ENDBRANCH   6  10
TORSDOF 4
