REMARK  Name = ZINC38739955
REMARK  6 active torsions:
REMARK  status: ('A' for Active; 'I' for Inactive)
REMARK    1  A    between atoms: C_1  and  C_2
REMARK    2  A    between atoms: C_9  and  C_10
REMARK    3  A    between atoms: C_9  and  C_11
REMARK    4  A    between atoms: C_13  and  N_15
REMARK    5  A    between atoms: C_16  and  C_18
REMARK    6  A    between atoms: C_24  and  C_26
REMARK                            x       y       z     vdW  Elec       q    Type
REMARK                         _______ _______ _______ _____ _____    ______ ____
ROOT
ATOM      1  C   UNL     1       4.673  -0.672   0.938  0.00  0.00    +0.087 C 
ATOM      2  C   UNL     1       5.071   0.518   0.063  0.00  0.00    +0.013 C 
ATOM      3  C   UNL     1       6.529   0.364  -0.375  0.00  0.00    +0.001 C 
ATOM      4  C   UNL     1       7.430   0.316   0.861  0.00  0.00    +0.001 C 
ATOM      5  C   UNL     1       7.032  -0.875   1.736  0.00  0.00    +0.013 C 
ATOM      6  C   UNL     1       5.574  -0.721   2.173  0.00  0.00    +0.087 C 
ENDROOT
BRANCH   6   7
ATOM      7  C   UNL     1       5.417   0.555   2.960  0.00  0.00    +0.219 C 
ATOM      8  O   UNL     1       5.041   1.566   2.406  0.00  0.00    -0.275 OA
ATOM      9  N   UNL     1       5.696   0.573   4.278  0.00  0.00    -0.298 N 
ATOM     10  C   UNL     1       6.269  -0.609   4.938  0.00  0.00    +0.126 C 
ATOM     11  C   UNL     1       7.567  -0.196   5.641  0.00  0.00    +0.125 C 
ATOM     12  N   UNL     1       7.304   1.005   6.446  0.00  0.00    -0.314 N 
ATOM     13  C   UNL     1       6.731   2.187   5.786  0.00  0.00    +0.125 C 
ATOM     14  C   UNL     1       5.438   1.776   5.081  0.00  0.00    +0.126 C 
ATOM     15  C   UNL     1       7.591   1.023   7.806  0.00  0.00    +0.099 A 
ATOM     16  C   UNL     1       8.017  -0.142   8.436  0.00  0.00    +0.042 A 
ATOM     17  C   UNL     1       8.300  -0.109   9.789  0.00  0.00    +0.005 A 
ATOM     18  C   UNL     1       8.146   1.092  10.470  0.00  0.00    +0.018 A 
ATOM     19  C   UNL     1       7.720   2.209   9.781  0.00  0.00    +0.084 A 
ATOM     20  N   UNL     1       7.463   2.151   8.488  0.00  0.00    -0.350 N 
ATOM     21  H   UNL     1       7.168   2.952   8.028  0.00  0.00    +0.166 HD
ENDBRANCH   6   7
BRANCH   1  23
ATOM     22  N   UNL     1       2.259  -0.456   0.444  0.00  0.00    -0.312 N 
ATOM     23  C   UNL     1       3.237  -0.521   1.369  0.00  0.00    +0.217 C 
ATOM     24  O   UNL     1       2.961  -0.458   2.548  0.00  0.00    -0.275 OA
ATOM     25  H   UNL     1       2.480  -0.506  -0.500  0.00  0.00    +0.149 HD
BRANCH  22  35
ATOM     26  C   UNL     1       0.063   1.870  -0.110  0.00  0.00    +0.009 C 
ATOM     27  C   UNL     1       0.068   0.346  -0.265  0.00  0.00    +0.010 C 
ATOM     28  C   UNL     1      -1.358  -0.194  -0.369  0.00  0.00    -0.000 C 
ATOM     29  C   UNL     1      -1.310  -1.705  -0.705  0.00  0.00    +0.008 C 
ATOM     30  C   UNL     1      -1.144  -1.880   0.819  0.00  0.00    -0.003 C 
ATOM     31  C   UNL     1      -2.009  -0.619   0.948  0.00  0.00    -0.029 C 
ATOM     32  C   UNL     1      -1.730   0.245   2.174  0.00  0.00    +0.011 C 
ATOM     33  C   UNL     1      -3.518  -0.909   0.813  0.00  0.00    +0.011 C 
ATOM     34  C   UNL     1       0.309  -1.679   1.247  0.00  0.00    +0.026 C 
ATOM     35  C   UNL     1       0.853  -0.307   0.866  0.00  0.00    +0.076 C 
ENDBRANCH  22  35
ENDBRANCH   1  23
TORSDOF 3
