REMARK  Name = ZINC08854748
REMARK  7 active torsions:
REMARK  status: ('A' for Active; 'I' for Inactive)
REMARK    1  A    between atoms: C_1  and  C_2
REMARK    2  A    between atoms: C_2  and  O_3
REMARK    3  A    between atoms: O_3  and  C_4
REMARK    4  A    between atoms: C_7  and  N_10
REMARK    5  A    between atoms: C_13  and  C_36
REMARK    6  A    between atoms: N_23  and  C_26
REMARK    7  A    between atoms: C_26  and  N_65
REMARK                            x       y       z     vdW  Elec       q    Type
REMARK                         _______ _______ _______ _____ _____    ______ ____
ROOT
ATOM      1  N   UNL     1       4.914   8.598  -0.179  0.00  0.00    -0.243 N 
ATOM      2  C   UNL     1       4.450   9.836  -0.015  0.00  0.00    +0.234 C 
ATOM      3  O   UNL     1       5.179  10.800  -0.118  0.00  0.00    -0.274 OA
ATOM      4  C   UNL     1       2.970   9.995   0.305  0.00  0.00    +0.132 C 
ATOM      5  S   UNL     1       2.352   8.307  -0.120  0.00  0.00    -0.108 S 
ATOM      6  C   UNL     1       3.987   7.477  -0.056  0.00  0.00    +0.193 C 
ATOM      7  C   UNL     1       4.148   6.707   1.217  0.00  0.00    +0.017 A 
ATOM      8  C   UNL     1       4.128   7.050   2.551  0.00  0.00    +0.009 A 
ATOM      9  C   UNL     1       4.316   6.080   3.519  0.00  0.00    +0.000 A 
ATOM     10  C   UNL     1       4.526   4.765   3.145  0.00  0.00    +0.002 A 
ATOM     11  C   UNL     1       4.547   4.416   1.811  0.00  0.00    +0.024 A 
ATOM     12  C   UNL     1       4.357   5.385   0.829  0.00  0.00    +0.041 A 
ATOM     13  N   UNL     1       4.334   5.280  -0.564  0.00  0.00    -0.285 N 
ATOM     14  C   UNL     1       4.126   6.473  -1.160  0.00  0.00    +0.257 C 
ATOM     15  O   UNL     1       4.061   6.689  -2.352  0.00  0.00    -0.272 OA
ATOM     16  C   UNL     1       2.323  11.061  -0.581  0.00  0.00    +0.029 C 
ENDROOT
BRANCH   1  20
ATOM     17  C   UNL     1       8.943   7.935  -1.025  0.00  0.00    +0.121 A 
ATOM     18  C   UNL     1       8.490   7.872   0.285  0.00  0.00    +0.047 A 
ATOM     19  C   UNL     1       7.156   8.091   0.566  0.00  0.00    +0.027 A 
ATOM     20  C   UNL     1       6.267   8.375  -0.463  0.00  0.00    +0.039 A 
ATOM     21  C   UNL     1       6.720   8.433  -1.774  0.00  0.00    +0.027 A 
ATOM     22  C   UNL     1       8.056   8.218  -2.053  0.00  0.00    +0.047 A 
BRANCH  17  23
ATOM     23  O   UNL     1      10.256   7.718  -1.301  0.00  0.00    -0.492 OA
BRANCH  23  25
ATOM     24  C   UNL     1      12.155   7.529  -2.784  0.00  0.00    +0.048 C 
ATOM     25  C   UNL     1      10.653   7.799  -2.671  0.00  0.00    +0.225 C 
ENDBRANCH  23  25
ENDBRANCH  17  23
ENDBRANCH   1  20
BRANCH  13  26
ATOM     26  C   UNL     1       4.522   4.024  -1.294  0.00  0.00    +0.039 C 
BRANCH  26  36
ATOM     27  C   UNL     1       3.249   2.489  -2.671  0.00  0.00    -0.071 C 
ATOM     28  C   UNL     1       2.020   1.581  -2.623  0.00  0.00    +0.017 C 
ATOM     29  C   UNL     1       0.777   2.407  -2.412  0.00  0.00    -0.048 A 
ATOM     30  C   UNL     1      -0.454   1.832  -2.688  0.00  0.00    +0.004 A 
ATOM     31  C   UNL     1      -1.617   2.554  -2.509  0.00  0.00    +0.000 A 
ATOM     32  C   UNL     1      -1.554   3.854  -2.041  0.00  0.00    +0.000 A 
ATOM     33  C   UNL     1      -0.329   4.427  -1.766  0.00  0.00    +0.002 A 
ATOM     34  C   UNL     1       0.841   3.705  -1.952  0.00  0.00    -0.061 A 
ATOM     35  C   UNL     1       2.154   4.375  -1.645  0.00  0.00    -0.040 C 
ATOM     36  N   UNL     1       3.210   3.362  -1.481  0.00  0.00    +0.393 N 
ATOM     37  H   UNL     1       3.003   2.792  -0.653  0.00  0.00    -0.079 HD
ENDBRANCH  26  36
ENDBRANCH  13  26
TORSDOF 5
