REMARK  Name = ZINC04180779
REMARK  5 active torsions:
REMARK  status: ('A' for Active; 'I' for Inactive)
REMARK    1  A    between atoms: C_4  and  C_7
REMARK    2  A    between atoms: C_7  and  C_26
REMARK    3  A    between atoms: C_15  and  C_18
REMARK    4  A    between atoms: C_21  and  O_25
REMARK    5  A    between atoms: C_22  and  O_24
REMARK                            x       y       z     vdW  Elec       q    Type
REMARK                         _______ _______ _______ _____ _____    ______ ____
ROOT
ATOM      1  C   UNL     1       2.451   3.937  -0.001  0.00  0.00    +0.149 C 
ATOM      2  C   UNL     1       1.973   5.218   0.631  0.00  0.00    +0.014 A 
ATOM      3  C   UNL     1       1.179   6.087  -0.093  0.00  0.00    +0.009 A 
ATOM      4  C   UNL     1       0.735   7.263   0.482  0.00  0.00    +0.000 A 
ATOM      5  C   UNL     1       1.082   7.577   1.784  0.00  0.00    +0.002 A 
ATOM      6  C   UNL     1       1.876   6.714   2.513  0.00  0.00    +0.023 A 
ATOM      7  C   UNL     1       2.324   5.534   1.937  0.00  0.00    +0.036 A 
ATOM      8  N   UNL     1       3.132   4.655   2.668  0.00  0.00    -0.315 N 
ATOM      9  C   UNL     1       3.339   3.300   2.132  0.00  0.00    +0.237 C 
ATOM     10  O   UNL     1       3.568   3.417   0.722  0.00  0.00    -0.334 OA
ATOM     11  H   UNL     1       3.543   4.930   3.503  0.00  0.00    +0.149 HD
ENDROOT
BRANCH   1  15
ATOM     12  C   UNL     1      -0.717   1.071   0.034  0.00  0.00    +0.000 A 
ATOM     13  C   UNL     1       0.598   0.649   0.104  0.00  0.00    +0.000 A 
ATOM     14  C   UNL     1       1.623   1.576   0.091  0.00  0.00    +0.007 A 
ATOM     15  C   UNL     1       1.333   2.926   0.013  0.00  0.00    -0.007 A 
ATOM     16  C   UNL     1       0.019   3.348  -0.050  0.00  0.00    +0.007 A 
ATOM     17  C   UNL     1      -1.006   2.421  -0.038  0.00  0.00    +0.000 A 
ENDBRANCH   1  15
BRANCH   9  18
ATOM     18  C   UNL     1       4.536   2.667   2.792  0.00  0.00    +0.003 A 
ATOM     19  C   UNL     1       5.411   1.901   2.045  0.00  0.00    +0.011 A 
ATOM     20  C   UNL     1       6.514   1.322   2.646  0.00  0.00    +0.049 A 
ATOM     21  C   UNL     1       6.738   1.500   4.002  0.00  0.00    +0.158 A 
ATOM     22  C   UNL     1       5.854   2.267   4.755  0.00  0.00    +0.159 A 
ATOM     23  C   UNL     1       4.753   2.849   4.146  0.00  0.00    +0.057 A 
BRANCH  22  24
ATOM     24  O   UNL     1       6.069   2.445   6.086  0.00  0.00    -0.503 OA
ATOM     25  H   UNL     1       5.653   1.774   6.645  0.00  0.00    +0.292 HD
ENDBRANCH  22  24
BRANCH  21  26
ATOM     26  O   UNL     1       7.819   0.927   4.595  0.00  0.00    -0.503 OA
ATOM     27  H   UNL     1       7.653   0.039   4.940  0.00  0.00    +0.292 HD
ENDBRANCH  21  26
ENDBRANCH   9  18
BRANCH   1  28
ATOM     28  C   UNL     1       2.863   4.206  -1.425  0.00  0.00    -0.007 A 
ATOM     29  C   UNL     1       1.910   4.238  -2.426  0.00  0.00    +0.007 A 
ATOM     30  C   UNL     1       2.287   4.490  -3.732  0.00  0.00    +0.000 A 
ATOM     31  C   UNL     1       3.618   4.699  -4.038  0.00  0.00    +0.000 A 
ATOM     32  C   UNL     1       4.572   4.661  -3.039  0.00  0.00    +0.000 A 
ATOM     33  C   UNL     1       4.194   4.415  -1.732  0.00  0.00    +0.007 A 
ENDBRANCH   1  28
TORSDOF 5
