REMARK  Name = ZINC09791152
REMARK  12 active torsions:
REMARK  status: ('A' for Active; 'I' for Inactive)
REMARK    1  A    between atoms: C_1  and  C_2
REMARK    2  A    between atoms: C_2  and  C_3
REMARK    3  A    between atoms: C_6  and  C_9
REMARK    4  A    between atoms: C_9  and  C_11
REMARK    5  A    between atoms: C_9  and  N_12
REMARK    6  A    between atoms: C_13  and  C_15
REMARK    7  A    between atoms: C_15  and  O_16
REMARK    8  A    between atoms: O_16  and  C_17
REMARK    9  A    between atoms: C_17  and  C_19
REMARK   10  A    between atoms: C_19  and  N_26
REMARK   11  A    between atoms: C_20  and  C_21
REMARK   12  A    between atoms: C_27  and  C_31
REMARK                            x       y       z     vdW  Elec       q    Type
REMARK                         _______ _______ _______ _____ _____    ______ ____
ROOT
ATOM      1  C   UNL     1       5.536   0.938   0.197  0.00  0.00    +0.358 C 
ATOM      2  O   UNL     1       5.840  -0.240   0.177  0.00  0.00    -0.243 OA
ENDROOT
BRANCH   1   3
ATOM      3  C   UNL     1       6.568   1.957   0.387  0.00  0.00    +0.157 C 
ATOM      4  C   UNL     1       7.880   1.596   0.435  0.00  0.00    +0.081 C 
BRANCH   4   5
ATOM      5  C   UNL     1       8.876   2.578   0.646  0.00  0.00    +0.130 A 
ATOM      6  C   UNL     1      10.241   2.368   0.634  0.00  0.00    +0.049 A 
ATOM      7  C   UNL     1      10.838   3.612   0.888  0.00  0.00    +0.042 A 
ATOM      8  C   UNL     1       9.840   4.511   1.041  0.00  0.00    +0.195 A 
ATOM      9  O   UNL     1       8.663   3.888   0.890  0.00  0.00    -0.463 OA
ENDBRANCH   4   5
BRANCH   3  10
ATOM     10  N   UNL     1       6.206   3.303   0.521  0.00  0.00    -0.186 N 
ATOM     11  C   UNL     1       5.948   3.982   1.675  0.00  0.00    +0.187 A 
ATOM     12  N   UNL     1       5.652   5.220   1.333  0.00  0.00    -0.108 NA
ATOM     13  N   UNL     1       5.698   5.357   0.057  0.00  0.00    -0.022 NA
ATOM     14  N   UNL     1       6.025   4.246  -0.507  0.00  0.00    -0.038 NA
BRANCH  11  15
ATOM     15  C   UNL     1       5.995   3.435   3.049  0.00  0.00    +0.021 A 
ATOM     16  C   UNL     1       5.971   2.056   3.254  0.00  0.00    +0.011 A 
ATOM     17  C   UNL     1       6.021   1.551   4.538  0.00  0.00    +0.001 A 
ATOM     18  C   UNL     1       6.083   2.411   5.620  0.00  0.00    +0.000 A 
ATOM     19  C   UNL     1       6.102   3.780   5.423  0.00  0.00    +0.001 A 
ATOM     20  C   UNL     1       6.059   4.297   4.144  0.00  0.00    +0.011 A 
ENDBRANCH  11  15
ENDBRANCH   3  10
ENDBRANCH   1   3
BRANCH   1  21
ATOM     21  O   UNL     1       4.246   1.305   0.043  0.00  0.00    -0.451 OA
BRANCH  21  22
ATOM     22  C   UNL     1       3.277   0.257  -0.019  0.00  0.00    +0.328 C 
BRANCH  22  24
ATOM     23  N   UNL     1       0.812   0.051  -0.030  0.00  0.00    -0.306 N 
ATOM     24  C   UNL     1       1.894   0.854  -0.072  0.00  0.00    +0.251 C 
ATOM     25  O   UNL     1       1.755   2.056  -0.153  0.00  0.00    -0.272 OA
ATOM     26  H   UNL     1       0.922  -0.912  -0.037  0.00  0.00    +0.149 HD
BRANCH  23  27
ATOM     27  C   UNL     1      -0.531   0.635   0.020  0.00  0.00    +0.100 C 
ATOM     28  C   UNL     1      -1.019   0.913  -1.403  0.00  0.00    +0.033 C 
BRANCH  27  32
ATOM     29  C   UNL     1      -3.201  -2.096   1.933  0.00  0.00    -0.048 A 
ATOM     30  C   UNL     1      -3.294  -0.741   2.193  0.00  0.00    +0.004 A 
ATOM     31  C   UNL     1      -2.430   0.142   1.574  0.00  0.00    +0.006 A 
ATOM     32  C   UNL     1      -1.473  -0.328   0.695  0.00  0.00    -0.027 A 
ATOM     33  C   UNL     1      -1.383  -1.682   0.431  0.00  0.00    +0.006 A 
ATOM     34  C   UNL     1      -2.244  -2.566   1.054  0.00  0.00    +0.004 A 
BRANCH  29  36
ATOM     35  C   UNL     1      -5.393  -3.239   1.743  0.00  0.00    +0.009 C 
ATOM     36  C   UNL     1      -4.143  -3.059   2.607  0.00  0.00    +0.032 C 
ENDBRANCH  29  36
ENDBRANCH  27  32
ENDBRANCH  23  27
ENDBRANCH  22  24
ENDBRANCH  21  22
ENDBRANCH   1  21
TORSDOF 10
