REMARK  Name = ZINC28577048
REMARK  7 active torsions:
REMARK  status: ('A' for Active; 'I' for Inactive)
REMARK    1  A    between atoms: C_1  and  C_2
REMARK    2  A    between atoms: N_12  and  C_13
REMARK    3  A    between atoms: C_13  and  C_15
REMARK    4  A    between atoms: C_18  and  C_21
REMARK    5  A    between atoms: C_21  and  N_22
REMARK    6  A    between atoms: C_23  and  C_29
REMARK    7  A    between atoms: C_25  and  C_27
REMARK                            x       y       z     vdW  Elec       q    Type
REMARK                         _______ _______ _______ _____ _____    ______ ____
ROOT
ATOM      1  C   UNL     1      -1.265  -0.764   0.018  0.00  0.00    +0.268 C 
ATOM      2  O   UNL     1      -2.327  -0.172   0.027  0.00  0.00    -0.268 OA
ENDROOT
BRANCH   1  14
ATOM      3  C   UNL     1      -5.915  -2.397   1.498  0.00  0.00    +0.063 C 
ATOM      4  C   UNL     1      -4.714  -3.013   0.827  0.00  0.00    +0.015 A 
ATOM      5  C   UNL     1      -3.542  -2.273   0.730  0.00  0.00    +0.046 A 
ATOM      6  C   UNL     1      -2.431  -2.826   0.116  0.00  0.00    +0.068 A 
ATOM      7  C   UNL     1      -2.543  -4.139  -0.398  0.00  0.00    +0.021 A 
ATOM      8  C   UNL     1      -1.462  -4.771  -1.029  0.00  0.00    +0.012 A 
ATOM      9  C   UNL     1      -1.608  -6.039  -1.507  0.00  0.00    +0.001 A 
ATOM     10  C   UNL     1      -2.817  -6.718  -1.371  0.00  0.00    +0.002 A 
ATOM     11  C   UNL     1      -3.885  -6.135  -0.760  0.00  0.00    +0.026 A 
ATOM     12  C   UNL     1      -3.772  -4.828  -0.255  0.00  0.00    +0.048 A 
ATOM     13  N   UNL     1      -4.805  -4.232   0.351  0.00  0.00    -0.358 N 
ATOM     14  N   UNL     1      -1.244  -2.111   0.003  0.00  0.00    -0.176 NA
ATOM     15  H   UNL     1      -5.748  -4.790   0.444  0.00  0.00    +0.166 HD
ENDBRANCH   1  14
BRANCH   1  16
ATOM     16  C   UNL     1       0.003  -0.005   0.022  0.00  0.00    +0.039 A 
ATOM     17  C   UNL     1      -0.015   1.391   0.037  0.00  0.00    +0.013 A 
ATOM     18  C   UNL     1       1.173   2.093   0.042  0.00  0.00    +0.006 A 
ATOM     19  C   UNL     1       2.380   1.417   0.031  0.00  0.00    -0.026 A 
ATOM     20  C   UNL     1       2.405   0.034   0.016  0.00  0.00    +0.006 A 
ATOM     21  C   UNL     1       1.225  -0.681   0.011  0.00  0.00    +0.013 A 
BRANCH  19  22
ATOM     22  C   UNL     1       3.673   2.191   0.035  0.00  0.00    +0.179 C 
BRANCH  22  23
ATOM     23  N   UNL     1       4.088   2.456  -1.344  0.00  0.00    -0.263 N 
ATOM     24  C   UNL     1       4.878   1.666  -2.102  0.00  0.00    +0.051 A 
ATOM     25  C   UNL     1       5.019   2.262  -3.310  0.00  0.00    +0.061 A 
ATOM     26  C   UNL     1       4.298   3.461  -3.285  0.00  0.00    +0.074 A 
ATOM     27  N   UNL     1       3.740   3.578  -2.108  0.00  0.00    -0.175 NA
ATOM     28  C   UNL     1       4.185   4.447  -4.419  0.00  0.00    +0.068 C 
ATOM     29 BR   UNL     1       6.020   1.594  -4.769  0.00  0.00    -0.047 Br
ATOM     30  C   UNL     1       5.489   0.355  -1.681  0.00  0.00    +0.066 C 
ENDBRANCH  22  23
ENDBRANCH  19  22
ENDBRANCH   1  16
TORSDOF 4
