REMARK  Name = ZINC36303509
REMARK  19 active torsions:
REMARK  status: ('A' for Active; 'I' for Inactive)
REMARK    1  A    between atoms: C_1  and  C_2
REMARK    2  A    between atoms: C_3  and  C_21
REMARK    3  A    between atoms: C_4  and  O_13
REMARK    4  A    between atoms: N_5  and  C_7
REMARK    5  A    between atoms: O_13  and  C_14
REMARK    6  A    between atoms: C_21  and  N_22
REMARK    7  A    between atoms: N_22  and  C_23
REMARK    8  A    between atoms: N_22  and  C_27
REMARK    9  A    between atoms: C_23  and  C_24
REMARK   10  A    between atoms: C_24  and  O_25
REMARK   11  A    between atoms: O_25  and  C_26
REMARK   12  A    between atoms: C_27  and  C_28
REMARK   13  A    between atoms: C_28  and  C_30
REMARK   14  A    between atoms: C_28  and  O_36
REMARK   15  A    between atoms: C_30  and  O_31
REMARK   16  A    between atoms: O_31  and  C_32
REMARK   17  A    between atoms: C_32  and  C_33
REMARK   18  A    between atoms: C_32  and  C_34
REMARK   19  A    between atoms: C_32  and  C_35
REMARK                            x       y       z     vdW  Elec       q    Type
REMARK                         _______ _______ _______ _____ _____    ______ ____
ROOT
ATOM      1  C   UNL     1       0.366   2.185   0.383  0.00  0.00    +0.068 C 
ATOM      2  C   UNL     1       0.659   0.708   0.442  0.00  0.00    +0.065 A 
ATOM      3  C   UNL     1       0.609  -0.179  -0.637  0.00  0.00    +0.021 A 
ATOM      4  C   UNL     1       0.939  -1.415  -0.176  0.00  0.00    +0.225 A 
ATOM      5  N   UNL     1       1.188  -1.302   1.156  0.00  0.00    -0.200 N 
ATOM      6  N   UNL     1       1.010   0.041   1.512  0.00  0.00    -0.168 NA
ENDROOT
BRANCH   5   7
ATOM      7  C   UNL     1       1.562  -2.343   2.018  0.00  0.00    +0.069 A 
ATOM      8  C   UNL     1       0.944  -3.582   1.920  0.00  0.00    +0.028 A 
ATOM      9  C   UNL     1       1.314  -4.606   2.771  0.00  0.00    +0.002 A 
ATOM     10  C   UNL     1       2.300  -4.397   3.718  0.00  0.00    +0.000 A 
ATOM     11  C   UNL     1       2.917  -3.163   3.817  0.00  0.00    +0.002 A 
ATOM     12  C   UNL     1       2.555  -2.138   2.966  0.00  0.00    +0.028 A 
ENDBRANCH   5   7
BRANCH   4  13
ATOM     13  O   UNL     1       1.006  -2.554  -0.912  0.00  0.00    -0.436 OA
BRANCH  13  14
ATOM     14  C   UNL     1      -0.138  -3.264  -1.094  0.00  0.00    +0.149 A 
ATOM     15  C   UNL     1      -1.346  -2.768  -0.627  0.00  0.00    +0.048 A 
ATOM     16  C   UNL     1      -2.508  -3.491  -0.814  0.00  0.00    +0.004 A 
ATOM     17  C   UNL     1      -2.468  -4.710  -1.465  0.00  0.00    +0.002 A 
ATOM     18  C   UNL     1      -1.266  -5.209  -1.932  0.00  0.00    +0.024 A 
ATOM     19  C   UNL     1      -0.101  -4.486  -1.753  0.00  0.00    +0.083 A 
ATOM     20 CL   UNL     1       1.407  -5.109  -2.345  0.00  0.00    -0.080 Cl
ENDBRANCH  13  14
ENDBRANCH   4  13
BRANCH   3  21
ATOM     21  C   UNL     1       0.253   0.172  -2.058  0.00  0.00    -0.036 C 
BRANCH  21  22
ATOM     22  N   UNL     1       1.471   0.541  -2.792  0.00  0.00    +0.386 N 
ATOM     23  H   UNL     1       1.947   1.283  -2.302  0.00  0.00    -0.081 HD
BRANCH  22  24
ATOM     24  C   UNL     1       2.355  -0.628  -2.891  0.00  0.00    -0.050 C 
BRANCH  24  25
ATOM     25  C   UNL     1       3.684  -0.210  -3.523  0.00  0.00    +0.141 C 
BRANCH  25  26
ATOM     26  O   UNL     1       4.345   0.726  -2.668  0.00  0.00    -0.385 OA
ATOM     27  C   UNL     1       5.603   1.183  -3.169  0.00  0.00    +0.193 C 
ENDBRANCH  25  26
ENDBRANCH  24  25
ENDBRANCH  22  24
BRANCH  22  28
ATOM     28  C   UNL     1       1.111   0.997  -4.141  0.00  0.00    -0.044 C 
BRANCH  28  29
ATOM     29  C   UNL     1       0.313   2.300  -4.042  0.00  0.00    +0.124 C 
BRANCH  29  30
ATOM     30  O   UNL     1       1.119   3.306  -3.427  0.00  0.00    -0.391 OA
ATOM     31  H   UNL     1       1.895   3.560  -3.945  0.00  0.00    +0.210 HD
ENDBRANCH  29  30
BRANCH  29  32
ATOM     32  C   UNL     1      -0.091   2.757  -5.445  0.00  0.00    +0.189 C 
BRANCH  32  33
ATOM     33  O   UNL     1      -0.933   3.908  -5.347  0.00  0.00    -0.372 OA
BRANCH  33  34
ATOM     34  C   UNL     1      -1.370   4.418  -6.608  0.00  0.00    +0.061 C 
ATOM     35  C   UNL     1      -2.164   3.340  -7.348  0.00  0.00    +0.041 C 
ATOM     36  C   UNL     1      -2.260   5.642  -6.382  0.00  0.00    +0.041 C 
ATOM     37  C   UNL     1      -0.153   4.819  -7.444  0.00  0.00    +0.041 C 
ENDBRANCH  33  34
ENDBRANCH  32  33
ENDBRANCH  29  32
ENDBRANCH  28  29
ENDBRANCH  22  28
ENDBRANCH  21  22
ENDBRANCH   3  21
TORSDOF 14
