REMARK  Name = ZINC22371422
REMARK  10 active torsions:
REMARK  status: ('A' for Active; 'I' for Inactive)
REMARK    1  A    between atoms: C_1  and  C_2
REMARK    2  A    between atoms: C_6  and  C_8
REMARK    3  A    between atoms: C_8  and  C_10
REMARK    4  A    between atoms: C_8  and  N_16
REMARK    5  A    between atoms: C_17  and  C_19
REMARK    6  A    between atoms: C_19  and  N_20
REMARK    7  A    between atoms: N_20  and  C_21
REMARK    8  A    between atoms: N_20  and  S_28
REMARK    9  A    between atoms: C_25  and  C_27
REMARK   10  A    between atoms: S_28  and  C_31
REMARK                            x       y       z     vdW  Elec       q    Type
REMARK                         _______ _______ _______ _____ _____    ______ ____
ROOT
ATOM      1  C   UNL     1      -1.260   6.465  -0.387  0.00  0.00    +0.227 C 
ENDROOT
BRANCH   1   3
ATOM      2  N   UNL     1      -3.374   7.329   0.562  0.00  0.00    -0.303 N 
ATOM      3  C   UNL     1      -2.302   6.525   0.700  0.00  0.00    +0.233 C 
ATOM      4  O   UNL     1      -2.176   5.849   1.700  0.00  0.00    -0.274 OA
ATOM      5  H   UNL     1      -3.489   7.942  -0.344  0.00  0.00    +0.150 HD
BRANCH   2   6
ATOM      6  C   UNL     1      -4.388   7.388   1.619  0.00  0.00    +0.134 C 
BRANCH   6  12
ATOM      7  C   UNL     1      -3.996   8.702   6.432  0.00  0.00    +0.044 C 
ATOM      8  C   UNL     1      -3.773   9.008   4.973  0.00  0.00    -0.050 A 
ATOM      9  C   UNL     1      -3.176  10.198   4.599  0.00  0.00    +0.003 A 
ATOM     10  C   UNL     1      -2.972  10.478   3.261  0.00  0.00    +0.001 A 
ATOM     11  C   UNL     1      -3.364   9.569   2.297  0.00  0.00    +0.006 A 
ATOM     12  C   UNL     1      -3.960   8.379   2.670  0.00  0.00    -0.023 A 
ATOM     13  C   UNL     1      -4.169   8.101   4.008  0.00  0.00    +0.009 A 
ENDBRANCH   6  12
BRANCH   6  14
ATOM     14  C   UNL     1      -5.705   7.819   1.028  0.00  0.00    -0.023 A 
ATOM     15  C   UNL     1      -5.740   8.810   0.066  0.00  0.00    +0.006 A 
ATOM     16  C   UNL     1      -6.948   9.203  -0.479  0.00  0.00    +0.000 A 
ATOM     17  C   UNL     1      -8.123   8.610  -0.055  0.00  0.00    +0.000 A 
ATOM     18  C   UNL     1      -8.088   7.622   0.911  0.00  0.00    +0.000 A 
ATOM     19  C   UNL     1      -6.880   7.226   1.453  0.00  0.00    +0.006 A 
ENDBRANCH   6  14
ENDBRANCH   2   6
ENDBRANCH   1   3
BRANCH   1  20
ATOM     20  N   UNL     1      -0.205   5.525  -0.000  0.00  0.00    -0.194 N 
BRANCH  20  21
ATOM     21  C   UNL     1      -0.357   4.160  -0.256  0.00  0.00    +0.052 A 
ATOM     22  C   UNL     1       0.762   3.352  -0.411  0.00  0.00    +0.025 A 
ATOM     23  C   UNL     1       0.608   2.003  -0.664  0.00  0.00    +0.002 A 
ATOM     24  C   UNL     1      -0.659   1.457  -0.763  0.00  0.00    +0.003 A 
ATOM     25  C   UNL     1      -1.775   2.259  -0.614  0.00  0.00    -0.049 A 
ATOM     26  C   UNL     1      -1.628   3.608  -0.355  0.00  0.00    +0.028 A 
ATOM     27  C   UNL     1      -3.153   1.661  -0.729  0.00  0.00    +0.044 C 
ENDBRANCH  20  21
BRANCH  20  28
ATOM     28  S   UNL     1       1.169   6.080   0.740  0.00  0.00    +0.075 S 
ATOM     29  O   UNL     1       0.820   7.300   1.380  0.00  0.00    -0.150 OA
ATOM     30  O   UNL     1       1.722   4.979   1.447  0.00  0.00    -0.150 OA
BRANCH  28  31
ATOM     31  C   UNL     1       2.316   6.490  -0.533  0.00  0.00    +0.109 A 
ATOM     32  C   UNL     1       3.292   5.583  -0.902  0.00  0.00    +0.030 A 
ATOM     33  C   UNL     1       4.189   5.901  -1.904  0.00  0.00    +0.022 A 
ATOM     34  C   UNL     1       4.118   7.133  -2.530  0.00  0.00    +0.041 A 
ATOM     35  C   UNL     1       3.145   8.043  -2.156  0.00  0.00    +0.022 A 
ATOM     36  C   UNL     1       2.245   7.721  -1.158  0.00  0.00    +0.030 A 
ATOM     37 CL   UNL     1       5.248   7.537  -3.784  0.00  0.00    -0.084 Cl
ENDBRANCH  28  31
ENDBRANCH  20  28
ENDBRANCH   1  20
TORSDOF 8
