REMARK  Name = ZINC15731205
REMARK  5 active torsions:
REMARK  status: ('A' for Active; 'I' for Inactive)
REMARK    1  A    between atoms: C_1  and  C_2
REMARK    2  A    between atoms: C_9  and  S_15
REMARK    3  A    between atoms: S_15  and  N_18
REMARK    4  A    between atoms: C_21  and  C_24
REMARK    5  A    between atoms: C_24  and  N_64
REMARK                            x       y       z     vdW  Elec       q    Type
REMARK                         _______ _______ _______ _____ _____    ______ ____
ROOT
ATOM      1  N   UNL     1       1.383  -2.450  -0.572  0.00  0.00    -0.177 NA
ATOM      2  C   UNL     1       0.611  -1.875  -1.683  0.00  0.00    +0.109 C 
ATOM      3  C   UNL     1       0.582  -0.351  -1.526  0.00  0.00    +0.019 C 
ATOM      4  C   UNL     1       0.045   0.004  -0.137  0.00  0.00    -0.025 C 
ATOM      5  C   UNL     1       0.973  -0.574   0.933  0.00  0.00    +0.019 C 
ATOM      6  C   UNL     1       1.007  -2.100   0.804  0.00  0.00    +0.109 C 
ENDROOT
BRANCH   1   7
ATOM      7  S   UNL     1       2.651  -3.472  -0.867  0.00  0.00    +0.061 S 
ATOM      8  O   UNL     1       2.814  -4.264   0.302  0.00  0.00    -0.153 OA
ATOM      9  O   UNL     1       2.425  -4.042  -2.148  0.00  0.00    -0.153 OA
BRANCH   7  17
ATOM     10  C   UNL     1      10.134  -0.195   1.882  0.00  0.00    +0.018 C 
ATOM     11  C   UNL     1       8.844  -0.004   1.083  0.00  0.00    +0.082 C 
ATOM     12  C   UNL     1       9.086  -0.426  -0.337  0.00  0.00    +0.087 C 
ATOM     13  S   UNL     1       7.806   0.088  -1.472  0.00  0.00    -0.123 S 
ATOM     14  C   UNL     1       6.397  -0.908  -1.202  0.00  0.00    +0.029 A 
ATOM     15  C   UNL     1       5.617  -1.206  -2.328  0.00  0.00    +0.018 A 
ATOM     16  C   UNL     1       4.488  -1.984  -2.239  0.00  0.00    +0.030 A 
ATOM     17  C   UNL     1       4.100  -2.478  -1.007  0.00  0.00    +0.107 A 
ATOM     18  C   UNL     1       4.853  -2.195   0.106  0.00  0.00    +0.053 A 
ATOM     19  C   UNL     1       6.016  -1.409   0.034  0.00  0.00    +0.049 A 
ATOM     20  N   UNL     1       6.650  -1.216   1.233  0.00  0.00    -0.284 N 
ATOM     21  C   UNL     1       7.757  -0.789   1.729  0.00  0.00    +0.221 C 
ATOM     22  O   UNL     1       7.942  -1.066   2.896  0.00  0.00    -0.275 OA
ATOM     23  H   UNL     1       6.064  -1.497   1.953  0.00  0.00    +0.155 HD
ENDBRANCH   7  17
ENDBRANCH   1   7
BRANCH   4  24
ATOM     24  C   UNL     1      -0.019   1.526   0.010  0.00  0.00    -0.075 C 
BRANCH  24  34
ATOM     25  C   UNL     1      -0.793   3.509  -1.148  0.00  0.00    -0.074 C 
ATOM     26  C   UNL     1      -1.585   3.937  -2.384  0.00  0.00    +0.017 C 
ATOM     27  C   UNL     1      -3.009   3.456  -2.274  0.00  0.00    -0.048 A 
ATOM     28  C   UNL     1      -3.965   4.028  -3.100  0.00  0.00    +0.004 A 
ATOM     29  C   UNL     1      -5.280   3.610  -3.038  0.00  0.00    +0.000 A 
ATOM     30  C   UNL     1      -5.644   2.617  -2.148  0.00  0.00    +0.000 A 
ATOM     31  C   UNL     1      -4.694   2.049  -1.324  0.00  0.00    +0.002 A 
ATOM     32  C   UNL     1      -3.373   2.468  -1.384  0.00  0.00    -0.061 A 
ATOM     33  C   UNL     1      -2.373   1.822  -0.462  0.00  0.00    -0.043 C 
ATOM     34  N   UNL     1      -1.006   2.060  -0.955  0.00  0.00    +0.383 N 
ATOM     35  H   UNL     1      -0.885   1.581  -1.855  0.00  0.00    -0.081 HD
ENDBRANCH  24  34
ENDBRANCH   4  24
TORSDOF 4
