REMARK  Name = ZINC45864250
REMARK  7 active torsions:
REMARK  status: ('A' for Active; 'I' for Inactive)
REMARK    1  A    between atoms: C_4  and  C_7
REMARK    2  A    between atoms: C_7  and  C_9
REMARK    3  A    between atoms: C_7  and  C_26
REMARK    4  A    between atoms: C_9  and  N_10
REMARK    5  A    between atoms: C_11  and  C_13
REMARK    6  A    between atoms: C_16  and  N_18
REMARK    7  A    between atoms: C_19  and  C_21
REMARK                            x       y       z     vdW  Elec       q    Type
REMARK                         _______ _______ _______ _____ _____    ______ ____
ROOT
ATOM      1  C   UNL     1       3.791  -1.579  -1.292  0.00  0.00    +0.117 C 
ENDROOT
BRANCH   1   2
ATOM      2  N   UNL     1       3.810  -0.724  -2.481  0.00  0.00    -0.310 N 
ATOM      3  C   UNL     1       3.878  -1.277  -3.708  0.00  0.00    +0.251 C 
ATOM      4  O   UNL     1       3.924  -2.488  -3.829  0.00  0.00    -0.270 OA
ATOM      5  H   UNL     1       3.773   0.241  -2.385  0.00  0.00    +0.149 HD
BRANCH   3   6
ATOM      6  C   UNL     1       3.896  -0.424  -4.894  0.00  0.00    +0.076 A 
ATOM      7  C   UNL     1       3.957  -0.790  -6.232  0.00  0.00    +0.022 A 
ATOM      8  C   UNL     1       3.959   0.239  -7.136  0.00  0.00    +0.032 A 
ATOM      9  C   UNL     1       3.904   1.531  -6.665  0.00  0.00    +0.073 A 
ATOM     10  S   UNL     1       3.839   1.355  -4.996  0.00  0.00    -0.069 S 
BRANCH   9  11
ATOM     11  N   UNL     1       3.897   2.708  -7.401  0.00  0.00    -0.273 N 
ATOM     12  C   UNL     1       3.838   3.897  -6.768  0.00  0.00    +0.284 C 
ATOM     13  O   UNL     1       3.791   3.938  -5.553  0.00  0.00    -0.266 OA
ATOM     14  H   UNL     1       3.934   2.676  -8.369  0.00  0.00    +0.156 HD
BRANCH  12  15
ATOM     15  C   UNL     1       3.830   5.141  -7.545  0.00  0.00    +0.189 A 
ATOM     16  C   UNL     1       3.779   6.406  -7.033  0.00  0.00    +0.054 A 
ATOM     17  C   UNL     1       3.792   7.285  -8.128  0.00  0.00    +0.042 A 
ATOM     18  C   UNL     1       3.849   6.527  -9.245  0.00  0.00    +0.196 A 
ATOM     19  O   UNL     1       3.878   5.236  -8.890  0.00  0.00    -0.458 OA
ENDBRANCH  12  15
ENDBRANCH   9  11
ENDBRANCH   3   6
ENDBRANCH   1   2
BRANCH   1  20
ATOM     20  C   UNL     1       3.711  -0.707  -0.038  0.00  0.00    +0.068 C 
BRANCH  20  21
ATOM     21  C   UNL     1       3.816  -1.579   1.188  0.00  0.00    -0.013 A 
ATOM     22  C   UNL     1       2.988  -2.579   1.529  0.00  0.00    +0.088 A 
ATOM     23  N   UNL     1       3.398  -3.143   2.706  0.00  0.00    -0.360 N 
ATOM     24  H   UNL     1       2.958  -3.883   3.153  0.00  0.00    +0.165 HD
ATOM     25  C   UNL     1       4.528  -2.502   3.163  0.00  0.00    +0.047 A 
ATOM     26  C   UNL     1       4.843  -1.499   2.229  0.00  0.00    +0.003 A 
ATOM     27  C   UNL     1       5.958  -0.683   2.431  0.00  0.00    +0.010 A 
ATOM     28  C   UNL     1       6.741  -0.866   3.536  0.00  0.00    +0.001 A 
ATOM     29  C   UNL     1       6.437  -1.858   4.459  0.00  0.00    +0.002 A 
ATOM     30  C   UNL     1       5.336  -2.668   4.283  0.00  0.00    +0.026 A 
ENDBRANCH  20  21
BRANCH  20  34
ATOM     31  C   UNL     1      -0.017   1.378   0.010  0.00  0.00    +0.000 A 
ATOM     32  C   UNL     1       1.171   2.086   0.002  0.00  0.00    +0.000 A 
ATOM     33  C   UNL     1       2.377   1.411  -0.013  0.00  0.00    +0.004 A 
ATOM     34  C   UNL     1       2.396   0.029  -0.020  0.00  0.00    -0.038 A 
ATOM     35  C   UNL     1       1.208  -0.679  -0.012  0.00  0.00    +0.004 A 
ATOM     36  C   UNL     1       0.002  -0.004   0.002  0.00  0.00    +0.000 A 
ENDBRANCH  20  34
ENDBRANCH   1  20
TORSDOF 7
