REMARK  Name = ZINC39920726
REMARK  8 active torsions:
REMARK  status: ('A' for Active; 'I' for Inactive)
REMARK    1  A    between atoms: C_1  and  C_2
REMARK    2  A    between atoms: C_5  and  C_8
REMARK    3  A    between atoms: N_19  and  N_20
REMARK    4  A    between atoms: C_21  and  C_23
REMARK    5  A    between atoms: C_23  and  C_25
REMARK    6  A    between atoms: C_23  and  O_26
REMARK    7  A    between atoms: O_26  and  C_27
REMARK    8  A    between atoms: C_32  and  C_33
REMARK                            x       y       z     vdW  Elec       q    Type
REMARK                         _______ _______ _______ _____ _____    ______ ____
ROOT
ATOM      1  C   UNL     1      -0.070  -4.091   0.046  0.00  0.00    +0.212 C 
ATOM      2  N   UNL     1      -0.803  -4.570  -1.132  0.00  0.00    -0.320 N 
ATOM      3  C   UNL     1      -2.185  -4.701  -1.047  0.00  0.00    +0.041 A 
ATOM      4  C   UNL     1      -3.005  -4.548  -2.151  0.00  0.00    +0.024 A 
ATOM      5  C   UNL     1      -4.373  -4.685  -2.011  0.00  0.00    +0.002 A 
ATOM      6  C   UNL     1      -4.929  -4.973  -0.775  0.00  0.00    +0.001 A 
ATOM      7  C   UNL     1      -4.126  -5.130   0.336  0.00  0.00    +0.015 A 
ATOM      8  C   UNL     1      -2.746  -4.996   0.208  0.00  0.00    +0.059 A 
ATOM      9  C   UNL     1      -1.840  -5.162   1.360  0.00  0.00    +0.266 C 
ATOM     10  O   UNL     1      -2.246  -5.657   2.394  0.00  0.00    -0.268 OA
ATOM     11  N   UNL     1      -0.561  -4.761   1.251  0.00  0.00    -0.191 N 
ATOM     12  H   UNL     1      -0.334  -4.791  -1.952  0.00  0.00    +0.148 HD
ENDROOT
BRANCH   1  17
ATOM     13  C   UNL     1      -0.829   1.613   0.580  0.00  0.00    +0.044 C 
ATOM     14  C   UNL     1      -0.631   0.125   0.441  0.00  0.00    -0.050 A 
ATOM     15  C   UNL     1       0.646  -0.397   0.349  0.00  0.00    +0.004 A 
ATOM     16  C   UNL     1       0.827  -1.762   0.221  0.00  0.00    +0.007 A 
ATOM     17  C   UNL     1      -0.268  -2.604   0.186  0.00  0.00    -0.008 A 
ATOM     18  C   UNL     1      -1.545  -2.082   0.279  0.00  0.00    +0.007 A 
ATOM     19  C   UNL     1      -1.726  -0.718   0.411  0.00  0.00    +0.004 A 
ENDBRANCH   1  17
BRANCH  11  20
ATOM     20  N   UNL     1       0.319  -4.989   2.317  0.00  0.00    -0.227 N 
ATOM     21  C   UNL     1       0.266  -4.207   3.414  0.00  0.00    +0.270 C 
ATOM     22  O   UNL     1      -0.604  -3.369   3.519  0.00  0.00    -0.270 OA
ATOM     23  H   UNL     1       0.967  -5.709   2.266  0.00  0.00    +0.173 HD
BRANCH  21  24
ATOM     24  C   UNL     1       1.288  -4.375   4.509  0.00  0.00    +0.257 C 
ATOM     25  C   UNL     1       1.127  -5.755   5.149  0.00  0.00    +0.062 C 
BRANCH  24  26
ATOM     26  O   UNL     1       1.094  -3.364   5.500  0.00  0.00    -0.480 OA
BRANCH  26  27
ATOM     27  C   UNL     1       2.165  -3.046   6.275  0.00  0.00    +0.124 A 
ATOM     28  C   UNL     1       3.396  -3.638   6.035  0.00  0.00    +0.046 A 
ATOM     29  C   UNL     1       4.483  -3.313   6.823  0.00  0.00    +0.004 A 
ATOM     30  C   UNL     1       4.344  -2.398   7.851  0.00  0.00    +0.000 A 
ATOM     31  C   UNL     1       3.118  -1.808   8.092  0.00  0.00    +0.007 A 
ATOM     32  C   UNL     1       2.029  -2.125   7.303  0.00  0.00    -0.009 A 
ATOM     33  C   UNL     1       0.694  -1.476   7.563  0.00  0.00    +0.047 C 
ENDBRANCH  26  27
ENDBRANCH  24  26
ENDBRANCH  21  24
ENDBRANCH  11  20
TORSDOF 5
