REMARK  Name = ZINC34602355
REMARK  8 active torsions:
REMARK  status: ('A' for Active; 'I' for Inactive)
REMARK    1  A    between atoms: C_1  and  C_2
REMARK    2  A    between atoms: C_2  and  C_3
REMARK    3  A    between atoms: C_2  and  C_4
REMARK    4  A    between atoms: C_2  and  C_5
REMARK    5  A    between atoms: C_8  and  C_11
REMARK    6  A    between atoms: C_17  and  N_20
REMARK    7  A    between atoms: N_23  and  C_26
REMARK    8  A    between atoms: C_26  and  C_27
REMARK                            x       y       z     vdW  Elec       q    Type
REMARK                         _______ _______ _______ _____ _____    ______ ____
ROOT
ATOM      1  C   UNL     1       2.594  -1.550  -4.946  0.00  0.00    +0.065 A 
ATOM      2  C   UNL     1       2.073  -2.404  -5.871  0.00  0.00    +0.118 A 
ATOM      3  N   UNL     1       3.086  -2.736  -6.726  0.00  0.00    -0.306 N 
ATOM      4  C   UNL     1       3.134  -3.547  -7.826  0.00  0.00    +0.093 A 
ATOM      5  C   UNL     1       4.284  -3.711  -8.513  0.00  0.00    +0.020 A 
ATOM      6  C   UNL     1       5.454  -3.048  -8.107  0.00  0.00    +0.028 A 
ATOM      7  C   UNL     1       5.423  -2.234  -7.010  0.00  0.00    +0.071 A 
ATOM      8  C   UNL     1       4.208  -2.074  -6.302  0.00  0.00    +0.137 A 
ATOM      9  N   UNL     1       3.891  -1.360  -5.232  0.00  0.00    -0.338 N 
ATOM     10  H   UNL     1       4.500  -0.793  -4.734  0.00  0.00    +0.167 HD
ENDROOT
BRANCH   1  14
ATOM     11  C   UNL     1       0.469   0.224  -1.717  0.00  0.00    -0.042 A 
ATOM     12  C   UNL     1      -0.184  -0.634  -2.583  0.00  0.00    +0.005 A 
ATOM     13  C   UNL     1       0.501  -1.213  -3.633  0.00  0.00    +0.010 A 
ATOM     14  C   UNL     1       1.852  -0.931  -3.819  0.00  0.00    -0.000 A 
ATOM     15  C   UNL     1       2.505  -0.066  -2.944  0.00  0.00    +0.010 A 
ATOM     16  C   UNL     1       1.810   0.511  -1.900  0.00  0.00    +0.005 A 
BRANCH  11  18
ATOM     17  C   UNL     1      -0.247   2.375  -0.714  0.00  0.00    +0.015 C 
ATOM     18  C   UNL     1      -0.284   0.852  -0.573  0.00  0.00    -0.013 C 
ATOM     19  C   UNL     1       0.368   0.446   0.751  0.00  0.00    +0.015 C 
ATOM     20  C   UNL     1      -1.737   0.373  -0.594  0.00  0.00    +0.015 C 
ENDBRANCH  11  18
ENDBRANCH   1  14
BRANCH   7  21
ATOM     21  N   UNL     1       6.578  -1.568  -6.593  0.00  0.00    -0.325 N 
ATOM     22  C   UNL     1       7.239  -0.586  -7.464  0.00  0.00    +0.120 C 
ATOM     23  C   UNL     1       8.727  -0.942  -7.558  0.00  0.00    +0.103 C 
ATOM     24  N   UNL     1       9.288  -1.049  -6.205  0.00  0.00    -0.294 NA
ATOM     25  C   UNL     1       8.654  -2.139  -5.450  0.00  0.00    +0.103 C 
ATOM     26  C   UNL     1       7.160  -1.827  -5.267  0.00  0.00    +0.120 C 
BRANCH  24  27
ATOM     27  C   UNL     1      10.746  -1.220  -6.251  0.00  0.00    +0.141 C 
BRANCH  27  28
ATOM     28  C   UNL     1      11.313  -1.080  -4.862  0.00  0.00    +0.074 A 
ATOM     29  C   UNL     1      11.542  -2.223  -4.091  0.00  0.00    +0.136 A 
ATOM     30  N   UNL     1      12.036  -2.126  -2.878  0.00  0.00    -0.252 NA
ATOM     31  C   UNL     1      12.323  -0.920  -2.374  0.00  0.00    +0.089 A 
ATOM     32  C   UNL     1      12.853  -0.782  -1.079  0.00  0.00    +0.030 A 
ATOM     33  C   UNL     1      13.134   0.457  -0.594  0.00  0.00    +0.002 A 
ATOM     34  C   UNL     1      12.905   1.597  -1.363  0.00  0.00    +0.002 A 
ATOM     35  C   UNL     1      12.394   1.503  -2.620  0.00  0.00    +0.030 A 
ATOM     36  C   UNL     1      12.090   0.239  -3.156  0.00  0.00    +0.090 A 
ATOM     37  N   UNL     1      11.591   0.114  -4.391  0.00  0.00    -0.247 NA
ENDBRANCH  27  28
ENDBRANCH  24  27
ENDBRANCH   7  21
TORSDOF 5
