REMARK  Name = ZINC63625553
REMARK  12 active torsions:
REMARK  status: ('A' for Active; 'I' for Inactive)
REMARK    1  A    between atoms: C_1  and  C_2
REMARK    2  A    between atoms: C_2  and  O_3
REMARK    3  A    between atoms: O_3  and  C_4
REMARK    4  A    between atoms: C_4  and  C_6
REMARK    5  A    between atoms: C_7  and  C_35
REMARK    6  A    between atoms: C_9  and  C_13
REMARK    7  A    between atoms: C_10  and  C_12
REMARK    8  A    between atoms: C_18  and  C_21
REMARK    9  A    between atoms: C_21  and  C_23
REMARK   10  A    between atoms: C_21  and  C_24
REMARK   11  A    between atoms: N_26  and  C_27
REMARK   12  A    between atoms: C_27  and  C_28
REMARK                            x       y       z     vdW  Elec       q    Type
REMARK                         _______ _______ _______ _____ _____    ______ ____
ROOT
ATOM      1  C   UNL     1       3.432  -2.565   5.756  0.00  0.00    +0.261 C 
ATOM      2  O   UNL     1       2.718  -2.699   4.782  0.00  0.00    -0.269 OA
ATOM      3  N   UNL     1       3.938  -3.651   6.375  0.00  0.00    -0.297 N 
ATOM      4  C   UNL     1       3.765  -4.990   5.796  0.00  0.00    +0.108 C 
ATOM      5  C   UNL     1       3.145  -5.908   6.854  0.00  0.00    +0.023 C 
ATOM      6  C   UNL     1       4.005  -5.876   8.120  0.00  0.00    +0.004 C 
ATOM      7  C   UNL     1       4.042  -4.451   8.678  0.00  0.00    +0.023 C 
ATOM      8  C   UNL     1       4.677  -3.516   7.637  0.00  0.00    +0.108 C 
ENDROOT
BRANCH   1  12
ATOM      9  C   UNL     1       3.847   1.123   6.660  0.00  0.00    +0.066 C 
ATOM     10  C   UNL     1       4.668   0.399   7.458  0.00  0.00    +0.049 C 
ATOM     11  N   UNL     1       4.586  -0.910   7.208  0.00  0.00    -0.250 NA
ATOM     12  C   UNL     1       3.746  -1.212   6.263  0.00  0.00    +0.111 C 
ATOM     13  C   UNL     1       3.147   0.097   5.787  0.00  0.00    +0.078 C 
ATOM     14  C   UNL     1       3.469   0.332   4.310  0.00  0.00    +0.019 C 
ATOM     15  C   UNL     1       5.568   1.001   8.505  0.00  0.00    +0.066 C 
BRANCH   9  16
ATOM     16  C   UNL     1       3.670   2.578   6.646  0.00  0.00    +0.338 C 
ATOM     17  O   UNL     1       4.306   3.275   7.412  0.00  0.00    -0.245 OA
BRANCH  16  18
ATOM     18  O   UNL     1       2.799   3.143   5.785  0.00  0.00    -0.462 OA
BRANCH  18  20
ATOM     19  C   UNL     1       1.651   5.021   4.786  0.00  0.00    +0.048 C 
ATOM     20  C   UNL     1       2.677   4.566   5.827  0.00  0.00    +0.229 C 
ENDBRANCH  18  20
ENDBRANCH  16  18
ENDBRANCH   9  16
ENDBRANCH   1  12
BRANCH   6  21
ATOM     21  C   UNL     1       3.408  -6.818   9.167  0.00  0.00    +0.075 C 
ATOM     22  C   UNL     1       3.373  -8.243   8.610  0.00  0.00    +0.017 C 
BRANCH  21  23
ATOM     23  C   UNL     1       4.255  -6.786  10.413  0.00  0.00    +0.216 C 
ATOM     24  O   UNL     1       5.239  -6.080  10.459  0.00  0.00    -0.276 OA
ATOM     25  N   UNL     1       3.918  -7.543  11.476  0.00  0.00    -0.311 N 
ATOM     26  H   UNL     1       3.131  -8.108  11.439  0.00  0.00    +0.149 HD
BRANCH  25  27
ATOM     27  C   UNL     1       4.742  -7.513  12.687  0.00  0.00    +0.142 C 
BRANCH  27  28
ATOM     28  C   UNL     1       4.153  -8.441  13.718  0.00  0.00    +0.005 A 
ATOM     29  C   UNL     1       3.376  -7.933  14.742  0.00  0.00    +0.008 A 
ATOM     30  C   UNL     1       2.836  -8.784  15.688  0.00  0.00    +0.000 A 
ATOM     31  C   UNL     1       3.072 -10.144  15.611  0.00  0.00    +0.003 A 
ATOM     32  C   UNL     1       3.848 -10.654  14.588  0.00  0.00    +0.038 A 
ATOM     33  C   UNL     1       4.385  -9.803  13.637  0.00  0.00    +0.128 A 
ATOM     34  F   UNL     1       5.140 -10.301  12.633  0.00  0.00    -0.205 F 
ENDBRANCH  27  28
ENDBRANCH  25  27
ENDBRANCH  21  23
ENDBRANCH   6  21
TORSDOF 8
