REMARK  Name = ZINC41584567
REMARK  7 active torsions:
REMARK  status: ('A' for Active; 'I' for Inactive)
REMARK    1  A    between atoms: C_1  and  C_2
REMARK    2  A    between atoms: C_4  and  O_36
REMARK    3  A    between atoms: C_5  and  C_22
REMARK    4  A    between atoms: C_11  and  C_12
REMARK    5  A    between atoms: C_16  and  N_18
REMARK    6  A    between atoms: C_22  and  N_23
REMARK    7  A    between atoms: C_28  and  C_30
REMARK                            x       y       z     vdW  Elec       q    Type
REMARK                         _______ _______ _______ _____ _____    ______ ____
ROOT
ATOM      1  C   UNL     1       1.689   0.113   0.240  0.00  0.00    +0.045 C 
ATOM      2  C   UNL     1       1.289  -1.338   0.177  0.00  0.00    -0.033 A 
ATOM      3  C   UNL     1       0.919  -1.895  -1.015  0.00  0.00    +0.050 A 
ATOM      4  C   UNL     1       0.549  -3.236  -1.075  0.00  0.00    +0.122 A 
ATOM      5  C   UNL     1       0.551  -4.020   0.067  0.00  0.00    +0.020 A 
ATOM      6  C   UNL     1       0.924  -3.470   1.287  0.00  0.00    +0.145 A 
ATOM      7  C   UNL     1       1.300  -2.117   1.335  0.00  0.00    +0.071 A 
ATOM      8  C   UNL     1       1.643  -1.831   2.739  0.00  0.00    +0.232 C 
ATOM      9  O   UNL     1       2.016  -0.773   3.215  0.00  0.00    -0.283 OA
ATOM     10  C   UNL     1       1.434  -3.109   3.438  0.00  0.00    +0.176 C 
ATOM     11  C   UNL     1       1.624  -3.340   4.761  0.00  0.00    +0.058 C 
ATOM     12  O   UNL     1       1.008  -4.010   2.522  0.00  0.00    -0.451 OA
ENDROOT
BRANCH  11  13
ATOM     13  C   UNL     1       1.523  -4.707   5.290  0.00  0.00    -0.019 A 
ATOM     14  C   UNL     1       1.374  -5.791   4.417  0.00  0.00    +0.008 A 
ATOM     15  C   UNL     1       1.281  -7.070   4.921  0.00  0.00    +0.003 A 
ATOM     16  C   UNL     1       1.335  -7.285   6.288  0.00  0.00    +0.033 A 
ATOM     17  C   UNL     1       1.482  -6.219   7.159  0.00  0.00    +0.127 A 
ATOM     18  C   UNL     1       1.582  -4.934   6.670  0.00  0.00    +0.040 A 
BRANCH  17  19
ATOM     19  N   UNL     1       1.537  -6.460   8.618  0.00  0.00    +0.056 N 
ATOM     20  O   UNL     1       1.454  -7.587   9.048  0.00  0.00    -0.126 OA
ATOM     21  O   UNL     1       1.665  -5.531   9.380  0.00  0.00    -0.126 OA
ENDBRANCH  17  19
ENDBRANCH  11  13
BRANCH   4  22
ATOM     22  O   UNL     1       0.183  -3.779  -2.264  0.00  0.00    -0.506 OA
ATOM     23  H   UNL     1       0.917  -4.162  -2.764  0.00  0.00    +0.292 HD
ENDBRANCH   4  22
BRANCH   5  24
ATOM     24  C   UNL     1       0.148  -5.470  -0.013  0.00  0.00    -0.035 C 
BRANCH  24  25
ATOM     25  N   UNL     1      -1.317  -5.574   0.039  0.00  0.00    +0.387 N 
ATOM     26  C   UNL     1      -1.793  -5.102   1.345  0.00  0.00    -0.078 C 
ATOM     27  C   UNL     1      -3.322  -5.133   1.375  0.00  0.00    -0.019 C 
ATOM     28  C   UNL     1      -3.804  -6.568   1.143  0.00  0.00    -0.003 C 
ATOM     29  C   UNL     1      -3.240  -7.076  -0.187  0.00  0.00    -0.011 C 
ATOM     30  C   UNL     1      -1.713  -6.973  -0.160  0.00  0.00    -0.036 C 
ATOM     31  H   UNL     1      -1.720  -5.005  -0.690  0.00  0.00    -0.080 HD
BRANCH  30  32
ATOM     32  C   UNL     1      -1.153  -7.473  -1.467  0.00  0.00    -0.043 A 
ATOM     33  C   UNL     1      -0.507  -8.698  -1.532  0.00  0.00    +0.005 A 
ATOM     34  C   UNL     1      -0.008  -9.117  -2.755  0.00  0.00    +0.020 A 
ATOM     35  C   UNL     1      -0.170  -8.305  -3.862  0.00  0.00    +0.111 A 
ATOM     36  N   UNL     1      -0.789  -7.145  -3.763  0.00  0.00    -0.263 NA
ATOM     37  C   UNL     1      -1.282  -6.718  -2.617  0.00  0.00    +0.112 A 
ENDBRANCH  30  32
ENDBRANCH  24  25
ENDBRANCH   5  24
TORSDOF 6
