REMARK  Name = ZINC59516507
REMARK  7 active torsions:
REMARK  status: ('A' for Active; 'I' for Inactive)
REMARK    1  A    between atoms: C_9  and  O_36
REMARK    2  A    between atoms: C_10  and  C_11
REMARK    3  A    between atoms: N_12  and  C_13
REMARK    4  A    between atoms: C_15  and  C_32
REMARK    5  A    between atoms: C_18  and  O_19
REMARK    6  A    between atoms: O_19  and  C_20
REMARK    7  A    between atoms: C_23  and  C_26
REMARK                            x       y       z     vdW  Elec       q    Type
REMARK                         _______ _______ _______ _____ _____    ______ ____
ROOT
ATOM      1  C   UNL     1       7.247   0.166  -0.470  0.00  0.00    +0.107 A 
ATOM      2  C   UNL     1       7.173   1.537  -0.723  0.00  0.00    +0.043 A 
ATOM      3  C   UNL     1       8.317   2.242  -1.033  0.00  0.00    +0.057 A 
ATOM      4  C   UNL     1       9.540   1.596  -1.095  0.00  0.00    +0.016 A 
ATOM      5  C   UNL     1       9.627   0.238  -0.846  0.00  0.00    +0.049 A 
ATOM      6  C   UNL     1       8.488  -0.483  -0.528  0.00  0.00    +0.154 A 
ENDROOT
BRANCH   3   7
ATOM      7  C   UNL     1       8.236   3.722  -1.307  0.00  0.00    +0.417 C 
ATOM      8  F   UNL     1       8.405   4.427  -0.111  0.00  0.00    -0.166 F 
ATOM      9  F   UNL     1       9.241   4.085  -2.209  0.00  0.00    -0.166 F 
ATOM     10  F   UNL     1       6.985   4.027  -1.854  0.00  0.00    -0.166 F 
ENDBRANCH   3   7
BRANCH   1  12
ATOM     11  C   UNL     1       5.290  -0.084   0.743  0.00  0.00    +0.123 C 
ATOM     12  N   UNL     1       6.117  -0.539  -0.161  0.00  0.00    -0.251 NA
BRANCH  11  22
ATOM     13  C   UNL     1       1.309   0.559   3.953  0.00  0.00    +0.001 A 
ATOM     14  C   UNL     1       2.468   1.284   3.693  0.00  0.00    +0.001 A 
ATOM     15  C   UNL     1       3.367   0.858   2.760  0.00  0.00    +0.009 A 
ATOM     16  C   UNL     1       3.122  -0.325   2.054  0.00  0.00    -0.006 A 
ATOM     17  C   UNL     1       1.944  -1.065   2.315  0.00  0.00    -0.017 A 
ATOM     18  C   UNL     1       1.040  -0.596   3.283  0.00  0.00    +0.008 A 
ATOM     19  C   UNL     1       1.700  -2.254   1.604  0.00  0.00    +0.012 A 
ATOM     20  C   UNL     1       2.580  -2.700   0.670  0.00  0.00    +0.046 A 
ATOM     21  C   UNL     1       3.754  -2.007   0.376  0.00  0.00    +0.126 A 
ATOM     22  C   UNL     1       4.059  -0.819   1.045  0.00  0.00    +0.042 A 
BRANCH  21  23
ATOM     23  O   UNL     1       4.604  -2.490  -0.564  0.00  0.00    -0.506 OA
ATOM     24  H   UNL     1       4.424  -2.170  -1.459  0.00  0.00    +0.292 HD
ENDBRANCH  21  23
ENDBRANCH  11  22
ENDBRANCH   1  12
BRANCH   6  25
ATOM     25  O   UNL     1       8.573  -1.816  -0.278  0.00  0.00    -0.454 OA
BRANCH  25  26
ATOM     26  C   UNL     1       9.805  -2.389  -0.287  0.00  0.00    +0.129 A 
ATOM     27  C   UNL     1      10.648  -2.244   0.806  0.00  0.00    +0.046 A 
ATOM     28  C   UNL     1      11.899  -2.828   0.795  0.00  0.00    +0.007 A 
ATOM     29  C   UNL     1      12.313  -3.557  -0.305  0.00  0.00    -0.044 A 
ATOM     30  C   UNL     1      11.476  -3.703  -1.396  0.00  0.00    +0.007 A 
ATOM     31  C   UNL     1      10.221  -3.126  -1.387  0.00  0.00    +0.046 A 
BRANCH  29  32
ATOM     32  C   UNL     1      13.680  -4.192  -0.315  0.00  0.00    +0.019 C 
ATOM     33  C   UNL     1      14.493  -3.634  -1.485  0.00  0.00    +0.008 C 
ATOM     34  C   UNL     1      15.881  -4.279  -1.495  0.00  0.00    +0.001 C 
ATOM     35  C   UNL     1      15.737  -5.794  -1.651  0.00  0.00    +0.000 C 
ATOM     36  C   UNL     1      14.924  -6.352  -0.481  0.00  0.00    +0.001 C 
ATOM     37  C   UNL     1      13.537  -5.707  -0.471  0.00  0.00    +0.008 C 
ENDBRANCH  29  32
ENDBRANCH  25  26
ENDBRANCH   6  25
TORSDOF 7
