REMARK  Name = ZINC09310799
REMARK  9 active torsions:
REMARK  status: ('A' for Active; 'I' for Inactive)
REMARK    1  A    between atoms: C_1  and  C_2
REMARK    2  A    between atoms: C_2  and  C_3
REMARK    3  A    between atoms: C_6  and  N_9
REMARK    4  A    between atoms: C_10  and  C_12
REMARK    5  A    between atoms: C_12  and  C_33
REMARK    6  A    between atoms: C_13  and  C_14
REMARK    7  A    between atoms: C_17  and  O_21
REMARK    8  A    between atoms: O_21  and  C_22
REMARK    9  A    between atoms: C_22  and  C_23
REMARK                            x       y       z     vdW  Elec       q    Type
REMARK                         _______ _______ _______ _____ _____    ______ ____
ROOT
ATOM      1  C   UNL     1       0.161  -0.843   1.013  0.00  0.00    -0.022 A 
ATOM      2  C   UNL     1       0.942  -1.935   1.417  0.00  0.00    +0.011 A 
ATOM      3  C   UNL     1       2.170  -1.725   1.978  0.00  0.00    +0.047 A 
ATOM      4  C   UNL     1       2.650  -0.432   2.151  0.00  0.00    +0.135 A 
ATOM      5  C   UNL     1       1.884   0.660   1.753  0.00  0.00    +0.060 A 
ATOM      6  C   UNL     1       0.644   0.462   1.187  0.00  0.00    +0.027 A 
ATOM      7 BR   UNL     1       2.544   2.416   1.992  0.00  0.00    -0.046 Br
ENDROOT
BRANCH   1   9
ATOM      8  C   UNL     1      -1.311  -2.012  -0.578  0.00  0.00    +0.114 C 
ATOM      9  C   UNL     1      -1.156  -1.065   0.411  0.00  0.00    +0.032 C 
BRANCH   8  11
ATOM     10  N   UNL     1      -0.273  -3.623  -2.091  0.00  0.00    -0.281 N 
ATOM     11  C   UNL     1      -0.128  -2.605  -1.220  0.00  0.00    +0.259 C 
ATOM     12  O   UNL     1       0.982  -2.177  -0.964  0.00  0.00    -0.269 OA
ATOM     13  H   UNL     1      -1.147  -4.021  -2.230  0.00  0.00    +0.155 HD
BRANCH  10  17
ATOM     14  C   UNL     1       3.027  -5.056  -4.190  0.00  0.00    -0.048 A 
ATOM     15  C   UNL     1       2.007  -5.920  -3.834  0.00  0.00    +0.005 A 
ATOM     16  C   UNL     1       0.912  -5.448  -3.138  0.00  0.00    +0.023 A 
ATOM     17  C   UNL     1       0.835  -4.104  -2.796  0.00  0.00    +0.034 A 
ATOM     18  C   UNL     1       1.858  -3.238  -3.159  0.00  0.00    +0.023 A 
ATOM     19  C   UNL     1       2.953  -3.717  -3.850  0.00  0.00    +0.005 A 
BRANCH  14  21
ATOM     20  C   UNL     1       3.954  -5.471  -6.452  0.00  0.00    +0.009 C 
ATOM     21  C   UNL     1       4.221  -5.574  -4.949  0.00  0.00    +0.032 C 
ENDBRANCH  14  21
ENDBRANCH  10  17
ENDBRANCH   8  11
BRANCH   8  22
ATOM     22  C   UNL     1      -2.624  -2.419  -0.980  0.00  0.00    +0.104 C 
ATOM     23  N   UNL     1      -3.665  -2.742  -1.299  0.00  0.00    -0.191 NA
ENDBRANCH   8  22
ENDBRANCH   1   9
BRANCH   4  24
ATOM     24  O   UNL     1       3.871  -0.233   2.709  0.00  0.00    -0.486 OA
BRANCH  24  25
ATOM     25  C   UNL     1       4.605  -1.397   3.094  0.00  0.00    +0.265 C 
BRANCH  25  26
ATOM     26  C   UNL     1       5.926  -0.983   3.690  0.00  0.00    -0.003 A 
ATOM     27  C   UNL     1       6.251   0.336   3.784  0.00  0.00    +0.007 A 
ATOM     28  C   UNL     1       7.465   0.738   4.338  0.00  0.00    +0.001 A 
ATOM     29  C   UNL     1       8.366  -0.177   4.790  0.00  0.00    +0.008 A 
ATOM     30  C   UNL     1       8.068  -1.547   4.704  0.00  0.00    -0.018 A 
ATOM     31  C   UNL     1       6.831  -1.956   4.147  0.00  0.00    -0.011 A 
ATOM     32  C   UNL     1       6.534  -3.327   4.060  0.00  0.00    +0.009 A 
ATOM     33  C   UNL     1       7.435  -4.241   4.512  0.00  0.00    +0.001 A 
ATOM     34  C   UNL     1       8.652  -3.839   5.060  0.00  0.00    +0.001 A 
ATOM     35  C   UNL     1       8.974  -2.521   5.160  0.00  0.00    +0.008 A 
ENDBRANCH  25  26
ENDBRANCH  24  25
ENDBRANCH   4  24
TORSDOF 8
