REMARK  Name = ZINC12382714
REMARK  14 active torsions:
REMARK  status: ('A' for Active; 'I' for Inactive)
REMARK    1  A    between atoms: C_1  and  C_2
REMARK    2  A    between atoms: C_2  and  C_3
REMARK    3  A    between atoms: C_2  and  O_4
REMARK    4  A    between atoms: O_4  and  C_5
REMARK    5  A    between atoms: C_5  and  C_7
REMARK    6  A    between atoms: C_11  and  N_13
REMARK    7  A    between atoms: C_14  and  C_16
REMARK    8  A    between atoms: C_16  and  S_17
REMARK    9  A    between atoms: S_17  and  C_18
REMARK   10  A    between atoms: C_21  and  C_24
REMARK   11  A    between atoms: N_22  and  C_23
REMARK   12  A    between atoms: C_24  and  N_25
REMARK   13  A    between atoms: C_26  and  C_28
REMARK   14  A    between atoms: C_32  and  N_34
REMARK                            x       y       z     vdW  Elec       q    Type
REMARK                         _______ _______ _______ _____ _____    ______ ____
ROOT
ATOM      1  C   UNL     1      -5.207   0.723   0.262  0.00  0.00    +0.192 A 
ATOM      2  N   UNL     1      -5.080  -0.581   0.344  0.00  0.00    -0.122 NA
ATOM      3  N   UNL     1      -6.239  -1.128   0.440  0.00  0.00    -0.132 NA
ATOM      4  C   UNL     1      -7.168  -0.214   0.417  0.00  0.00    +0.151 A 
ATOM      5  N   UNL     1      -6.544   0.998   0.303  0.00  0.00    -0.308 N 
ATOM      6  C   UNL     1      -7.179   2.316   0.238  0.00  0.00    +0.152 C 
ENDROOT
BRANCH   1   7
ATOM      7  S   UNL     1      -3.901   1.897   0.118  0.00  0.00    -0.077 S 
BRANCH   7   8
ATOM      8  C   UNL     1      -2.475   0.782   0.133  0.00  0.00    +0.173 C 
BRANCH   8  10
ATOM      9  N   UNL     1      -0.011   0.966   0.007  0.00  0.00    -0.285 N 
ATOM     10  C   UNL     1      -1.206   1.588   0.017  0.00  0.00    +0.227 C 
ATOM     11  O   UNL     1      -1.262   2.797  -0.067  0.00  0.00    -0.275 OA
ATOM     12  H   UNL     1       0.031  -0.003   0.007  0.00  0.00    +0.155 HD
BRANCH   9  17
ATOM     13  C   UNL     1       3.463   2.017   0.653  0.00  0.00    +0.061 A 
ATOM     14  C   UNL     1       3.503   3.223  -0.051  0.00  0.00    +0.015 A 
ATOM     15  C   UNL     1       2.383   3.665  -0.724  0.00  0.00    +0.003 A 
ATOM     16  C   UNL     1       1.221   2.916  -0.710  0.00  0.00    +0.023 A 
ATOM     17  C   UNL     1       1.169   1.718  -0.008  0.00  0.00    +0.034 A 
ATOM     18  C   UNL     1       2.289   1.264   0.672  0.00  0.00    +0.038 A 
BRANCH  13  19
ATOM     19  C   UNL     1       4.661   1.541   1.375  0.00  0.00    +0.339 C 
ATOM     20  O   UNL     1       4.624   0.492   1.986  0.00  0.00    -0.245 OA
BRANCH  19  21
ATOM     21  O   UNL     1       5.794   2.270   1.355  0.00  0.00    -0.458 OA
BRANCH  21  23
ATOM     22  C   UNL     1       8.227   2.193   1.411  0.00  0.00    +0.052 C 
ATOM     23  C   UNL     1       6.931   1.740   2.086  0.00  0.00    +0.171 C 
ATOM     24  C   UNL     1       6.898   2.258   3.526  0.00  0.00    +0.052 C 
ENDBRANCH  21  23
ENDBRANCH  19  21
ENDBRANCH  13  19
ENDBRANCH   9  17
ENDBRANCH   8  10
ENDBRANCH   7   8
ENDBRANCH   1   7
BRANCH   4  25
ATOM     25  C   UNL     1      -8.654  -0.449   0.502  0.00  0.00    +0.181 C 
BRANCH  25  26
ATOM     26  N   UNL     1      -9.198  -0.623  -0.847  0.00  0.00    -0.304 N 
ATOM     27  C   UNL     1     -10.516  -0.848  -1.019  0.00  0.00    +0.244 C 
ATOM     28  O   UNL     1     -11.253  -0.905  -0.054  0.00  0.00    -0.270 OA
ATOM     29  H   UNL     1      -8.610  -0.577  -1.617  0.00  0.00    +0.149 HD
BRANCH  27  30
ATOM     30  C   UNL     1     -11.065  -1.023  -2.380  0.00  0.00    +0.039 A 
ATOM     31  C   UNL     1     -10.222  -0.952  -3.490  0.00  0.00    +0.013 A 
ATOM     32  C   UNL     1     -10.740  -1.121  -4.758  0.00  0.00    +0.003 A 
ATOM     33  C   UNL     1     -12.094  -1.351  -4.930  0.00  0.00    +0.033 A 
ATOM     34  C   UNL     1     -12.935  -1.418  -3.834  0.00  0.00    +0.127 A 
ATOM     35  C   UNL     1     -12.429  -1.256  -2.561  0.00  0.00    +0.045 A 
BRANCH  34  36
ATOM     36  N   UNL     1     -14.382  -1.664  -4.028  0.00  0.00    +0.056 N 
ATOM     37  O   UNL     1     -15.124  -1.723  -3.064  0.00  0.00    -0.126 OA
ATOM     38  O   UNL     1     -14.830  -1.808  -5.151  0.00  0.00    -0.126 OA
ENDBRANCH  34  36
ENDBRANCH  27  30
ENDBRANCH  25  26
ENDBRANCH   4  25
TORSDOF 11
