REMARK  Name = ZINC30852889
REMARK  11 active torsions:
REMARK  status: ('A' for Active; 'I' for Inactive)
REMARK    1  A    between atoms: C_1  and  C_2
REMARK    2  A    between atoms: C_2  and  C_3
REMARK    3  A    between atoms: C_2  and  C_4
REMARK    4  A    between atoms: C_4  and  C_5
REMARK    5  A    between atoms: C_5  and  C_7
REMARK    6  A    between atoms: C_5  and  N_13
REMARK    7  A    between atoms: C_14  and  C_16
REMARK    8  A    between atoms: C_18  and  S_24
REMARK    9  A    between atoms: C_21  and  O_22
REMARK   10  A    between atoms: O_22  and  C_23
REMARK   11  A    between atoms: S_24  and  N_27
REMARK                            x       y       z     vdW  Elec       q    Type
REMARK                         _______ _______ _______ _____ _____    ______ ____
ROOT
ATOM      1  C   UNL     1       5.401  -0.895  -2.468  0.00  0.00    +0.080 A 
ATOM      2  C   UNL     1       4.861  -0.692  -1.195  0.00  0.00    +0.045 A 
ATOM      3  C   UNL     1       3.970  -1.603  -0.672  0.00  0.00    +0.106 A 
ATOM      4  C   UNL     1       3.610  -2.725  -1.401  0.00  0.00    +0.032 A 
ATOM      5  C   UNL     1       4.131  -2.936  -2.662  0.00  0.00    +0.048 A 
ATOM      6  C   UNL     1       5.029  -2.029  -3.204  0.00  0.00    +0.132 A 
ENDROOT
BRANCH   1   8
ATOM      7  N   UNL     1       6.709   1.166  -2.322  0.00  0.00    -0.304 N 
ATOM      8  C   UNL     1       6.355   0.077  -3.034  0.00  0.00    +0.248 C 
ATOM      9  O   UNL     1       6.822  -0.104  -4.142  0.00  0.00    -0.270 OA
ATOM     10  H   UNL     1       6.225   1.373  -1.357  0.00  0.00    +0.150 HD
BRANCH   7  11
ATOM     11  C   UNL     1       7.739   2.072  -2.835  0.00  0.00    +0.104 C 
BRANCH  11  12
ATOM     12  C   UNL     1       7.587   3.424  -2.187  0.00  0.00    -0.027 A 
ATOM     13  C   UNL     1       7.268   3.515  -0.845  0.00  0.00    +0.005 A 
ATOM     14  C   UNL     1       7.132   4.755  -0.248  0.00  0.00    +0.000 A 
ATOM     15  C   UNL     1       7.306   5.904  -0.997  0.00  0.00    +0.000 A 
ATOM     16  C   UNL     1       7.620   5.813  -2.340  0.00  0.00    +0.000 A 
ATOM     17  C   UNL     1       7.760   4.573  -2.935  0.00  0.00    +0.005 A 
ENDBRANCH  11  12
BRANCH  11  18
ATOM     18  C   UNL     1       9.123   1.506  -2.514  0.00  0.00    +0.030 C 
BRANCH  18  20
ATOM     19  C   UNL     1      11.581   1.894  -2.736  0.00  0.00    +0.007 C 
ATOM     20  C   UNL     1      10.196   2.374  -3.174  0.00  0.00    -0.015 C 
ATOM     21  C   UNL     1      10.075   2.265  -4.695  0.00  0.00    +0.007 C 
ENDBRANCH  18  20
ENDBRANCH  11  18
ENDBRANCH   7  11
ENDBRANCH   1   8
BRANCH   3  22
ATOM     22  S   UNL     1       3.292  -1.345   0.933  0.00  0.00    +0.061 S 
ATOM     23  O   UNL     1       4.207  -0.512   1.632  0.00  0.00    -0.153 OA
ATOM     24  O   UNL     1       2.900  -2.622   1.419  0.00  0.00    -0.153 OA
BRANCH  22  25
ATOM     25  N   UNL     1       1.902  -0.465   0.742  0.00  0.00    -0.177 NA
ATOM     26  C   UNL     1       0.611  -1.138   0.547  0.00  0.00    +0.109 C 
ATOM     27  C   UNL     1      -0.046  -0.586  -0.722  0.00  0.00    +0.017 C 
ATOM     28  C   UNL     1      -0.141   0.938  -0.622  0.00  0.00    +0.003 C 
ATOM     29  C   UNL     1       1.266   1.531  -0.509  0.00  0.00    +0.017 C 
ATOM     30  C   UNL     1       1.937   1.004   0.763  0.00  0.00    +0.109 C 
ENDBRANCH  22  25
ENDBRANCH   3  22
BRANCH   6  31
ATOM     31  O   UNL     1       5.546  -2.237  -4.441  0.00  0.00    -0.494 OA
ATOM     32  C   UNL     1       5.122  -3.414  -5.131  0.00  0.00    +0.277 C 
ENDBRANCH   6  31
TORSDOF 8
