REMARK  Name = ZINC13064931
REMARK  13 active torsions:
REMARK  status: ('A' for Active; 'I' for Inactive)
REMARK    1  A    between atoms: C_1  and  C_2
REMARK    2  A    between atoms: C_2  and  C_3
REMARK    3  A    between atoms: C_3  and  C_5
REMARK    4  A    between atoms: C_3  and  N_69
REMARK    5  A    between atoms: N_9  and  C_10
REMARK    6  A    between atoms: C_10  and  C_11
REMARK    7  A    between atoms: C_16  and  C_17
REMARK    8  A    between atoms: C_16  and  N_69
REMARK    9  A    between atoms: C_20  and  C_23
REMARK   10  A    between atoms: C_24  and  C_25
REMARK   11  A    between atoms: C_24  and  N_69
REMARK   12  A    between atoms: C_28  and  C_38
REMARK   13  A    between atoms: C_30  and  C_37
REMARK                            x       y       z     vdW  Elec       q    Type
REMARK                         _______ _______ _______ _____ _____    ______ ____
ROOT
ATOM      1  N   UNL     1      -2.026   1.273  -1.321  0.00  0.00    +0.392 N 
ATOM      2  H   UNL     1      -2.648   1.591  -2.073  0.00  0.00    -0.080 HD
ENDROOT
BRANCH   1   3
ATOM      3  C   UNL     1      -0.627   1.560  -1.703  0.00  0.00    +0.003 C 
BRANCH   3   4
ATOM      4  C   UNL     1      -0.469   1.306  -3.180  0.00  0.00    +0.139 A 
ATOM      5  N   UNL     1      -0.904   0.265  -3.847  0.00  0.00    -0.115 NA
ATOM      6  N   UNL     1      -0.576   0.418  -5.083  0.00  0.00    -0.023 NA
ATOM      7  N   UNL     1       0.065   1.526  -5.221  0.00  0.00    -0.044 NA
ATOM      8  N   UNL     1       0.151   2.103  -4.071  0.00  0.00    -0.223 N 
BRANCH   8   9
ATOM      9  C   UNL     1       0.803   3.384  -3.786  0.00  0.00    +0.221 C 
BRANCH   9  10
ATOM     10  C   UNL     1       2.250   3.146  -3.441  0.00  0.00    +0.126 A 
ATOM     11  C   UNL     1       3.272   3.114  -4.316  0.00  0.00    +0.046 A 
ATOM     12  C   UNL     1       4.445   2.867  -3.566  0.00  0.00    +0.041 A 
ATOM     13  C   UNL     1       4.069   2.753  -2.279  0.00  0.00    +0.195 A 
ATOM     14  O   UNL     1       2.738   2.923  -2.210  0.00  0.00    -0.466 OA
ENDBRANCH   9  10
ENDBRANCH   8   9
ENDBRANCH   3   4
BRANCH   3  16
ATOM     15  C   UNL     1       0.281   1.018   0.561  0.00  0.00    +0.002 C 
ATOM     16  C   UNL     1       0.335   0.659  -0.926  0.00  0.00    -0.011 C 
ENDBRANCH   3  16
ENDBRANCH   1   3
BRANCH   1  17
ATOM     17  C   UNL     1      -2.209  -0.181  -1.129  0.00  0.00    -0.042 C 
BRANCH  17  18
ATOM     18  C   UNL     1      -3.685  -0.486  -1.123  0.00  0.00    -0.064 A 
ATOM     19  C   UNL     1      -4.362  -0.598   0.077  0.00  0.00    +0.002 A 
ATOM     20  C   UNL     1      -5.716  -0.873   0.084  0.00  0.00    +0.003 A 
ATOM     21  C   UNL     1      -6.392  -1.046  -1.110  0.00  0.00    -0.050 A 
ATOM     22  C   UNL     1      -5.714  -0.939  -2.310  0.00  0.00    +0.003 A 
ATOM     23  C   UNL     1      -4.360  -0.659  -2.316  0.00  0.00    +0.002 A 
ATOM     24  C   UNL     1      -7.868  -1.351  -1.103  0.00  0.00    +0.044 C 
ENDBRANCH  17  18
ENDBRANCH   1  17
BRANCH   1  25
ATOM     25  C   UNL     1      -2.368   1.994  -0.077  0.00  0.00    -0.036 C 
BRANCH  25  26
ATOM     26  C   UNL     1      -2.679   3.428  -0.421  0.00  0.00    +0.001 A 
ATOM     27  C   UNL     1      -3.957   3.798  -0.682  0.00  0.00    +0.017 A 
ATOM     28  C   UNL     1      -4.226   5.198  -1.012  0.00  0.00    +0.002 A 
ATOM     29  C   UNL     1      -5.523   5.640  -1.291  0.00  0.00    -0.041 A 
ATOM     30  C   UNL     1      -5.741   6.954  -1.595  0.00  0.00    +0.007 A 
ATOM     31  C   UNL     1      -4.686   7.855  -1.631  0.00  0.00    -0.048 A 
ATOM     32  C   UNL     1      -3.399   7.442  -1.361  0.00  0.00    +0.029 A 
ATOM     33  C   UNL     1      -3.153   6.109  -1.048  0.00  0.00    +0.050 A 
ATOM     34  N   UNL     1      -1.876   5.669  -0.772  0.00  0.00    -0.322 N 
ATOM     35  H   UNL     1      -1.138   6.298  -0.796  0.00  0.00    +0.169 HD
ATOM     36  C   UNL     1      -1.639   4.382  -0.464  0.00  0.00    +0.251 A 
ATOM     37  O   UNL     1      -0.498   4.029  -0.221  0.00  0.00    -0.268 OA
ATOM     38  C   UNL     1      -4.950   9.299  -1.970  0.00  0.00    +0.044 C 
ATOM     39  C   UNL     1      -6.676   4.670  -1.255  0.00  0.00    +0.044 C 
ENDBRANCH  25  26
ENDBRANCH   1  25
TORSDOF 9
