REMARK  Name = ZINC34990216
REMARK  6 active torsions:
REMARK  status: ('A' for Active; 'I' for Inactive)
REMARK    1  A    between atoms: C_1  and  C_2
REMARK    2  A    between atoms: C_7  and  C_12
REMARK    3  A    between atoms: C_12  and  C_13
REMARK    4  A    between atoms: C_14  and  C_27
REMARK    5  A    between atoms: C_31  and  O_33
REMARK    6  A    between atoms: O_33  and  C_34
REMARK                            x       y       z     vdW  Elec       q    Type
REMARK                         _______ _______ _______ _____ _____    ______ ____
ROOT
ATOM      1  C   UNL     1      -1.926  -6.073   3.028  0.00  0.00    +0.077 C 
ATOM      2  C   UNL     1      -0.616  -6.036   3.779  0.00  0.00    +0.151 C 
ATOM      3  N   UNL     1      -0.526  -7.308   4.506  0.00  0.00    -0.237 N 
ATOM      4  C   UNL     1      -1.633  -8.021   4.231  0.00  0.00    +0.293 C 
ATOM      5  O   UNL     1      -1.878  -9.126   4.673  0.00  0.00    -0.266 OA
ATOM      6  C   UNL     1      -2.510  -7.259   3.319  0.00  0.00    +0.250 C 
ATOM      7  O   UNL     1      -3.706  -7.680   2.847  0.00  0.00    -0.282 OA
ATOM      8  C   UNL     1       0.521  -7.707   5.332  0.00  0.00    +0.129 A 
ATOM      9  C   UNL     1       1.555  -6.820   5.612  0.00  0.00    +0.044 A 
ATOM     10  C   UNL     1       2.589  -7.229   6.435  0.00  0.00    +0.005 A 
ATOM     11  C   UNL     1       2.554  -8.517   6.953  0.00  0.00    +0.020 A 
ATOM     12  C   UNL     1       1.496  -9.345   6.633  0.00  0.00    +0.113 A 
ATOM     13  N   UNL     1       0.521  -8.925   5.850  0.00  0.00    -0.240 NA
ENDROOT
BRANCH   2  14
ATOM     14  C   UNL     1       0.533  -5.909   2.812  0.00  0.00    -0.019 A 
ATOM     15  C   UNL     1       0.912  -6.995   2.044  0.00  0.00    +0.006 A 
ATOM     16  C   UNL     1       1.965  -6.881   1.155  0.00  0.00    +0.004 A 
ATOM     17  C   UNL     1       2.642  -5.683   1.033  0.00  0.00    +0.046 A 
ATOM     18  C   UNL     1       2.263  -4.592   1.802  0.00  0.00    +0.129 A 
ATOM     19  C   UNL     1       1.202  -4.707   2.689  0.00  0.00    +0.052 A 
BRANCH  18  20
ATOM     20  O   UNL     1       2.926  -3.413   1.683  0.00  0.00    -0.456 OA
BRANCH  20  21
ATOM     21  C   UNL     1       2.462  -2.346   2.386  0.00  0.00    +0.128 A 
ATOM     22  C   UNL     1       2.704  -2.254   3.750  0.00  0.00    +0.046 A 
ATOM     23  C   UNL     1       2.231  -1.169   4.462  0.00  0.00    +0.004 A 
ATOM     24  C   UNL     1       1.517  -0.176   3.818  0.00  0.00    +0.000 A 
ATOM     25  C   UNL     1       1.274  -0.265   2.459  0.00  0.00    +0.004 A 
ATOM     26  C   UNL     1       1.751  -1.345   1.741  0.00  0.00    +0.046 A 
ENDBRANCH  20  21
ENDBRANCH  18  20
ENDBRANCH   2  14
BRANCH   1  27
ATOM     27  C   UNL     1      -2.464  -5.024   2.156  0.00  0.00    +0.195 C 
ATOM     28  O   UNL     1      -2.725  -5.272   0.994  0.00  0.00    -0.287 OA
BRANCH  27  34
ATOM     29  C   UNL     1      -4.337   2.113   2.793  0.00  0.00    +0.052 C 
ATOM     30  C   UNL     1      -3.317   0.973   2.773  0.00  0.00    +0.175 C 
ATOM     31  C   UNL     1      -3.669  -0.059   1.676  0.00  0.00    +0.083 C 
ATOM     32  C   UNL     1      -3.272  -1.366   2.337  0.00  0.00    -0.002 A 
ATOM     33  C   UNL     1      -3.065  -2.625   1.832  0.00  0.00    +0.019 A 
ATOM     34  C   UNL     1      -2.690  -3.666   2.689  0.00  0.00    +0.023 A 
ATOM     35  C   UNL     1      -2.531  -3.408   4.054  0.00  0.00    +0.015 A 
ATOM     36  C   UNL     1      -2.744  -2.144   4.549  0.00  0.00    +0.046 A 
ATOM     37  C   UNL     1      -3.122  -1.105   3.696  0.00  0.00    +0.124 A 
ATOM     38  O   UNL     1      -3.394   0.199   3.982  0.00  0.00    -0.488 OA
ENDBRANCH  27  34
ENDBRANCH   1  27
TORSDOF 5
