REMARK  Name = ZINC56762986
REMARK  7 active torsions:
REMARK  status: ('A' for Active; 'I' for Inactive)
REMARK    1  A    between atoms: C_1  and  C_2
REMARK    2  A    between atoms: C_2  and  C_4
REMARK    3  A    between atoms: C_2  and  N_12
REMARK    4  A    between atoms: C_4  and  C_5
REMARK    5  A    between atoms: C_8  and  O_11
REMARK    6  A    between atoms: N_15  and  N_16
REMARK    7  A    between atoms: C_17  and  C_19
REMARK                            x       y       z     vdW  Elec       q    Type
REMARK                         _______ _______ _______ _____ _____    ______ ____
ROOT
ATOM      1  N   UNL     1       0.711  -0.489   1.189  0.00  0.00    -0.295 N 
ATOM      2  C   UNL     1       2.054  -0.600   1.174  0.00  0.00    +0.316 C 
ATOM      3  O   UNL     1       2.677  -0.297   0.175  0.00  0.00    -0.251 OA
ATOM      4  N   UNL     1       2.706  -1.046   2.266  0.00  0.00    -0.218 N 
ATOM      5  H   UNL     1       0.213  -0.731   1.986  0.00  0.00    +0.151 HD
ATOM      6  H   UNL     1       3.672  -1.126   2.255  0.00  0.00    +0.174 HD
ENDROOT
BRANCH   4   7
ATOM      7  N   UNL     1       1.987  -1.396   3.416  0.00  0.00    -0.229 N 
ATOM      8  C   UNL     1       2.639  -1.842   4.508  0.00  0.00    +0.267 C 
ATOM      9  O   UNL     1       3.852  -1.942   4.495  0.00  0.00    -0.268 OA
ATOM     10  H   UNL     1       1.020  -1.316   3.427  0.00  0.00    +0.173 HD
BRANCH   8  11
ATOM     11  C   UNL     1       1.887  -2.208   5.712  0.00  0.00    +0.076 A 
ATOM     12  C   UNL     1       2.356  -2.675   6.924  0.00  0.00    +0.024 A 
ATOM     13  C   UNL     1       1.408  -2.947   7.907  0.00  0.00    -0.036 A 
ATOM     14  C   UNL     1       0.109  -2.726   7.573  0.00  0.00    -0.006 A 
ATOM     15  S   UNL     1       0.129  -2.158   5.999  0.00  0.00    -0.088 S 
ATOM     16  C   UNL     1      -1.108  -2.938   8.424  0.00  0.00    +0.043 C 
ATOM     17  C   UNL     1      -0.735  -2.762   9.900  0.00  0.00    +0.005 C 
ATOM     18  C   UNL     1      -0.290  -4.111  10.455  0.00  0.00    +0.001 C 
ATOM     19  C   UNL     1       0.933  -4.625   9.700  0.00  0.00    +0.005 C 
ATOM     20  C   UNL     1       1.827  -3.462   9.279  0.00  0.00    +0.036 C 
ENDBRANCH   8  11
ENDBRANCH   4   7
BRANCH   1  22
ATOM     21  C   UNL     1      -0.019   1.526   0.010  0.00  0.00    +0.028 C 
ATOM     22  C   UNL     1       0.002  -0.004   0.002  0.00  0.00    +0.076 C 
BRANCH  22  23
ATOM     23  C   UNL     1      -1.433  -0.534   0.013  0.00  0.00    +0.057 C 
BRANCH  23  24
ATOM     24  C   UNL     1      -1.416  -2.035  -0.119  0.00  0.00    -0.045 A 
ATOM     25  C   UNL     1      -1.450  -2.618  -1.373  0.00  0.00    +0.007 A 
ATOM     26  C   UNL     1      -1.434  -3.994  -1.496  0.00  0.00    +0.045 A 
ATOM     27  C   UNL     1      -1.385  -4.790  -0.362  0.00  0.00    +0.117 A 
ATOM     28  C   UNL     1      -1.350  -4.203   0.895  0.00  0.00    +0.045 A 
ATOM     29  C   UNL     1      -1.360  -2.827   1.013  0.00  0.00    +0.007 A 
BRANCH  27  30
ATOM     30  O   UNL     1      -1.370  -6.144  -0.481  0.00  0.00    -0.507 OA
ATOM     31  H   UNL     1      -0.483  -6.524  -0.545  0.00  0.00    +0.292 HD
ENDBRANCH  27  30
ENDBRANCH  23  24
ENDBRANCH  22  23
ENDBRANCH   1  22
TORSDOF 6
