REMARK  Name = ZINC59645499
REMARK  10 active torsions:
REMARK  status: ('A' for Active; 'I' for Inactive)
REMARK    1  A    between atoms: C_1  and  C_2
REMARK    2  A    between atoms: C_4  and  C_24
REMARK    3  A    between atoms: C_5  and  C_23
REMARK    4  A    between atoms: N_6  and  C_7
REMARK    5  A    between atoms: C_10  and  S_13
REMARK    6  A    between atoms: S_13  and  C_14
REMARK    7  A    between atoms: C_17  and  N_20
REMARK    8  A    between atoms: N_25  and  N_26
REMARK    9  A    between atoms: C_27  and  C_29
REMARK   10  A    between atoms: C_29  and  C_30
REMARK                            x       y       z     vdW  Elec       q    Type
REMARK                         _______ _______ _______ _____ _____    ______ ____
ROOT
ATOM      1  C   UNL     1      -0.037   1.520   0.011  0.00  0.00    +0.064 C 
ATOM      2  C   UNL     1       0.000   0.014  -0.001  0.00  0.00    +0.022 A 
ATOM      3  C   UNL     1       0.012  -0.760  -1.102  0.00  0.00    +0.032 A 
ATOM      4  C   UNL     1       0.050  -2.149  -0.637  0.00  0.00    +0.016 A 
ATOM      5  C   UNL     1       0.057  -2.096   0.728  0.00  0.00    +0.030 A 
ATOM      6  N   UNL     1       0.032  -0.789   1.103  0.00  0.00    -0.317 N 
ATOM      7  C   UNL     1       0.093  -3.281   1.657  0.00  0.00    +0.064 C 
ENDROOT
BRANCH   6   8
ATOM      8  C   UNL     1       0.036  -0.333   2.430  0.00  0.00    +0.047 A 
ATOM      9  C   UNL     1       1.143  -0.555   3.237  0.00  0.00    +0.027 A 
ATOM     10  C   UNL     1       1.147  -0.106   4.542  0.00  0.00    +0.017 A 
ATOM     11  C   UNL     1       0.043   0.568   5.048  0.00  0.00    +0.013 A 
ATOM     12  C   UNL     1      -1.065   0.790   4.240  0.00  0.00    +0.017 A 
ATOM     13  C   UNL     1      -1.066   0.346   2.933  0.00  0.00    +0.027 A 
BRANCH  11  14
ATOM     14  S   UNL     1       0.046   1.140   6.715  0.00  0.00    -0.089 S 
BRANCH  14  15
ATOM     15  C   UNL     1       1.546   0.499   7.382  0.00  0.00    +0.013 A 
ATOM     16  C   UNL     1       2.693   1.285   7.397  0.00  0.00    +0.017 A 
ATOM     17  C   UNL     1       3.866   0.780   7.921  0.00  0.00    +0.034 A 
ATOM     18  C   UNL     1       3.902  -0.506   8.429  0.00  0.00    +0.126 A 
ATOM     19  C   UNL     1       2.763  -1.290   8.416  0.00  0.00    +0.034 A 
ATOM     20  C   UNL     1       1.584  -0.790   7.899  0.00  0.00    +0.017 A 
BRANCH  18  21
ATOM     21  N   UNL     1       5.162  -1.044   8.989  0.00  0.00    +0.056 N 
ATOM     22  O   UNL     1       6.159  -0.360   9.002  0.00  0.00    -0.126 OA
ATOM     23  O   UNL     1       5.195  -2.168   9.434  0.00  0.00    -0.126 OA
ENDBRANCH  18  21
ENDBRANCH  14  15
ENDBRANCH  11  14
ENDBRANCH   6   8
BRANCH   4  24
ATOM     24  C   UNL     1       0.074  -3.362  -1.475  0.00  0.00    +0.140 C 
ATOM     25  N   UNL     1       0.106  -4.534  -0.919  0.00  0.00    -0.188 NA
BRANCH  25  26
ATOM     26  N   UNL     1       0.129  -5.687  -1.715  0.00  0.00    -0.207 N 
ATOM     27  C   UNL     1       0.163  -6.904  -1.138  0.00  0.00    +0.238 C 
ATOM     28  O   UNL     1       0.173  -7.002   0.071  0.00  0.00    -0.274 OA
ATOM     29  H   UNL     1       0.121  -5.609  -2.682  0.00  0.00    +0.177 HD
BRANCH  27  30
ATOM     30  C   UNL     1       0.188  -8.144  -1.994  0.00  0.00    +0.153 C 
BRANCH  30  31
ATOM     31  C   UNL     1       0.223  -9.364  -1.111  0.00  0.00    +0.059 A 
ATOM     32  C   UNL     1      -0.697 -10.351  -1.230  0.00  0.00    +0.072 A 
ATOM     33  S   UNL     1      -0.145 -11.477   0.040  0.00  0.00    -0.061 S 
ATOM     34  C   UNL     1       1.178 -10.588   0.581  0.00  0.00    +0.156 A 
ATOM     35  N   UNL     1       1.157  -9.522  -0.189  0.00  0.00    -0.230 NA
ATOM     36  N   UNL     1       2.074 -10.906   1.589  0.00  0.00    -0.338 N 
ATOM     37  H   UNL     1       1.976 -11.735   2.082  0.00  0.00    +0.144 HD
ATOM     38  H   UNL     1       2.799 -10.298   1.802  0.00  0.00    +0.144 HD
ENDBRANCH  30  31
ENDBRANCH  27  30
ENDBRANCH  25  26
ENDBRANCH   4  24
TORSDOF 8
