REMARK  Name = ZINC06537067
REMARK  7 active torsions:
REMARK  status: ('A' for Active; 'I' for Inactive)
REMARK    1  A    between atoms: C_1  and  C_2
REMARK    2  A    between atoms: C_10  and  S_12
REMARK    3  A    between atoms: S_12  and  C_13
REMARK    4  A    between atoms: C_13  and  C_14
REMARK    5  A    between atoms: C_20  and  C_28
REMARK    6  A    between atoms: C_21  and  C_25
REMARK    7  A    between atoms: C_25  and  C_27
REMARK                            x       y       z     vdW  Elec       q    Type
REMARK                         _______ _______ _______ _____ _____    ______ ____
ROOT
ATOM      1  C   UNL     1       0.128  -8.426   1.625  0.00  0.00    +0.121 A 
ATOM      2  N   UNL     1       0.144  -9.488   0.783  0.00  0.00    -0.310 N 
ATOM      3  H   UNL     1       0.140  -9.335  -0.175  0.00  0.00    +0.170 HD
ATOM      4  C   UNL     1       0.165 -10.752   1.248  0.00  0.00    +0.260 A 
ATOM      5  O   UNL     1       0.180 -11.700   0.483  0.00  0.00    -0.267 OA
ATOM      6  C   UNL     1       0.171 -10.960   2.715  0.00  0.00    +0.076 A 
ATOM      7  C   UNL     1       0.192 -12.155   3.433  0.00  0.00    -0.018 A 
ATOM      8  C   UNL     1       0.195 -12.119   4.812  0.00  0.00    +0.060 A 
ATOM      9  S   UNL     1       0.167 -10.368   5.159  0.00  0.00    -0.065 S 
ATOM     10  C   UNL     1       0.153  -9.774   3.486  0.00  0.00    +0.116 A 
ATOM     11  N   UNL     1       0.138  -8.573   2.922  0.00  0.00    -0.226 NA
ATOM     12  C   UNL     1       0.212 -13.476   2.709  0.00  0.00    +0.046 C 
ENDROOT
BRANCH   8  13
ATOM     13  C   UNL     1       0.213 -13.198   5.723  0.00  0.00    +0.167 C 
ATOM     14  O   UNL     1       0.231 -14.341   5.310  0.00  0.00    -0.292 OA
ATOM     15  C   UNL     1       0.212 -12.933   7.206  0.00  0.00    +0.092 C 
ENDBRANCH   8  13
BRANCH   1  16
ATOM     16  C   UNL     1       0.105  -7.035   1.047  0.00  0.00    +0.151 C 
BRANCH  16  17
ATOM     17  S   UNL     1       0.096  -5.820   2.394  0.00  0.00    -0.080 S 
BRANCH  17  27
ATOM     18  C   UNL     1      -0.018   1.503   0.010  0.00  0.00    +0.044 C 
ATOM     19  C   UNL     1       0.002  -0.004   0.002  0.00  0.00    -0.048 A 
ATOM     20  C   UNL     1       0.006  -0.686  -1.206  0.00  0.00    +0.005 A 
ATOM     21  C   UNL     1       0.024  -2.063  -1.230  0.00  0.00    +0.030 A 
ATOM     22  C   UNL     1       0.040  -2.778  -0.030  0.00  0.00    +0.090 A 
ATOM     23  C   UNL     1       0.037  -2.082   1.190  0.00  0.00    +0.067 A 
ATOM     24  C   UNL     1       0.023  -0.696   1.196  0.00  0.00    +0.031 A 
ATOM     25  N   UNL     1       0.055  -3.047   2.184  0.00  0.00    -0.333 N 
ATOM     26  H   UNL     1       0.058  -2.887   3.141  0.00  0.00    +0.168 HD
ATOM     27  C   UNL     1       0.069  -4.265   1.566  0.00  0.00    +0.168 A 
ATOM     28  N   UNL     1       0.060  -4.104   0.266  0.00  0.00    -0.222 NA
ENDBRANCH  17  27
ENDBRANCH  16  17
ENDBRANCH   1  16
TORSDOF 4
