REMARK  Name = ZINC06442556
REMARK  8 active torsions:
REMARK  status: ('A' for Active; 'I' for Inactive)
REMARK    1  A    between atoms: C_1  and  C_2
REMARK    2  A    between atoms: C_7  and  C_15
REMARK    3  A    between atoms: C_13  and  C_14
REMARK    4  A    between atoms: C_15  and  C_17
REMARK    5  A    between atoms: C_15  and  N_63
REMARK    6  A    between atoms: N_21  and  C_22
REMARK    7  A    between atoms: C_22  and  C_23
REMARK    8  A    between atoms: C_33  and  C_36
REMARK                            x       y       z     vdW  Elec       q    Type
REMARK                         _______ _______ _______ _____ _____    ______ ____
ROOT
ATOM      1  C   UNL     1      -2.213  -0.489  -1.623  0.00  0.00    +0.039 C 
ENDROOT
BRANCH   1   8
ATOM      2  C   UNL     1      -9.608   1.419   0.678  0.00  0.00    +0.044 C 
ATOM      3  C   UNL     1      -8.171   1.289   0.243  0.00  0.00    -0.046 A 
ATOM      4  C   UNL     1      -7.400   2.430   0.069  0.00  0.00    +0.004 A 
ATOM      5  C   UNL     1      -6.095   2.334  -0.325  0.00  0.00    +0.010 A 
ATOM      6  C   UNL     1      -5.531   1.075  -0.555  0.00  0.00    -0.001 A 
ATOM      7  C   UNL     1      -4.137   0.935  -0.979  0.00  0.00    +0.017 A 
ATOM      8  C   UNL     1      -3.645  -0.311  -1.187  0.00  0.00    +0.011 A 
ATOM      9  C   UNL     1      -4.470  -1.441  -1.003  0.00  0.00    +0.251 A 
ATOM     10  O   UNL     1      -4.009  -2.552  -1.201  0.00  0.00    -0.268 OA
ATOM     11  N   UNL     1      -5.750  -1.323  -0.609  0.00  0.00    -0.322 N 
ATOM     12  H   UNL     1      -6.288  -2.121  -0.488  0.00  0.00    +0.169 HD
ATOM     13  C   UNL     1      -6.310  -0.085  -0.380  0.00  0.00    +0.052 A 
ATOM     14  C   UNL     1      -7.636   0.038   0.022  0.00  0.00    -0.024 A 
ATOM     15  C   UNL     1      -8.485  -1.192   0.216  0.00  0.00    +0.046 C 
ENDBRANCH   1   8
BRANCH   1  22
ATOM     16  C   UNL     1      -0.790  -1.487  -3.309  0.00  0.00    -0.077 C 
ATOM     17  C   UNL     1      -0.779  -2.432  -4.513  0.00  0.00    -0.018 C 
ATOM     18  C   UNL     1      -1.615  -1.822  -5.642  0.00  0.00    -0.001 C 
ATOM     19  C   UNL     1      -3.037  -1.571  -5.135  0.00  0.00    -0.031 C 
ATOM     20  C   UNL     1      -2.983  -0.651  -3.913  0.00  0.00    -0.074 C 
ATOM     21  C   UNL     1      -3.863  -0.906  -6.238  0.00  0.00    +0.005 C 
ATOM     22  N   UNL     1      -2.186  -1.306  -2.854  0.00  0.00    +0.389 N 
ATOM     23  H   UNL     1      -2.592  -2.227  -2.652  0.00  0.00    -0.080 HD
ENDBRANCH   1  22
BRANCH   1  24
ATOM     24  C   UNL     1      -1.591   0.861  -1.869  0.00  0.00    +0.143 A 
ATOM     25  N   UNL     1      -1.895   1.700  -2.829  0.00  0.00    -0.115 NA
ATOM     26  N   UNL     1      -1.141   2.737  -2.705  0.00  0.00    -0.023 NA
ATOM     27  N   UNL     1      -0.367   2.584  -1.688  0.00  0.00    -0.044 NA
ATOM     28  N   UNL     1      -0.616   1.441  -1.144  0.00  0.00    -0.226 N 
BRANCH  28  29
ATOM     29  C   UNL     1       0.042   0.877   0.037  0.00  0.00    +0.182 C 
BRANCH  29  30
ATOM     30  C   UNL     1      -0.627   1.399   1.282  0.00  0.00    -0.026 A 
ATOM     31  C   UNL     1      -0.246   2.618   1.811  0.00  0.00    +0.008 A 
ATOM     32  C   UNL     1      -0.862   3.100   2.951  0.00  0.00    +0.038 A 
ATOM     33  C   UNL     1      -1.853   2.357   3.568  0.00  0.00    +0.123 A 
ATOM     34  C   UNL     1      -2.231   1.134   3.040  0.00  0.00    +0.038 A 
ATOM     35  C   UNL     1      -1.617   0.656   1.898  0.00  0.00    +0.008 A 
ATOM     36  F   UNL     1      -2.453   2.825   4.684  0.00  0.00    -0.205 F 
ENDBRANCH  29  30
ENDBRANCH  28  29
ENDBRANCH   1  24
TORSDOF 5
