REMARK  Name = ZINC34912356
REMARK  4 active torsions:
REMARK  status: ('A' for Active; 'I' for Inactive)
REMARK    1  A    between atoms: C_10  and  N_12
REMARK    2  A    between atoms: C_13  and  C_15
REMARK    3  A    between atoms: N_18  and  C_21
REMARK    4  A    between atoms: C_27  and  C_29
REMARK                            x       y       z     vdW  Elec       q    Type
REMARK                         _______ _______ _______ _____ _____    ______ ____
ROOT
ATOM      1  C   UNL     1       7.280   0.496   0.194  0.00  0.00    +0.071 C 
ATOM      2  C   UNL     1       8.369  -0.238   0.980  0.00  0.00    -0.006 C 
ATOM      3  C   UNL     1       9.034   0.737   1.954  0.00  0.00    -0.078 C 
ATOM      4  N   UNL     1       9.633   1.849   1.206  0.00  0.00    +0.382 N 
ATOM      5  C   UNL     1       8.584   2.602   0.507  0.00  0.00    -0.078 C 
ATOM      6  C   UNL     1       7.903   1.698  -0.523  0.00  0.00    -0.006 C 
ATOM      7  H   UNL     1      10.290   1.484   0.532  0.00  0.00    -0.081 HD
ENDROOT
BRANCH   4   8
ATOM      8  C   UNL     1      10.336   2.741   2.138  0.00  0.00    -0.066 C 
ATOM      9  C   UNL     1      10.960   3.902   1.360  0.00  0.00    +0.004 C 
ATOM     10  C   UNL     1      11.662   4.848   2.338  0.00  0.00    +0.106 C 
ATOM     11  N   UNL     1      12.620   4.075   3.139  0.00  0.00    -0.298 N 
ATOM     12  C   UNL     1      12.143   2.884   3.856  0.00  0.00    +0.106 C 
ATOM     13  C   UNL     1      11.435   1.960   2.861  0.00  0.00    +0.004 C 
ATOM     14  C   UNL     1      13.913   4.449   3.214  0.00  0.00    +0.247 C 
ATOM     15  O   UNL     1      14.681   3.842   3.934  0.00  0.00    -0.270 OA
BRANCH  14  16
ATOM     16  C   UNL     1      14.396   5.599   2.421  0.00  0.00    +0.040 A 
ATOM     17  C   UNL     1      13.717   6.817   2.466  0.00  0.00    +0.033 A 
ATOM     18  C   UNL     1      14.174   7.888   1.723  0.00  0.00    +0.043 A 
ATOM     19  C   UNL     1      15.303   7.754   0.933  0.00  0.00    +0.040 A 
ATOM     20  C   UNL     1      15.981   6.548   0.883  0.00  0.00    +0.043 A 
ATOM     21  C   UNL     1      15.537   5.472   1.627  0.00  0.00    +0.033 A 
ATOM     22 CL   UNL     1      17.395   6.390  -0.111  0.00  0.00    -0.083 Cl
ATOM     23 CL   UNL     1      13.329   9.404   1.778  0.00  0.00    -0.083 Cl
ENDBRANCH  14  16
ENDBRANCH   4   8
BRANCH   1  25
ATOM     24  N   UNL     1       6.066  -1.570  -0.418  0.00  0.00    -0.308 N 
ATOM     25  C   UNL     1       6.674  -0.438  -0.822  0.00  0.00    +0.216 C 
ATOM     26  O   UNL     1       6.735  -0.170  -2.004  0.00  0.00    -0.276 OA
ATOM     27  H   UNL     1       6.018  -1.784   0.527  0.00  0.00    +0.149 HD
BRANCH  24  37
ATOM     28  C   UNL     1       1.565  -1.042  -2.365  0.00  0.00    +0.000 A 
ATOM     29  C   UNL     1       2.624  -0.166  -2.216  0.00  0.00    +0.000 A 
ATOM     30  C   UNL     1       3.877  -0.652  -1.904  0.00  0.00    +0.006 A 
ATOM     31  C   UNL     1       4.083  -2.016  -1.737  0.00  0.00    -0.024 A 
ATOM     32  C   UNL     1       3.028  -2.888  -1.881  0.00  0.00    -0.042 A 
ATOM     33  C   UNL     1       1.768  -2.396  -2.198  0.00  0.00    +0.004 A 
ATOM     34  C   UNL     1       3.175  -4.376  -1.699  0.00  0.00    +0.035 C 
ATOM     35  C   UNL     1       4.644  -4.785  -1.787  0.00  0.00    +0.007 C 
ATOM     36  C   UNL     1       5.452  -3.895  -0.835  0.00  0.00    +0.027 C 
ATOM     37  C   UNL     1       5.478  -2.478  -1.406  0.00  0.00    +0.103 C 
ENDBRANCH  24  37
ENDBRANCH   1  25
TORSDOF 4
