REMARK  Name = ZINC20493147
REMARK  13 active torsions:
REMARK  status: ('A' for Active; 'I' for Inactive)
REMARK    1  A    between atoms: C_1  and  C_2
REMARK    2  A    between atoms: C_2  and  O_3
REMARK    3  A    between atoms: O_3  and  C_4
REMARK    4  A    between atoms: C_9  and  N_10
REMARK    5  A    between atoms: N_10  and  C_11
REMARK    6  A    between atoms: N_10  and  S_27
REMARK    7  A    between atoms: C_11  and  C_12
REMARK    8  A    between atoms: N_14  and  N_15
REMARK    9  A    between atoms: C_16  and  C_17
REMARK   10  A    between atoms: C_20  and  O_23
REMARK   11  A    between atoms: O_23  and  C_24
REMARK   12  A    between atoms: C_24  and  C_26
REMARK   13  A    between atoms: S_27  and  C_30
REMARK                            x       y       z     vdW  Elec       q    Type
REMARK                         _______ _______ _______ _____ _____    ______ ____
ROOT
ATOM      1  N   UNL     1      -3.608  -1.746   0.138  0.00  0.00    -0.191 N 
ENDROOT
BRANCH   1   7
ATOM      2  C   UNL     1      -1.217  -2.084   0.290  0.00  0.00    +0.143 A 
ATOM      3  C   UNL     1      -0.132  -2.940   0.385  0.00  0.00    +0.047 A 
ATOM      4  C   UNL     1      -0.330  -4.308   0.412  0.00  0.00    +0.004 A 
ATOM      5  C   UNL     1      -1.610  -4.827   0.345  0.00  0.00    +0.002 A 
ATOM      6  C   UNL     1      -2.698  -3.980   0.251  0.00  0.00    +0.028 A 
ATOM      7  C   UNL     1      -2.507  -2.606   0.228  0.00  0.00    +0.093 A 
BRANCH   2   8
ATOM      8  O   UNL     1      -1.024  -0.738   0.263  0.00  0.00    -0.490 OA
BRANCH   8  10
ATOM      9  C   UNL     1       0.344   1.254   0.287  0.00  0.00    +0.048 C 
ATOM     10  C   UNL     1       0.327  -0.276   0.330  0.00  0.00    +0.226 C 
ENDBRANCH   8  10
ENDBRANCH   2   8
ENDBRANCH   1   7
BRANCH   1  11
ATOM     11  S   UNL     1      -4.098  -1.179  -1.339  0.00  0.00    +0.075 S 
ATOM     12  O   UNL     1      -4.674   0.100  -1.113  0.00  0.00    -0.150 OA
ATOM     13  O   UNL     1      -3.009  -1.378  -2.231  0.00  0.00    -0.150 OA
BRANCH  11  14
ATOM     14  C   UNL     1      -5.401  -2.228  -1.894  0.00  0.00    +0.109 A 
ATOM     15  C   UNL     1      -5.111  -3.352  -2.644  0.00  0.00    +0.029 A 
ATOM     16  C   UNL     1      -6.134  -4.175  -3.079  0.00  0.00    +0.002 A 
ATOM     17  C   UNL     1      -7.445  -3.873  -2.763  0.00  0.00    +0.000 A 
ATOM     18  C   UNL     1      -7.734  -2.749  -2.012  0.00  0.00    +0.002 A 
ATOM     19  C   UNL     1      -6.712  -1.929  -1.574  0.00  0.00    +0.029 A 
ENDBRANCH  11  14
ENDBRANCH   1  11
BRANCH   1  20
ATOM     20  C   UNL     1      -4.327  -1.347   1.350  0.00  0.00    +0.229 C 
BRANCH  20  21
ATOM     21  C   UNL     1      -3.637  -0.164   1.978  0.00  0.00    +0.251 C 
ATOM     22  O   UNL     1      -2.642   0.301   1.462  0.00  0.00    -0.272 OA
ATOM     23  N   UNL     1      -4.125   0.378   3.111  0.00  0.00    -0.206 N 
ATOM     24  H   UNL     1      -4.921   0.007   3.523  0.00  0.00    +0.177 HD
BRANCH  23  25
ATOM     25  N   UNL     1      -3.483   1.479   3.694  0.00  0.00    -0.188 NA
ATOM     26  C   UNL     1      -3.953   2.001   4.785  0.00  0.00    +0.138 C 
BRANCH  26  27
ATOM     27  C   UNL     1      -3.278   3.159   5.399  0.00  0.00    -0.005 A 
ATOM     28  C   UNL     1      -2.135   3.700   4.804  0.00  0.00    +0.013 A 
ATOM     29  C   UNL     1      -1.508   4.782   5.381  0.00  0.00    +0.047 A 
ATOM     30  C   UNL     1      -2.009   5.336   6.551  0.00  0.00    +0.132 A 
ATOM     31  C   UNL     1      -3.145   4.802   7.146  0.00  0.00    +0.047 A 
ATOM     32  C   UNL     1      -3.782   3.723   6.574  0.00  0.00    +0.013 A 
BRANCH  30  33
ATOM     33  O   UNL     1      -1.387   6.404   7.117  0.00  0.00    -0.426 OA
BRANCH  33  34
ATOM     34  C   UNL     1      -1.447   7.581   6.475  0.00  0.00    +0.309 C 
ATOM     35  O   UNL     1      -2.127   7.694   5.482  0.00  0.00    -0.251 OA
ATOM     36  C   UNL     1      -0.666   8.762   6.992  0.00  0.00    +0.136 C 
ENDBRANCH  33  34
ENDBRANCH  30  33
ENDBRANCH  26  27
ENDBRANCH  23  25
ENDBRANCH  20  21
ENDBRANCH   1  20
TORSDOF 11
