REMARK  Name = ZINC41585106
REMARK  6 active torsions:
REMARK  status: ('A' for Active; 'I' for Inactive)
REMARK    1  A    between atoms: C_1  and  C_2
REMARK    2  A    between atoms: C_4  and  O_33
REMARK    3  A    between atoms: C_5  and  C_20
REMARK    4  A    between atoms: C_11  and  C_12
REMARK    5  A    between atoms: C_20  and  N_21
REMARK    6  A    between atoms: N_24  and  C_27
REMARK                            x       y       z     vdW  Elec       q    Type
REMARK                         _______ _______ _______ _____ _____    ______ ____
ROOT
ATOM      1  C   UNL     1      -0.188   1.099  -0.713  0.00  0.00    +0.045 C 
ATOM      2  C   UNL     1      -0.082  -0.402  -0.638  0.00  0.00    -0.033 A 
ATOM      3  C   UNL     1      -0.094  -1.147  -1.784  0.00  0.00    +0.050 A 
ATOM      4  C   UNL     1       0.003  -2.534  -1.717  0.00  0.00    +0.122 A 
ATOM      5  C   UNL     1       0.112  -3.175  -0.493  0.00  0.00    +0.020 A 
ATOM      6  C   UNL     1       0.126  -2.433   0.681  0.00  0.00    +0.145 A 
ATOM      7  C   UNL     1       0.033  -1.034   0.601  0.00  0.00    +0.071 A 
ATOM      8  C   UNL     1       0.081  -0.533   1.987  0.00  0.00    +0.232 C 
ATOM      9  O   UNL     1       0.026   0.624   2.365  0.00  0.00    -0.283 OA
ATOM     10  C   UNL     1       0.211  -1.745   2.812  0.00  0.00    +0.176 C 
ATOM     11  C   UNL     1       0.294  -1.789   4.165  0.00  0.00    +0.058 C 
ATOM     12  O   UNL     1       0.220  -2.810   1.975  0.00  0.00    -0.451 OA
ENDROOT
BRANCH  11  13
ATOM     13  C   UNL     1       0.307  -3.084   4.859  0.00  0.00    -0.021 A 
ATOM     14  C   UNL     1       0.258  -3.134   6.257  0.00  0.00    +0.009 A 
ATOM     15  C   UNL     1       0.271  -4.352   6.900  0.00  0.00    +0.016 A 
ATOM     16  C   UNL     1       0.332  -5.526   6.167  0.00  0.00    +0.018 A 
ATOM     17  C   UNL     1       0.381  -5.485   4.783  0.00  0.00    +0.016 A 
ATOM     18  C   UNL     1       0.363  -4.275   4.125  0.00  0.00    +0.009 A 
ATOM     19 BR   UNL     1       0.351  -7.193   7.060  0.00  0.00    -0.050 Br
ENDBRANCH  11  13
BRANCH   4  20
ATOM     20  O   UNL     1      -0.011  -3.265  -2.860  0.00  0.00    -0.506 OA
ATOM     21  H   UNL     1       0.866  -3.418  -3.239  0.00  0.00    +0.292 HD
ENDBRANCH   4  20
BRANCH   5  22
ATOM     22  C   UNL     1       0.214  -4.677  -0.436  0.00  0.00    -0.035 C 
BRANCH  22  23
ATOM     23  N   UNL     1       1.628  -5.074  -0.492  0.00  0.00    +0.385 N 
ATOM     24  C   UNL     1       2.321  -4.581   0.705  0.00  0.00    -0.059 C 
ATOM     25  C   UNL     1       3.816  -4.894   0.594  0.00  0.00    +0.086 C 
ATOM     26  N   UNL     1       3.974  -6.336   0.351  0.00  0.00    -0.333 N 
ATOM     27  C   UNL     1       3.187  -6.948  -0.731  0.00  0.00    +0.086 C 
ATOM     28  C   UNL     1       1.721  -6.538  -0.557  0.00  0.00    -0.059 C 
ATOM     29  H   UNL     1       2.055  -4.674  -1.314  0.00  0.00    -0.081 HD
BRANCH  26  30
ATOM     30  C   UNL     1       4.847  -7.104   1.126  0.00  0.00    +0.030 A 
ATOM     31  C   UNL     1       5.077  -8.435   0.804  0.00  0.00    +0.023 A 
ATOM     32  C   UNL     1       5.941  -9.191   1.572  0.00  0.00    +0.002 A 
ATOM     33  C   UNL     1       6.576  -8.623   2.662  0.00  0.00    +0.000 A 
ATOM     34  C   UNL     1       6.348  -7.298   2.986  0.00  0.00    +0.002 A 
ATOM     35  C   UNL     1       5.490  -6.535   2.218  0.00  0.00    +0.023 A 
ENDBRANCH  26  30
ENDBRANCH  22  23
ENDBRANCH   5  22
TORSDOF 5
