REMARK  Name = ZINC12871301
REMARK  8 active torsions:
REMARK  status: ('A' for Active; 'I' for Inactive)
REMARK    1  A    between atoms: C_4  and  C_7
REMARK    2  A    between atoms: C_7  and  C_8
REMARK    3  A    between atoms: C_8  and  N_9
REMARK    4  A    between atoms: C_10  and  C_12
REMARK    5  A    between atoms: C_12  and  C_14
REMARK    6  A    between atoms: C_12  and  N_20
REMARK    7  A    between atoms: N_20  and  C_21
REMARK    8  A    between atoms: C_31  and  C_33
REMARK                            x       y       z     vdW  Elec       q    Type
REMARK                         _______ _______ _______ _____ _____    ______ ____
ROOT
ATOM      1  C   UNL     1       0.318   6.420   1.843  0.00  0.00    +0.197 C 
ENDROOT
BRANCH   1   2
ATOM      2  C   UNL     1      -0.313   5.857   3.090  0.00  0.00    -0.018 A 
ATOM      3  C   UNL     1      -1.689   5.840   3.222  0.00  0.00    +0.006 A 
ATOM      4  C   UNL     1      -2.268   5.319   4.364  0.00  0.00    +0.000 A 
ATOM      5  C   UNL     1      -1.470   4.824   5.379  0.00  0.00    +0.000 A 
ATOM      6  C   UNL     1      -0.094   4.846   5.250  0.00  0.00    +0.000 A 
ATOM      7  C   UNL     1       0.484   5.363   4.105  0.00  0.00    +0.006 A 
ENDBRANCH   1   2
BRANCH   1   9
ATOM      8  N   UNL     1       1.995   8.184   2.282  0.00  0.00    -0.313 N 
ATOM      9  C   UNL     1       0.703   7.858   2.080  0.00  0.00    +0.238 C 
ATOM     10  O   UNL     1      -0.149   8.720   2.088  0.00  0.00    -0.273 OA
ATOM     11  H   UNL     1       2.677   7.494   2.276  0.00  0.00    +0.149 HD
BRANCH   8  12
ATOM     12  C   UNL     1       2.370   9.582   2.513  0.00  0.00    +0.109 C 
BRANCH  12  13
ATOM     13  C   UNL     1       3.884   9.677   2.712  0.00  0.00    +0.054 C 
BRANCH  13  17
ATOM     14  C   UNL     1       4.977  13.752   3.384  0.00  0.00    +0.000 A 
ATOM     15  C   UNL     1       4.655  12.937   4.454  0.00  0.00    +0.000 A 
ATOM     16  C   UNL     1       4.301  11.619   4.236  0.00  0.00    +0.004 A 
ATOM     17  C   UNL     1       4.269  11.115   2.949  0.00  0.00    -0.046 A 
ATOM     18  C   UNL     1       4.597  11.928   1.881  0.00  0.00    +0.004 A 
ATOM     19  C   UNL     1       4.946  13.248   2.098  0.00  0.00    +0.000 A 
ENDBRANCH  13  17
ENDBRANCH  12  13
ENDBRANCH   8  12
ENDBRANCH   1   9
BRANCH   1  20
ATOM     20  N   UNL     1      -0.639   6.348   0.736  0.00  0.00    -0.250 N 
ATOM     21  C   UNL     1      -1.023   5.149   0.255  0.00  0.00    +0.272 C 
ATOM     22  O   UNL     1      -1.768   5.089  -0.705  0.00  0.00    -0.268 OA
BRANCH  20  23
ATOM     23  C   UNL     1      -1.155   7.522   0.179  0.00  0.00    +0.041 A 
ATOM     24  C   UNL     1      -2.276   8.116   0.739  0.00  0.00    +0.024 A 
ATOM     25  C   UNL     1      -2.783   9.276   0.187  0.00  0.00    +0.002 A 
ATOM     26  C   UNL     1      -2.174   9.834  -0.919  0.00  0.00    +0.004 A 
ATOM     27  C   UNL     1      -1.051   9.242  -1.485  0.00  0.00    -0.042 A 
ATOM     28  C   UNL     1      -0.539   8.089  -0.937  0.00  0.00    -0.023 A 
ATOM     29  C   UNL     1       0.683   7.402  -1.488  0.00  0.00    +0.037 C 
ATOM     30  C   UNL     1       0.970   7.876  -2.912  0.00  0.00    +0.005 C 
ATOM     31  C   UNL     1       0.984   9.409  -2.917  0.00  0.00    +0.005 C 
ATOM     32  C   UNL     1      -0.444   9.905  -2.693  0.00  0.00    +0.035 C 
ENDBRANCH  20  23
BRANCH  21  33
ATOM     33  C   UNL     1      -0.540   3.910   0.891  0.00  0.00    +0.157 A 
ATOM     34  C   UNL     1      -0.989   2.645   0.539  0.00  0.00    +0.101 A 
ATOM     35  S   UNL     1      -0.065   1.654   1.618  0.00  0.00    +0.029 S 
ATOM     36  N   UNL     1       0.748   2.778   2.370  0.00  0.00    -0.110 NA
ATOM     37  N   UNL     1       0.373   3.892   1.855  0.00  0.00    -0.136 NA
ENDBRANCH  21  33
ENDBRANCH   1  20
TORSDOF 8
