REMARK  Name = ZINC39468300
REMARK  7 active torsions:
REMARK  status: ('A' for Active; 'I' for Inactive)
REMARK    1  A    between atoms: C_1  and  S_2
REMARK    2  A    between atoms: S_2  and  P_3
REMARK    3  A    between atoms: C_11  and  S_28
REMARK    4  A    between atoms: C_12  and  C_21
REMARK    5  A    between atoms: C_26  and  O_27
REMARK    6  A    between atoms: S_28  and  O_31
REMARK    7  A    between atoms: O_31  and  C_32
REMARK                            x       y       z     vdW  Elec       q    Type
REMARK                         _______ _______ _______ _____ _____    ______ ____
ROOT
ATOM      1  P   UNL     1       0.550  -0.791  -1.958  0.00  0.00    +0.314 P 
ATOM      2  O   UNL     1       1.901  -0.203  -1.823  0.00  0.00    -0.262 OA
ATOM      3  N   UNL     1       0.652  -2.417  -2.217  0.00  0.00    -0.283 NA
ATOM      4  N   UNL     1       0.977  -2.847  -3.486  0.00  0.00    +0.398 N 
ATOM      5  C   UNL     1       0.884  -4.316  -3.455  0.00  0.00    -0.046 C 
ATOM      6  C   UNL     1       1.242  -4.913  -4.809  0.00  0.00    +0.006 C 
ATOM      7  C   UNL     1       2.652  -4.548  -5.190  0.00  0.00    +0.006 C 
ATOM      8  C   UNL     1       3.015  -4.574  -6.468  0.00  0.00    +0.132 C 
ATOM      9  C   UNL     1       2.029  -4.974  -7.496  0.00  0.00    +0.010 C 
ATOM     10  C   UNL     1       0.717  -4.885  -7.226  0.00  0.00    -0.013 C 
ATOM     11  C   UNL     1       0.282  -4.373  -5.874  0.00  0.00    +0.016 C 
ATOM     12  C   UNL     1       0.356  -2.846  -5.866  0.00  0.00    -0.003 C 
ATOM     13  C   UNL     1       0.040  -2.298  -4.469  0.00  0.00    -0.020 C 
ATOM     14  C   UNL     1       0.143  -0.769  -4.551  0.00  0.00    +0.157 C 
ATOM     15  O   UNL     1      -0.196  -0.195  -3.276  0.00  0.00    -0.312 OA
ATOM     16  H   UNL     1       0.490  -3.050  -1.500  0.00  0.00    +0.112 HD
ATOM     17  H   UNL     1       1.916  -2.558  -3.713  0.00  0.00    -0.055 HD
ENDROOT
BRANCH   9  18
ATOM     18  C   UNL     1       2.487  -5.471  -8.816  0.00  0.00    +0.025 A 
ATOM     19  C   UNL     1       2.994  -4.581  -9.761  0.00  0.00    +0.012 A 
ATOM     20  C   UNL     1       3.420  -5.048 -10.988  0.00  0.00    +0.001 A 
ATOM     21  C   UNL     1       3.344  -6.398 -11.284  0.00  0.00    +0.004 A 
ATOM     22  C   UNL     1       2.843  -7.289 -10.355  0.00  0.00    +0.046 A 
ATOM     23  C   UNL     1       2.418  -6.835  -9.116  0.00  0.00    +0.125 A 
BRANCH  23  24
ATOM     24  O   UNL     1       1.930  -7.710  -8.200  0.00  0.00    -0.506 OA
ATOM     25  H   UNL     1       0.975  -7.851  -8.259  0.00  0.00    +0.292 HD
ENDBRANCH  23  24
ENDBRANCH   9  18
BRANCH   8  26
ATOM     26  S   UNL     1       4.657  -4.136  -6.934  0.00  0.00    +0.151 S 
ATOM     27  O   UNL     1       4.793  -4.474  -8.307  0.00  0.00    -0.131 OA
ATOM     28  O   UNL     1       4.879  -2.819  -6.448  0.00  0.00    -0.131 OA
BRANCH  26  29
ATOM     29  O   UNL     1       5.602  -5.048  -6.165  0.00  0.00    -0.342 OA
BRANCH  29  30
ATOM     30  C   UNL     1       5.658  -6.317  -6.646  0.00  0.00    +0.157 A 
ATOM     31  C   UNL     1       4.724  -7.258  -6.237  0.00  0.00    +0.048 A 
ATOM     32  C   UNL     1       4.783  -8.548  -6.728  0.00  0.00    +0.004 A 
ATOM     33  C   UNL     1       5.772  -8.902  -7.627  0.00  0.00    +0.000 A 
ATOM     34  C   UNL     1       6.705  -7.966  -8.036  0.00  0.00    +0.004 A 
ATOM     35  C   UNL     1       6.646  -6.674  -7.553  0.00  0.00    +0.048 A 
ENDBRANCH  29  30
ENDBRANCH  26  29
ENDBRANCH   8  26
BRANCH   1  37
ATOM     36  C   UNL     1      -0.711   1.416  -0.172  0.00  0.00    +0.096 C 
ATOM     37  S   UNL     1      -0.600  -0.394  -0.221  0.00  0.00    -0.059 S 
ENDBRANCH   1  37
TORSDOF 6
