REMARK  Name = ZINC20764816
REMARK  8 active torsions:
REMARK  status: ('A' for Active; 'I' for Inactive)
REMARK    1  A    between atoms: C_1  and  C_2
REMARK    2  A    between atoms: C_2  and  C_3
REMARK    3  A    between atoms: C_6  and  C_9
REMARK    4  A    between atoms: C_11  and  C_25
REMARK    5  A    between atoms: C_14  and  C_17
REMARK    6  A    between atoms: C_22  and  O_23
REMARK    7  A    between atoms: C_30  and  O_31
REMARK    8  A    between atoms: O_31  and  C_32
REMARK                            x       y       z     vdW  Elec       q    Type
REMARK                         _______ _______ _______ _____ _____    ______ ____
ROOT
ATOM      1  C   UNL     1       0.201   1.356   2.462  0.00  0.00    +0.040 C 
ATOM      2  N   UNL     1       1.449   1.096   2.349  0.00  0.00    -0.298 NA
ATOM      3  C   UNL     1       2.148   0.982   1.075  0.00  0.00    +0.084 C 
ATOM      4  N   UNL     1       1.367   1.602  -0.002  0.00  0.00    +0.401 N 
ATOM      5  C   UNL     1      -0.013   1.086   0.008  0.00  0.00    -0.028 C 
ATOM      6  C   UNL     1      -0.701   1.586   1.282  0.00  0.00    +0.044 C 
ATOM      7  H   UNL     1       1.345   2.692   0.141  0.00  0.00    -0.081 HD
ATOM      8  H   UNL     1       1.831   1.369  -0.972  0.00  0.00    -0.081 HD
ENDROOT
BRANCH   5   9
ATOM      9  C   UNL     1      -0.753   1.591  -1.203  0.00  0.00    -0.018 A 
ATOM     10  C   UNL     1      -0.290   2.700  -1.884  0.00  0.00    +0.025 A 
ATOM     11  C   UNL     1      -0.967   3.161  -3.000  0.00  0.00    +0.041 A 
ATOM     12  C   UNL     1      -2.115   2.518  -3.429  0.00  0.00    +0.023 A 
ATOM     13  C   UNL     1      -2.584   1.413  -2.747  0.00  0.00    +0.047 A 
ATOM     14  C   UNL     1      -1.904   0.946  -1.632  0.00  0.00    +0.119 A 
ATOM     15 CL   UNL     1      -0.378   4.550  -3.858  0.00  0.00    -0.084 Cl
BRANCH  14  16
ATOM     16  O   UNL     1      -2.364  -0.143  -0.961  0.00  0.00    -0.507 OA
ATOM     17  H   UNL     1      -3.277  -0.654  -1.301  0.00  0.00    +0.292 HD
ENDBRANCH  14  16
ENDBRANCH   5   9
BRANCH   3  18
ATOM     18  C   UNL     1       2.364  -0.475   0.756  0.00  0.00    +0.002 A 
ATOM     19  C   UNL     1       2.329  -0.908  -0.555  0.00  0.00    +0.022 A 
ATOM     20  C   UNL     1       2.533  -2.245  -0.848  0.00  0.00    +0.018 A 
ATOM     21  C   UNL     1       2.761  -3.152   0.172  0.00  0.00    +0.019 A 
ATOM     22  C   UNL     1       2.792  -2.723   1.484  0.00  0.00    +0.047 A 
ATOM     23  C   UNL     1       2.593  -1.383   1.780  0.00  0.00    +0.123 A 
ATOM     24 BR   UNL     1       2.492  -2.834  -2.644  0.00  0.00    -0.050 Br
BRANCH  23  25
ATOM     25  O   UNL     1       2.623  -0.959   3.071  0.00  0.00    -0.495 OA
ATOM     26  C   UNL     1       2.864  -1.949   4.073  0.00  0.00    +0.277 C 
ENDBRANCH  23  25
ENDBRANCH   3  18
BRANCH   1  30
ATOM     27  C   UNL     1      -1.472   1.577   6.358  0.00  0.00    -0.048 A 
ATOM     28  C   UNL     1      -0.126   1.298   6.202  0.00  0.00    +0.004 A 
ATOM     29  C   UNL     1       0.424   1.224   4.939  0.00  0.00    +0.010 A 
ATOM     30  C   UNL     1      -0.381   1.432   3.817  0.00  0.00    -0.004 A 
ATOM     31  C   UNL     1      -1.737   1.719   3.983  0.00  0.00    +0.010 A 
ATOM     32  C   UNL     1      -2.276   1.784   5.251  0.00  0.00    +0.004 A 
BRANCH  27  34
ATOM     33  C   UNL     1      -1.969   3.093   8.257  0.00  0.00    +0.009 C 
ATOM     34  C   UNL     1      -2.066   1.656   7.741  0.00  0.00    +0.032 C 
ENDBRANCH  27  34
ENDBRANCH   1  30
TORSDOF 6
