REMARK  Name = ZINC16750673
REMARK  6 active torsions:
REMARK  status: ('A' for Active; 'I' for Inactive)
REMARK    1  A    between atoms: C_1  and  C_2
REMARK    2  A    between atoms: C_7  and  S_24
REMARK    3  A    between atoms: C_12  and  C_14
REMARK    4  A    between atoms: C_14  and  O_15
REMARK    5  A    between atoms: O_15  and  C_16
REMARK    6  A    between atoms: S_24  and  N_27
REMARK                            x       y       z     vdW  Elec       q    Type
REMARK                         _______ _______ _______ _____ _____    ______ ____
ROOT
ATOM      1  C   UNL     1      -4.841   5.651  -1.199  0.00  0.00    +0.029 C 
ATOM      2  C   UNL     1      -4.048   6.027   0.054  0.00  0.00    +0.083 C 
ATOM      3  C   UNL     1      -3.741   7.534   0.061  0.00  0.00    +0.059 C 
ATOM      4  C   UNL     1      -2.231   7.614   0.054  0.00  0.00    -0.022 A 
ATOM      5  C   UNL     1      -1.382   8.704   0.056  0.00  0.00    +0.034 A 
ATOM      6  C   UNL     1      -0.012   8.518   0.048  0.00  0.00    +0.105 A 
ATOM      7  C   UNL     1       0.507   7.236   0.039  0.00  0.00    +0.030 A 
ATOM      8  C   UNL     1      -0.336   6.146   0.036  0.00  0.00    +0.026 A 
ATOM      9  C   UNL     1      -1.720   6.326   0.051  0.00  0.00    +0.040 A 
ATOM     10  N   UNL     1      -2.739   5.368   0.044  0.00  0.00    -0.265 N 
ATOM     11  C   UNL     1      -2.546   4.035   0.036  0.00  0.00    +0.258 C 
ATOM     12  O   UNL     1      -3.498   3.284   0.036  0.00  0.00    -0.272 OA
ENDROOT
BRANCH   6  13
ATOM     13  S   UNL     1       1.069   9.909   0.051  0.00  0.00    +0.056 S 
ATOM     14  O   UNL     1       2.299   9.469  -0.508  0.00  0.00    -0.153 OA
ATOM     15  O   UNL     1       0.332  10.997  -0.490  0.00  0.00    -0.153 OA
BRANCH  13  16
ATOM     16  N   UNL     1       1.377  10.287   1.634  0.00  0.00    -0.204 NA
ATOM     17  H   UNL     1       0.976   9.762   2.345  0.00  0.00    +0.144 HD
ATOM     18  H   UNL     1       1.958  11.032   1.851  0.00  0.00    +0.144 HD
ENDBRANCH  13  16
ENDBRANCH   6  13
BRANCH  11  19
ATOM     19  C   UNL     1      -1.146   3.476   0.026  0.00  0.00    +0.325 C 
BRANCH  19  20
ATOM     20  O   UNL     1      -1.202   2.049   0.019  0.00  0.00    -0.481 OA
BRANCH  20  21
ATOM     21  C   UNL     1      -0.017   1.384   0.010  0.00  0.00    +0.139 A 
ATOM     22  C   UNL     1       1.176   2.092   0.002  0.00  0.00    +0.048 A 
ATOM     23  C   UNL     1       2.380   1.414  -0.013  0.00  0.00    +0.019 A 
ATOM     24  C   UNL     1       2.397   0.031  -0.021  0.00  0.00    +0.019 A 
ATOM     25  C   UNL     1       1.209  -0.678  -0.013  0.00  0.00    +0.039 A 
ATOM     26  C   UNL     1       0.002  -0.004   0.002  0.00  0.00    +0.084 A 
ATOM     27 CL   UNL     1      -1.489  -0.893   0.011  0.00  0.00    -0.080 Cl
ATOM     28 BR   UNL     1       4.047  -0.893  -0.041  0.00  0.00    -0.050 Br
ENDBRANCH  20  21
ENDBRANCH  19  20
ENDBRANCH  11  19
TORSDOF 5
