REMARK  Name = ZINC12807064
REMARK  6 active torsions:
REMARK  status: ('A' for Active; 'I' for Inactive)
REMARK    1  A    between atoms: C_1  and  C_2
REMARK    2  A    between atoms: C_2  and  C_4
REMARK    3  A    between atoms: C_2  and  N_14
REMARK    4  A    between atoms: N_17  and  C_18
REMARK    5  A    between atoms: C_18  and  C_19
REMARK    6  A    between atoms: N_21  and  C_22
REMARK                            x       y       z     vdW  Elec       q    Type
REMARK                         _______ _______ _______ _____ _____    ______ ____
ROOT
ATOM      1  N   UNL     1      -4.669  -0.139   0.887  0.00  0.00    -0.293 N 
ATOM      2  C   UNL     1      -5.662  -0.855   1.450  0.00  0.00    +0.300 C 
ATOM      3  O   UNL     1      -5.771  -2.041   1.206  0.00  0.00    -0.253 OA
ATOM      4  N   UNL     1      -6.535  -0.256   2.285  0.00  0.00    -0.291 N 
ATOM      5  H   UNL     1      -4.583   0.807   1.082  0.00  0.00    +0.151 HD
ATOM      6  H   UNL     1      -6.449   0.690   2.479  0.00  0.00    +0.151 HD
ENDROOT
BRANCH   1   8
ATOM      7  C   UNL     1      -4.304  -0.819  -1.434  0.00  0.00    +0.033 C 
ATOM      8  C   UNL     1      -3.720  -0.790  -0.020  0.00  0.00    +0.102 C 
BRANCH   8   9
ATOM      9  C   UNL     1      -2.424  -0.022  -0.026  0.00  0.00    -0.024 A 
ATOM     10  C   UNL     1      -2.441   1.361  -0.011  0.00  0.00    +0.009 A 
ATOM     11  C   UNL     1      -1.255   2.069  -0.021  0.00  0.00    +0.050 A 
ATOM     12  C   UNL     1      -0.043   1.395  -0.042  0.00  0.00    +0.162 A 
ATOM     13  C   UNL     1      -0.025   0.005  -0.055  0.00  0.00    +0.162 A 
ATOM     14  C   UNL     1      -1.220  -0.700  -0.049  0.00  0.00    +0.055 A 
ATOM     15  O   UNL     1       1.152  -0.677  -0.074  0.00  0.00    -0.485 OA
ATOM     16  C   UNL     1       2.317   0.062  -0.459  0.00  0.00    +0.270 C 
ATOM     17  C   UNL     1       2.311   1.397   0.298  0.00  0.00    +0.270 C 
ATOM     18  O   UNL     1       1.118   2.106  -0.053  0.00  0.00    -0.485 OA
ENDBRANCH   8   9
ENDBRANCH   1   8
BRANCH   4  19
ATOM     19  C   UNL     1      -7.615  -1.034   2.897  0.00  0.00    +0.202 C 
BRANCH  19  20
ATOM     20  C   UNL     1      -8.443  -0.137   3.780  0.00  0.00    +0.234 C 
ATOM     21  O   UNL     1      -8.160   1.038   3.886  0.00  0.00    -0.274 OA
ATOM     22  N   UNL     1      -9.499  -0.638   4.450  0.00  0.00    -0.283 N 
ATOM     23  H   UNL     1      -9.765  -1.561   4.315  0.00  0.00    +0.155 HD
BRANCH  22  24
ATOM     24  C   UNL     1     -10.211   0.172   5.342  0.00  0.00    +0.047 A 
ATOM     25  C   UNL     1     -10.377   1.524   5.073  0.00  0.00    +0.024 A 
ATOM     26  C   UNL     1     -11.084   2.320   5.953  0.00  0.00    +0.002 A 
ATOM     27  C   UNL     1     -11.618   1.774   7.105  0.00  0.00    +0.001 A 
ATOM     28  C   UNL     1     -11.452   0.429   7.379  0.00  0.00    +0.017 A 
ATOM     29  C   UNL     1     -10.749  -0.374   6.501  0.00  0.00    +0.039 A 
ATOM     30 BR   UNL     1     -10.520  -2.213   6.876  0.00  0.00    -0.048 Br
ENDBRANCH  22  24
ENDBRANCH  19  20
ENDBRANCH   4  19
TORSDOF 5
