REMARK  Name = ZINC17067515
REMARK  4 active torsions:
REMARK  status: ('A' for Active; 'I' for Inactive)
REMARK    1  A    between atoms: C_1  and  C_2
REMARK    2  A    between atoms: C_8  and  C_12
REMARK    3  A    between atoms: N_14  and  N_15
REMARK    4  A    between atoms: N_18  and  C_19
REMARK                            x       y       z     vdW  Elec       q    Type
REMARK                         _______ _______ _______ _____ _____    ______ ____
ROOT
ATOM      1  C   UNL     1       7.130  -2.683  -0.387  0.00  0.00    +0.267 C 
ATOM      2  O   UNL     1       8.172  -2.062  -0.485  0.00  0.00    -0.268 OA
ATOM      3  N   UNL     1       5.961  -2.024  -0.270  0.00  0.00    -0.229 N 
ATOM      4  H   UNL     1       5.131  -2.519  -0.192  0.00  0.00    +0.173 HD
ENDROOT
BRANCH   1  11
ATOM      5  C   UNL     1       6.895 -10.557  -0.305  0.00  0.00    +0.008 C 
ATOM      6  C   UNL     1       7.332  -9.111  -0.057  0.00  0.00    -0.009 C 
ATOM      7  C   UNL     1       8.474  -8.749  -1.010  0.00  0.00    +0.008 C 
ATOM      8  C   UNL     1       9.091  -7.412  -0.601  0.00  0.00    +0.036 C 
ATOM      9  C   UNL     1       7.980  -6.372  -0.487  0.00  0.00    -0.036 A 
ATOM     10  C   UNL     1       8.225  -5.008  -0.509  0.00  0.00    +0.024 A 
ATOM     11  C   UNL     1       7.147  -4.149  -0.395  0.00  0.00    +0.076 A 
ATOM     12  S   UNL     1       5.782  -5.291  -0.268  0.00  0.00    -0.088 S 
ATOM     13  C   UNL     1       6.676  -6.760  -0.362  0.00  0.00    -0.006 A 
ATOM     14  C   UNL     1       6.152  -8.163  -0.316  0.00  0.00    +0.046 C 
ENDBRANCH   1  11
BRANCH   3  15
ATOM     15  N   UNL     1       5.945  -0.623  -0.262  0.00  0.00    -0.218 N 
ATOM     16  C   UNL     1       4.776   0.037  -0.145  0.00  0.00    +0.320 C 
ATOM     17  O   UNL     1       4.762   1.253  -0.139  0.00  0.00    -0.251 OA
ATOM     18  N   UNL     1       3.622  -0.651  -0.036  0.00  0.00    -0.268 N 
ATOM     19  H   UNL     1       6.776  -0.128  -0.341  0.00  0.00    +0.174 HD
ATOM     20  H   UNL     1       3.639  -1.618   0.036  0.00  0.00    +0.156 HD
BRANCH  18  21
ATOM     21  C   UNL     1       2.399   0.030  -0.028  0.00  0.00    +0.035 A 
ATOM     22  C   UNL     1       2.246   1.194  -0.770  0.00  0.00    +0.023 A 
ATOM     23  C   UNL     1       1.038   1.864  -0.759  0.00  0.00    +0.002 A 
ATOM     24  C   UNL     1      -0.018   1.377  -0.010  0.00  0.00    +0.000 A 
ATOM     25  C   UNL     1       0.132   0.219   0.731  0.00  0.00    +0.002 A 
ATOM     26  C   UNL     1       1.337  -0.456   0.724  0.00  0.00    +0.023 A 
ENDBRANCH  18  21
ENDBRANCH   3  15
TORSDOF 3
