REMARK  Name = ZINC32121263
REMARK  5 active torsions:
REMARK  status: ('A' for Active; 'I' for Inactive)
REMARK    1  A    between atoms: C_4  and  C_7
REMARK    2  A    between atoms: C_7  and  O_9
REMARK    3  A    between atoms: O_9  and  C_10
REMARK    4  A    between atoms: C_13  and  C_16
REMARK    5  A    between atoms: C_27  and  C_32
REMARK                            x       y       z     vdW  Elec       q    Type
REMARK                         _______ _______ _______ _____ _____    ______ ____
ROOT
ATOM      1  C   UNL     1      -1.200  -6.323  -0.162  0.00  0.00    +0.105 C 
ATOM      2  C   UNL     1      -0.694  -6.811  -1.508  0.00  0.00    +0.029 C 
ATOM      3  C   UNL     1      -1.378  -6.246  -2.760  0.00  0.00    +0.033 C 
ATOM      4  C   UNL     1      -0.243  -6.307  -3.784  0.00  0.00    -0.030 C 
ATOM      5  C   UNL     1       0.930  -6.256  -3.165  0.00  0.00    -0.023 C 
ATOM      6  C   UNL     1       0.691  -6.125  -1.704  0.00  0.00    +0.049 C 
ATOM      7  C   UNL     1       1.623  -6.693  -0.706  0.00  0.00    -0.019 A 
ATOM      8  C   UNL     1       2.963  -6.879  -0.968  0.00  0.00    +0.010 A 
ATOM      9  C   UNL     1       3.801  -7.383   0.010  0.00  0.00    -0.041 A 
ATOM     10  C   UNL     1       3.295  -7.702   1.257  0.00  0.00    +0.006 A 
ATOM     11  C   UNL     1       1.953  -7.527   1.526  0.00  0.00    +0.023 A 
ATOM     12  C   UNL     1       1.101  -7.027   0.548  0.00  0.00    +0.031 A 
ATOM     13  N   UNL     1      -0.260  -6.872   0.840  0.00  0.00    -0.336 N 
ATOM     14  H   UNL     1      -0.626  -7.168   1.834  0.00  0.00    +0.147 HD
ENDROOT
BRANCH   9  15
ATOM     15  C   UNL     1       5.266  -7.582  -0.282  0.00  0.00    -0.003 C 
ATOM     16  C   UNL     1       5.899  -6.240  -0.657  0.00  0.00    +0.015 C 
ATOM     17  C   UNL     1       7.386  -6.443  -0.954  0.00  0.00    -0.010 C 
ATOM     18  C   UNL     1       8.082  -7.006   0.287  0.00  0.00    +0.007 C 
ATOM     19  C   UNL     1       7.449  -8.348   0.662  0.00  0.00    -0.010 C 
ATOM     20  C   UNL     1       5.962  -8.145   0.959  0.00  0.00    +0.015 C 
ATOM     21  C   UNL     1       7.608  -9.329  -0.501  0.00  0.00    +0.007 C 
ATOM     22  C   UNL     1       6.912  -8.766  -1.742  0.00  0.00    -0.010 C 
ATOM     23  C   UNL     1       7.545  -7.425  -2.117  0.00  0.00    +0.007 C 
ATOM     24  C   UNL     1       5.425  -8.564  -1.445  0.00  0.00    +0.015 C 
ENDBRANCH   9  15
BRANCH   1  28
ATOM     25  C   UNL     1      -1.166  -2.052  -0.032  0.00  0.00    +0.132 A 
ATOM     26  C   UNL     1      -2.293  -2.725  -0.483  0.00  0.00    +0.047 A 
ATOM     27  C   UNL     1      -2.299  -4.105  -0.530  0.00  0.00    +0.009 A 
ATOM     28  C   UNL     1      -1.188  -4.817  -0.116  0.00  0.00    -0.027 A 
ATOM     29  C   UNL     1      -0.066  -4.149   0.339  0.00  0.00    +0.009 A 
ATOM     30  C   UNL     1      -0.053  -2.769   0.382  0.00  0.00    +0.047 A 
BRANCH  25  31
ATOM     31  O   UNL     1      -1.155  -0.694   0.009  0.00  0.00    -0.422 OA
BRANCH  31  32
ATOM     32  C   UNL     1      -0.476  -0.057  -0.965  0.00  0.00    +0.344 C 
ATOM     33  O   UNL     1       0.165  -0.696  -1.775  0.00  0.00    -0.245 OA
BRANCH  32  37
ATOM     34  C   UNL     1      -0.575   4.181  -1.203  0.00  0.00    +0.000 A 
ATOM     35  C   UNL     1       0.156   3.457  -2.127  0.00  0.00    +0.001 A 
ATOM     36  C   UNL     1       0.193   2.080  -2.055  0.00  0.00    +0.015 A 
ATOM     37  C   UNL     1      -0.510   1.417  -1.047  0.00  0.00    +0.059 A 
ATOM     38  C   UNL     1      -1.251   2.154  -0.121  0.00  0.00    +0.015 A 
ATOM     39  C   UNL     1      -1.274   3.531  -0.201  0.00  0.00    +0.001 A 
ENDBRANCH  32  37
ENDBRANCH  31  32
ENDBRANCH  25  31
ENDBRANCH   1  28
TORSDOF 5
