REMARK  Name = ZINC39352810
REMARK  8 active torsions:
REMARK  status: ('A' for Active; 'I' for Inactive)
REMARK    1  A    between atoms: C_1  and  C_2
REMARK    2  A    between atoms: C_5  and  C_9
REMARK    3  A    between atoms: C_7  and  C_8
REMARK    4  A    between atoms: C_13  and  C_15
REMARK    5  A    between atoms: C_15  and  N_16
REMARK    6  A    between atoms: N_19  and  C_22
REMARK    7  A    between atoms: C_22  and  C_23
REMARK    8  A    between atoms: C_22  and  C_29
REMARK                            x       y       z     vdW  Elec       q    Type
REMARK                         _______ _______ _______ _____ _____    ______ ____
ROOT
ATOM      1  N   UNL     1      -1.113  -5.747  -3.299  0.00  0.00    -0.305 NA
ATOM      2  C   UNL     1      -0.039  -5.256  -4.173  0.00  0.00    +0.066 C 
ATOM      3  C   UNL     1       0.057  -6.151  -5.410  0.00  0.00    -0.062 C 
ATOM      4  N   UNL     1      -1.225  -6.137  -6.126  0.00  0.00    +0.389 N 
ATOM      5  C   UNL     1      -2.284  -6.653  -5.248  0.00  0.00    -0.062 C 
ATOM      6  C   UNL     1      -2.399  -5.762  -4.010  0.00  0.00    +0.066 C 
ATOM      7  H   UNL     1      -1.447  -5.191  -6.400  0.00  0.00    -0.080 HD
ENDROOT
BRANCH   1   8
ATOM      8  C   UNL     1      -1.200  -4.946  -2.070  0.00  0.00    +0.099 C 
BRANCH   8  13
ATOM      9  C   UNL     1       0.059  -4.245  -0.021  0.00  0.00    +0.080 C 
ATOM     10  N   UNL     1       0.069  -5.038   1.015  0.00  0.00    -0.153 NA
ATOM     11  N   UNL     1       0.086  -6.380   0.649  0.00  0.00    -0.161 NA
ATOM     12  C   UNL     1       0.088  -6.544  -0.634  0.00  0.00    +0.118 C 
ATOM     13  C   UNL     1       0.065  -5.153  -1.235  0.00  0.00    +0.097 C 
BRANCH   9  18
ATOM     14  C   UNL     1      -0.018   1.503   0.010  0.00  0.00    +0.044 C 
ATOM     15  C   UNL     1       0.002  -0.004   0.002  0.00  0.00    -0.048 A 
ATOM     16  C   UNL     1       0.006  -0.686  -1.203  0.00  0.00    +0.004 A 
ATOM     17  C   UNL     1       0.024  -2.064  -1.218  0.00  0.00    +0.010 A 
ATOM     18  C   UNL     1       0.040  -2.774  -0.013  0.00  0.00    -0.001 A 
ATOM     19  C   UNL     1       0.036  -2.078   1.199  0.00  0.00    +0.013 A 
ATOM     20  C   UNL     1       0.023  -0.699   1.199  0.00  0.00    -0.047 A 
ATOM     21  C   UNL     1       0.025   0.054   2.504  0.00  0.00    +0.044 C 
ENDBRANCH   9  18
ENDBRANCH   8  13
ENDBRANCH   1   8
BRANCH   4  22
ATOM     22  C   UNL     1      -1.127  -6.982  -7.323  0.00  0.00    -0.007 C 
BRANCH  22  23
ATOM     23  C   UNL     1      -2.442  -6.968  -8.058  0.00  0.00    -0.057 A 
ATOM     24  C   UNL     1      -3.156  -5.790  -8.175  0.00  0.00    +0.002 A 
ATOM     25  C   UNL     1      -4.363  -5.777  -8.849  0.00  0.00    +0.000 A 
ATOM     26  C   UNL     1      -4.856  -6.942  -9.406  0.00  0.00    +0.000 A 
ATOM     27  C   UNL     1      -4.142  -8.120  -9.290  0.00  0.00    +0.000 A 
ATOM     28  C   UNL     1      -2.933  -8.132  -8.620  0.00  0.00    +0.002 A 
ENDBRANCH  22  23
BRANCH  22  29
ATOM     29  C   UNL     1      -0.042  -6.452  -8.225  0.00  0.00    -0.057 A 
ATOM     30  C   UNL     1       0.112  -5.088  -8.393  0.00  0.00    +0.002 A 
ATOM     31  C   UNL     1       1.107  -4.602  -9.220  0.00  0.00    +0.000 A 
ATOM     32  C   UNL     1       1.948  -5.479  -9.879  0.00  0.00    +0.000 A 
ATOM     33  C   UNL     1       1.795  -6.842  -9.710  0.00  0.00    +0.000 A 
ATOM     34  C   UNL     1       0.802  -7.329  -8.880  0.00  0.00    +0.002 A 
ENDBRANCH  22  29
ENDBRANCH   4  22
TORSDOF 6
