REMARK  Name = ZINC39304609
REMARK  10 active torsions:
REMARK  status: ('A' for Active; 'I' for Inactive)
REMARK    1  A    between atoms: C_1  and  C_2
REMARK    2  A    between atoms: C_2  and  O_3
REMARK    3  A    between atoms: O_3  and  C_4
REMARK    4  A    between atoms: C_4  and  C_6
REMARK    5  A    between atoms: C_6  and  C_27
REMARK    6  A    between atoms: N_10  and  C_12
REMARK    7  A    between atoms: C_12  and  C_13
REMARK    8  A    between atoms: N_18  and  C_21
REMARK    9  A    between atoms: C_27  and  C_28
REMARK   10  A    between atoms: C_31  and  C_34
REMARK                            x       y       z     vdW  Elec       q    Type
REMARK                         _______ _______ _______ _____ _____    ______ ____
ROOT
ATOM      1  C   UNL     1       1.436  -2.354  -2.550  0.00  0.00    +0.057 C 
ATOM      2  C   UNL     1       2.889  -1.870  -2.561  0.00  0.00    +0.015 C 
ATOM      3  C   UNL     1       3.620  -2.508  -3.746  0.00  0.00    -0.018 C 
ATOM      4  C   UNL     1       3.517  -4.031  -3.642  0.00  0.00    -0.078 C 
ATOM      5  N   UNL     1       2.105  -4.432  -3.663  0.00  0.00    +0.386 N 
ATOM      6  C   UNL     1       1.414  -3.883  -2.490  0.00  0.00    -0.060 C 
ATOM      7  H   UNL     1       1.670  -4.082  -4.503  0.00  0.00    -0.081 HD
ENDROOT
BRANCH   1   8
ATOM      8  C   UNL     1       0.728  -1.793  -1.344  0.00  0.00    +0.312 C 
ATOM      9  O   UNL     1       0.254  -2.539  -0.520  0.00  0.00    -0.250 OA
BRANCH   8  10
ATOM     10  O   UNL     1       0.624  -0.464  -1.185  0.00  0.00    -0.465 OA
BRANCH  10  12
ATOM     11  C   UNL     1      -0.078   1.528  -0.010  0.00  0.00    +0.048 C 
ATOM     12  C   UNL     1      -0.060  -0.002  -0.018  0.00  0.00    +0.229 C 
ENDBRANCH  10  12
ENDBRANCH   8  10
ENDBRANCH   1   8
BRANCH   5  13
ATOM     13  C   UNL     1       2.014  -5.898  -3.641  0.00  0.00    +0.019 C 
BRANCH  13  14
ATOM     14  C   UNL     1       2.607  -6.457  -4.909  0.00  0.00    +0.199 C 
ATOM     15  O   UNL     1       3.061  -5.708  -5.747  0.00  0.00    -0.278 OA
ATOM     16  N   UNL     1       2.632  -7.790  -5.110  0.00  0.00    -0.300 N 
ATOM     17  C   UNL     1       2.080  -8.709  -4.105  0.00  0.00    +0.126 C 
ATOM     18  C   UNL     1       1.031  -9.601  -4.781  0.00  0.00    +0.124 C 
ATOM     19  N   UNL     1       1.611 -10.160  -6.010  0.00  0.00    -0.327 N 
ATOM     20  C   UNL     1       2.163  -9.241  -7.014  0.00  0.00    +0.124 C 
ATOM     21  C   UNL     1       3.208  -8.349  -6.342  0.00  0.00    +0.126 C 
BRANCH  19  22
ATOM     22  C   UNL     1       1.638 -11.541  -6.218  0.00  0.00    +0.030 A 
ATOM     23  C   UNL     1       1.219 -12.405  -5.215  0.00  0.00    +0.023 A 
ATOM     24  C   UNL     1       1.246 -13.770  -5.425  0.00  0.00    +0.002 A 
ATOM     25  C   UNL     1       1.690 -14.276  -6.632  0.00  0.00    +0.000 A 
ATOM     26  C   UNL     1       2.107 -13.419  -7.634  0.00  0.00    +0.002 A 
ATOM     27  C   UNL     1       2.077 -12.053  -7.433  0.00  0.00    +0.023 A 
ENDBRANCH  19  22
ENDBRANCH  13  14
ENDBRANCH   5  13
BRANCH   1  28
ATOM     28  C   UNL     1       0.730  -1.882  -3.823  0.00  0.00    +0.051 C 
BRANCH  28  29
ATOM     29  C   UNL     1       0.754  -0.377  -3.882  0.00  0.00    -0.046 A 
ATOM     30  C   UNL     1      -0.272   0.354  -3.312  0.00  0.00    +0.004 A 
ATOM     31  C   UNL     1      -0.249   1.735  -3.366  0.00  0.00    +0.012 A 
ATOM     32  C   UNL     1       0.799   2.386  -3.990  0.00  0.00    +0.055 A 
ATOM     33  C   UNL     1       1.825   1.655  -4.559  0.00  0.00    +0.012 A 
ATOM     34  C   UNL     1       1.805   0.274  -4.501  0.00  0.00    +0.004 A 
BRANCH  32  35
ATOM     35  C   UNL     1       0.823   3.891  -4.050  0.00  0.00    +0.417 C 
ATOM     36  F   UNL     1       1.488   4.392  -2.926  0.00  0.00    -0.166 F 
ATOM     37  F   UNL     1       1.491   4.301  -5.208  0.00  0.00    -0.166 F 
ATOM     38  F   UNL     1      -0.489   4.378  -4.071  0.00  0.00    -0.166 F 
ENDBRANCH  32  35
ENDBRANCH  28  29
ENDBRANCH   1  28
TORSDOF 9
