REMARK  Name = ZINC06546845
REMARK  14 active torsions:
REMARK  status: ('A' for Active; 'I' for Inactive)
REMARK    1  A    between atoms: C_1  and  C_2
REMARK    2  A    between atoms: C_2  and  O_3
REMARK    3  A    between atoms: O_3  and  C_4
REMARK    4  A    between atoms: C_4  and  C_6
REMARK    5  A    between atoms: C_6  and  N_7
REMARK    6  A    between atoms: C_8  and  C_10
REMARK    7  A    between atoms: C_10  and  C_12
REMARK    8  A    between atoms: C_10  and  N_17
REMARK    9  A    between atoms: N_17  and  C_18
REMARK   10  A    between atoms: C_20  and  C_25
REMARK   11  A    between atoms: C_23  and  C_24
REMARK   12  A    between atoms: C_26  and  C_28
REMARK   13  A    between atoms: C_29  and  N_36
REMARK   14  A    between atoms: C_30  and  C_33
REMARK                            x       y       z     vdW  Elec       q    Type
REMARK                         _______ _______ _______ _____ _____    ______ ____
ROOT
ATOM      1  N   UNL     1      -4.114   2.533   2.307  0.00  0.00    -0.250 N 
ATOM      2  C   UNL     1      -4.727   3.512   1.612  0.00  0.00    +0.262 C 
ATOM      3  O   UNL     1      -5.898   3.396   1.300  0.00  0.00    -0.269 OA
ENDROOT
BRANCH   1   4
ATOM      4  C   UNL     1      -2.769   2.666   2.664  0.00  0.00    +0.041 A 
ATOM      5  C   UNL     1      -1.774   2.179   1.826  0.00  0.00    +0.027 A 
ATOM      6  C   UNL     1      -0.447   2.307   2.185  0.00  0.00    -0.049 A 
ATOM      7  C   UNL     1      -0.107   2.929   3.373  0.00  0.00    +0.004 A 
ATOM      8  C   UNL     1      -1.095   3.419   4.207  0.00  0.00    +0.005 A 
ATOM      9  C   UNL     1      -2.424   3.290   3.856  0.00  0.00    -0.029 A 
ATOM     10  C   UNL     1      -3.500   3.825   4.766  0.00  0.00    +0.045 C 
ATOM     11  C   UNL     1       0.633   1.774   1.278  0.00  0.00    +0.044 C 
ENDBRANCH   1   4
BRANCH   2  12
ATOM     12  C   UNL     1      -3.983   4.715   1.232  0.00  0.00    +0.116 A 
ATOM     13  C   UNL     1      -4.417   5.835   0.521  0.00  0.00    +0.076 A 
ATOM     14  C   UNL     1      -3.409   6.785   0.354  0.00  0.00    +0.155 A 
ATOM     15  N   UNL     1      -2.215   6.550   0.853  0.00  0.00    -0.203 NA
ATOM     16  S   UNL     1      -2.286   5.143   1.559  0.00  0.00    +0.019 S 
BRANCH  14  17
ATOM     17  C   UNL     1      -3.680   8.039  -0.373  0.00  0.00    +0.262 C 
ATOM     18  O   UNL     1      -4.786   8.249  -0.831  0.00  0.00    -0.269 OA
ATOM     19  N   UNL     1      -2.700   8.951  -0.530  0.00  0.00    -0.324 N 
ATOM     20  H   UNL     1      -1.818   8.784  -0.164  0.00  0.00    +0.145 HD
ATOM     21  H   UNL     1      -2.878   9.776  -1.008  0.00  0.00    +0.145 HD
ENDBRANCH  14  17
BRANCH  13  22
ATOM     22  N   UNL     1      -5.709   5.988   0.035  0.00  0.00    -0.355 N 
ATOM     23  H   UNL     1      -6.368   5.292   0.182  0.00  0.00    +0.142 HD
ATOM     24  H   UNL     1      -5.952   6.791  -0.453  0.00  0.00    +0.142 HD
ENDBRANCH  13  22
ENDBRANCH   2  12
BRANCH   1  25
ATOM     25  C   UNL     1      -4.858   1.329   2.687  0.00  0.00    +0.204 C 
BRANCH  25  26
ATOM     26  C   UNL     1      -4.731   1.109   4.172  0.00  0.00    +0.019 A 
ATOM     27  C   UNL     1      -5.708   0.947   5.098  0.00  0.00    +0.013 A 
ATOM     28  C   UNL     1      -5.354   0.752   6.420  0.00  0.00    +0.008 A 
ATOM     29  C   UNL     1      -4.040   0.740   6.753  0.00  0.00    +0.045 A 
ATOM     30  S   UNL     1      -3.255   1.001   5.171  0.00  0.00    -0.099 S 
ENDBRANCH  25  26
BRANCH  25  32
ATOM     31  N   UNL     1      -4.828  -1.084   2.146  0.00  0.00    -0.303 N 
ATOM     32  C   UNL     1      -4.297   0.139   1.952  0.00  0.00    +0.239 C 
ATOM     33  O   UNL     1      -3.367   0.282   1.187  0.00  0.00    -0.273 OA
ATOM     34  H   UNL     1      -5.572  -1.199   2.759  0.00  0.00    +0.149 HD
BRANCH  31  35
ATOM     35  C   UNL     1      -4.283  -2.241   1.432  0.00  0.00    +0.225 C 
BRANCH  35  36
ATOM     36  C   UNL     1      -5.048  -3.479   1.823  0.00  0.00    +0.324 C 
ATOM     37  O   UNL     1      -5.955  -3.403   2.617  0.00  0.00    -0.249 OA
BRANCH  36  38
ATOM     38  O   UNL     1      -4.721  -4.667   1.290  0.00  0.00    -0.464 OA
BRANCH  38  40
ATOM     39  C   UNL     1      -4.985  -7.071   1.004  0.00  0.00    +0.048 C 
ATOM     40  C   UNL     1      -5.500  -5.817   1.713  0.00  0.00    +0.229 C 
ENDBRANCH  38  40
ENDBRANCH  36  38
ENDBRANCH  35  36
ENDBRANCH  31  35
ENDBRANCH  25  32
ENDBRANCH   1  25
TORSDOF 11
