REMARK  Name = ZINC66249364
REMARK  6 active torsions:
REMARK  status: ('A' for Active; 'I' for Inactive)
REMARK    1  A    between atoms: C_1  and  C_2
REMARK    2  A    between atoms: N_7  and  C_9
REMARK    3  A    between atoms: C_9  and  C_10
REMARK    4  A    between atoms: N_15  and  S_16
REMARK    5  A    between atoms: S_16  and  C_19
REMARK    6  A    between atoms: N_21  and  C_24
REMARK                            x       y       z     vdW  Elec       q    Type
REMARK                         _______ _______ _______ _____ _____    ______ ____
ROOT
ATOM      1  C   UNL     1       1.321  -3.966   2.518  0.00  0.00    +0.008 A 
ATOM      2  C   UNL     1       2.431  -4.702   2.467  0.00  0.00    +0.068 A 
ATOM      3  S   UNL     1       1.785  -6.364   2.568  0.00  0.00    -0.057 S 
ATOM      4  C   UNL     1       0.051  -5.945   2.674  0.00  0.00    +0.192 A 
ATOM      5  N   UNL     1       0.102  -4.569   2.629  0.00  0.00    -0.338 N 
ATOM      6  N   UNL     1      -0.990  -6.735   2.774  0.00  0.00    -0.102 NA
ATOM      7  H   UNL     1      -0.710  -4.041   2.671  0.00  0.00    +0.167 HD
ENDROOT
BRANCH   6   8
ATOM      8  S   UNL     1      -0.782  -8.377   2.816  0.00  0.00    +0.119 S 
ATOM      9  O   UNL     1      -0.271  -8.755   1.545  0.00  0.00    -0.145 OA
ATOM     10  O   UNL     1      -0.100  -8.669   4.028  0.00  0.00    -0.145 OA
BRANCH   8  11
ATOM     11  C   UNL     1      -2.382  -9.102   2.952  0.00  0.00    +0.216 A 
ATOM     12  C   UNL     1      -3.226  -8.969   3.995  0.00  0.00    +0.154 A 
ATOM     13  N   UNL     1      -4.349  -9.689   3.689  0.00  0.00    -0.324 N 
ATOM     14  C   UNL     1      -4.153 -10.237   2.469  0.00  0.00    +0.176 A 
ATOM     15  N   UNL     1      -2.977  -9.877   2.033  0.00  0.00    -0.329 N 
ATOM     16  C   UNL     1      -5.541  -9.838   4.527  0.00  0.00    +0.151 C 
ATOM     17 CL   UNL     1      -2.942  -8.060   5.446  0.00  0.00    -0.060 Cl
ATOM     18  H   UNL     1      -2.592 -10.133   1.180  0.00  0.00    +0.168 HD
ENDBRANCH   8  11
ENDBRANCH   6   8
BRANCH   1  19
ATOM     19  C   UNL     1       1.413  -2.463   2.461  0.00  0.00    -0.024 C 
BRANCH  19  25
ATOM     20  C   UNL     1      -0.019   1.526   0.010  0.00  0.00    +0.005 C 
ATOM     21  C   UNL     1       0.002  -0.004   0.002  0.00  0.00    -0.031 C 
ATOM     22  C   UNL     1       0.721  -0.499  -1.257  0.00  0.00    -0.001 C 
ATOM     23  C   UNL     1       0.805  -2.027  -1.217  0.00  0.00    -0.018 C 
ATOM     24  C   UNL     1       1.518  -2.460   0.066  0.00  0.00    -0.078 C 
ATOM     25  N   UNL     1       0.768  -1.979   1.233  0.00  0.00    +0.384 N 
ATOM     26  C   UNL     1       0.744  -0.512   1.240  0.00  0.00    -0.075 C 
ATOM     27  H   UNL     1      -0.177  -2.330   1.192  0.00  0.00    -0.081 HD
ENDBRANCH  19  25
ENDBRANCH   1  19
TORSDOF 4
