REMARK  Name = ZINC13329162
REMARK  5 active torsions:
REMARK  status: ('A' for Active; 'I' for Inactive)
REMARK    1  A    between atoms: C_1  and  O_2
REMARK    2  A    between atoms: O_2  and  C_3
REMARK    3  A    between atoms: N_5  and  C_6
REMARK    4  A    between atoms: C_7  and  C_14
REMARK    5  A    between atoms: N_16  and  C_17
REMARK                            x       y       z     vdW  Elec       q    Type
REMARK                         _______ _______ _______ _____ _____    ______ ____
ROOT
ATOM      1  C   UNL     1       6.783  -1.036   0.847  0.00  0.00    +0.087 A 
ATOM      2  C   UNL     1       6.047  -0.680  -0.270  0.00  0.00    +0.069 A 
ATOM      3  C   UNL     1       6.581  -1.051  -1.581  0.00  0.00    -0.023 A 
ATOM      4  C   UNL     1       7.759  -1.700  -1.554  0.00  0.00    -0.004 A 
ATOM      5  S   UNL     1       8.160  -1.839   0.171  0.00  0.00    -0.077 S 
ATOM      6  C   UNL     1       8.249  -2.038  -2.936  0.00  0.00    +0.043 C 
ATOM      7  C   UNL     1       7.427  -1.126  -3.874  0.00  0.00    +0.010 C 
ATOM      8  C   UNL     1       6.154  -0.883  -3.039  0.00  0.00    +0.037 C 
ENDROOT
BRANCH   1  11
ATOM      9  C   UNL     1       7.335  -1.232   3.141  0.00  0.00    +0.405 C 
ATOM     10  O   UNL     1       8.355  -1.816   2.836  0.00  0.00    -0.226 OA
ATOM     11  N   UNL     1       6.489  -0.807   2.182  0.00  0.00    -0.245 N 
ATOM     12  H   UNL     1       5.674  -0.340   2.426  0.00  0.00    +0.159 HD
BRANCH   9  14
ATOM     13  C   UNL     1       8.005  -1.495   5.417  0.00  0.00    +0.282 C 
ATOM     14  O   UNL     1       7.049  -1.009   4.438  0.00  0.00    -0.453 OA
ENDBRANCH   9  14
ENDBRANCH   1  11
BRANCH   2  15
ATOM     15  C   UNL     1       4.775   0.038  -0.144  0.00  0.00    +0.251 C 
ATOM     16  O   UNL     1       4.761   1.255  -0.138  0.00  0.00    -0.270 OA
ATOM     17  N   UNL     1       3.621  -0.650  -0.035  0.00  0.00    -0.281 N 
ATOM     18  H   UNL     1       3.638  -1.617   0.037  0.00  0.00    +0.155 HD
BRANCH  17  19
ATOM     19  C   UNL     1       2.399   0.031  -0.026  0.00  0.00    +0.034 A 
ATOM     20  C   UNL     1       2.245   1.194  -0.770  0.00  0.00    +0.023 A 
ATOM     21  C   UNL     1       1.037   1.863  -0.759  0.00  0.00    +0.002 A 
ATOM     22  C   UNL     1      -0.018   1.377  -0.009  0.00  0.00    +0.000 A 
ATOM     23  C   UNL     1       0.132   0.219   0.732  0.00  0.00    +0.002 A 
ATOM     24  C   UNL     1       1.338  -0.455   0.726  0.00  0.00    +0.023 A 
ENDBRANCH  17  19
ENDBRANCH   2  15
TORSDOF 4
