REMARK  Name = ZINC35226370
REMARK  14 active torsions:
REMARK  status: ('A' for Active; 'I' for Inactive)
REMARK    1  A    between atoms: C_1  and  C_2
REMARK    2  A    between atoms: C_5  and  C_8
REMARK    3  A    between atoms: C_8  and  N_9
REMARK    4  A    between atoms: N_9  and  C_10
REMARK    5  A    between atoms: N_9  and  C_34
REMARK    6  A    between atoms: C_10  and  C_11
REMARK    7  A    between atoms: C_14  and  C_16
REMARK    8  A    between atoms: N_18  and  C_19
REMARK    9  A    between atoms: C_19  and  C_20
REMARK   10  A    between atoms: C_20  and  C_21
REMARK   11  A    between atoms: C_21  and  C_22
REMARK   12  A    between atoms: C_21  and  C_28
REMARK   13  A    between atoms: C_34  and  C_35
REMARK   14  A    between atoms: C_34  and  C_36
REMARK                            x       y       z     vdW  Elec       q    Type
REMARK                         _______ _______ _______ _____ _____    ______ ____
ROOT
ATOM      1  C   UNL     1       2.786 -10.348  -0.591  0.00  0.00    +0.090 A 
ATOM      2  C   UNL     1       3.512 -11.178   0.191  0.00  0.00    +0.043 A 
ATOM      3  C   UNL     1       4.840 -11.110  -0.257  0.00  0.00    +0.055 A 
ATOM      4  C   UNL     1       4.858 -10.232  -1.302  0.00  0.00    +0.189 A 
ATOM      5  O   UNL     1       3.600  -9.784  -1.493  0.00  0.00    -0.457 OA
ENDROOT
BRANCH   4   6
ATOM      6  C   UNL     1       6.038  -9.847  -2.084  0.00  0.00    +0.279 C 
ATOM      7  O   UNL     1       7.126 -10.323  -1.819  0.00  0.00    -0.267 OA
ATOM      8  N   UNL     1       5.917  -8.965  -3.096  0.00  0.00    -0.309 N 
ATOM      9  H   UNL     1       5.050  -8.585  -3.307  0.00  0.00    +0.149 HD
BRANCH   8  10
ATOM     10  C   UNL     1       7.096  -8.580  -3.876  0.00  0.00    +0.105 C 
BRANCH  10  11
ATOM     11  C   UNL     1       6.687  -7.574  -4.955  0.00  0.00    +0.031 C 
BRANCH  11  12
ATOM     12  C   UNL     1       7.917  -7.172  -5.770  0.00  0.00    +0.050 C 
BRANCH  12  13
ATOM     13  C   UNL     1       7.496  -6.279  -6.908  0.00  0.00    -0.040 A 
ATOM     14  C   UNL     1       7.864  -6.590  -8.204  0.00  0.00    +0.004 A 
ATOM     15  C   UNL     1       7.477  -5.770  -9.248  0.00  0.00    +0.000 A 
ATOM     16  C   UNL     1       6.723  -4.639  -8.996  0.00  0.00    +0.000 A 
ATOM     17  C   UNL     1       6.354  -4.329  -7.700  0.00  0.00    +0.000 A 
ATOM     18  C   UNL     1       6.737  -5.151  -6.657  0.00  0.00    +0.004 A 
ENDBRANCH  12  13
BRANCH  12  19
ATOM     19  C   UNL     1       8.887  -6.434  -4.884  0.00  0.00    -0.040 A 
ATOM     20  C   UNL     1       8.470  -5.320  -4.180  0.00  0.00    +0.004 A 
ATOM     21  C   UNL     1       9.360  -4.643  -3.368  0.00  0.00    +0.000 A 
ATOM     22  C   UNL     1      10.667  -5.080  -3.259  0.00  0.00    +0.000 A 
ATOM     23  C   UNL     1      11.084  -6.195  -3.962  0.00  0.00    +0.000 A 
ATOM     24  C   UNL     1      10.193  -6.874  -4.772  0.00  0.00    +0.004 A 
ENDBRANCH  12  19
ENDBRANCH  11  12
ENDBRANCH  10  11
ENDBRANCH   8  10
ENDBRANCH   4   6
BRANCH   1  25
ATOM     25  C   UNL     1       1.304 -10.104  -0.473  0.00  0.00    -0.002 C 
BRANCH  25  26
ATOM     26  N   UNL     1       1.047  -8.658  -0.448  0.00  0.00    +0.389 N 
ATOM     27  H   UNL     1       1.545  -8.214  -1.205  0.00  0.00    -0.080 HD
BRANCH  26  28
ATOM     28  C   UNL     1       1.505  -8.101   0.832  0.00  0.00    -0.074 C 
ATOM     29  C   UNL     1       0.867  -8.880   1.984  0.00  0.00    -0.013 C 
ATOM     30  C   UNL     1       3.028  -8.214   0.921  0.00  0.00    -0.013 C 
ENDBRANCH  26  28
BRANCH  26  31
ATOM     31  C   UNL     1      -0.394  -8.414  -0.600  0.00  0.00    -0.042 C 
BRANCH  31  36
ATOM     32  C   UNL     1      -1.337  -2.745  -1.206  0.00  0.00    +0.044 C 
ATOM     33  C   UNL     1      -1.091  -4.223  -1.048  0.00  0.00    -0.050 A 
ATOM     34  C   UNL     1      -0.627  -4.965  -2.118  0.00  0.00    +0.003 A 
ATOM     35  C   UNL     1      -0.402  -6.321  -1.973  0.00  0.00    +0.002 A 
ATOM     36  C   UNL     1      -0.639  -6.935  -0.758  0.00  0.00    -0.064 A 
ATOM     37  C   UNL     1      -1.102  -6.193   0.313  0.00  0.00    +0.002 A 
ATOM     38  C   UNL     1      -1.324  -4.836   0.169  0.00  0.00    +0.003 A 
ENDBRANCH  31  36
ENDBRANCH  26  31
ENDBRANCH  25  26
ENDBRANCH   1  25
TORSDOF 11
