REMARK  Name = ZINC20479699
REMARK  4 active torsions:
REMARK  status: ('A' for Active; 'I' for Inactive)
REMARK    1  A    between atoms: C_1  and  C_2
REMARK    2  A    between atoms: C_2  and  C_4
REMARK    3  A    between atoms: C_2  and  N_16
REMARK    4  A    between atoms: N_16  and  C_17
REMARK                            x       y       z     vdW  Elec       q    Type
REMARK                         _______ _______ _______ _____ _____    ______ ____
ROOT
ATOM      1  C   UNL     1       1.179   1.781   0.000  0.00  0.00    -0.026 A 
ATOM      2  C   UNL     1      -0.013   1.076   0.008  0.00  0.00    +0.007 A 
ATOM      3  C   UNL     1      -1.220   1.747   0.017  0.00  0.00    +0.028 A 
ATOM      4  C   UNL     1      -1.238   3.134   0.030  0.00  0.00    +0.067 A 
ATOM      5  C   UNL     1      -0.037   3.845   0.022  0.00  0.00    +0.067 A 
ATOM      6  C   UNL     1       1.170   3.162   0.007  0.00  0.00    +0.033 A 
ATOM      7  N   UNL     1      -0.370   5.197   0.033  0.00  0.00    -0.306 N 
ATOM      8  H   UNL     1       0.424   5.959   0.029  0.00  0.00    +0.170 HD
ATOM      9  C   UNL     1      -1.712   5.304   0.046  0.00  0.00    +0.325 A 
ATOM     10  O   UNL     1      -2.332   6.351   0.057  0.00  0.00    -0.247 OA
ATOM     11  N   UNL     1      -2.264   4.076   0.045  0.00  0.00    -0.306 N 
ATOM     12  H   UNL     1      -3.313   3.746   0.053  0.00  0.00    +0.170 HD
ENDROOT
BRANCH   1  14
ATOM     13  C   UNL     1       2.797   0.577  -1.441  0.00  0.00    +0.033 C 
ATOM     14  C   UNL     1       2.490   1.039  -0.015  0.00  0.00    +0.098 C 
BRANCH  14  15
ATOM     15  N   UNL     1       2.402  -0.126   0.868  0.00  0.00    -0.336 N 
ATOM     16  H   UNL     1       1.423  -0.580   1.085  0.00  0.00    +0.147 HD
BRANCH  15  17
ATOM     17  C   UNL     1       3.561  -0.662   1.435  0.00  0.00    +0.041 A 
ATOM     18  C   UNL     1       4.798  -0.091   1.162  0.00  0.00    +0.024 A 
ATOM     19  C   UNL     1       5.941  -0.623   1.724  0.00  0.00    +0.002 A 
ATOM     20  C   UNL     1       5.857  -1.723   2.558  0.00  0.00    +0.001 A 
ATOM     21  C   UNL     1       4.628  -2.295   2.832  0.00  0.00    +0.016 A 
ATOM     22  C   UNL     1       3.479  -1.764   2.277  0.00  0.00    +0.034 A 
ATOM     23  I   UNL     1       1.616  -2.625   2.700  0.00  0.00    -0.042 I 
ENDBRANCH  15  17
ENDBRANCH  14  15
ENDBRANCH   1  14
TORSDOF 3
