REMARK  Name = ZINC16861184
REMARK  16 active torsions:
REMARK  status: ('A' for Active; 'I' for Inactive)
REMARK    1  A    between atoms: C_1  and  C_2
REMARK    2  A    between atoms: C_2  and  C_4
REMARK    3  A    between atoms: C_2  and  S_16
REMARK    4  A    between atoms: N_6  and  C_7
REMARK    5  A    between atoms: C_12  and  C_13
REMARK    6  A    between atoms: C_13  and  C_15
REMARK    7  A    between atoms: S_16  and  C_17
REMARK    8  A    between atoms: N_27  and  C_28
REMARK    9  A    between atoms: C_28  and  C_29
REMARK   10  A    between atoms: C_29  and  N_30
REMARK   11  A    between atoms: N_30  and  C_31
REMARK   12  A    between atoms: N_30  and  C_34
REMARK   13  A    between atoms: C_31  and  C_32
REMARK   14  A    between atoms: C_31  and  C_33
REMARK   15  A    between atoms: C_34  and  C_35
REMARK   16  A    between atoms: C_34  and  C_36
REMARK                            x       y       z     vdW  Elec       q    Type
REMARK                         _______ _______ _______ _____ _____    ______ ____
ROOT
ATOM      1  C   UNL     1       2.999  -0.534   0.959  0.00  0.00    +0.173 A 
ATOM      2  N   UNL     1       3.289   0.003  -0.200  0.00  0.00    -0.223 NA
ATOM      3  C   UNL     1       4.546   0.380  -0.510  0.00  0.00    +0.079 A 
ATOM      4  C   UNL     1       4.855   0.955  -1.747  0.00  0.00    +0.028 A 
ATOM      5  C   UNL     1       6.142   1.322  -2.019  0.00  0.00    +0.002 A 
ATOM      6  C   UNL     1       7.152   1.134  -1.084  0.00  0.00    +0.001 A 
ATOM      7  C   UNL     1       6.881   0.575   0.134  0.00  0.00    +0.015 A 
ATOM      8  C   UNL     1       5.576   0.191   0.439  0.00  0.00    +0.065 A 
ATOM      9  C   UNL     1       5.226  -0.414   1.731  0.00  0.00    +0.262 A 
ATOM     10  O   UNL     1       6.069  -0.602   2.589  0.00  0.00    -0.267 OA
ATOM     11  N   UNL     1       3.931  -0.748   1.935  0.00  0.00    -0.289 N 
ENDROOT
BRANCH   1  12
ATOM     12  S   UNL     1       1.329  -0.996   1.276  0.00  0.00    -0.075 S 
BRANCH  12  14
ATOM     13  C   UNL     1       0.491   0.971  -0.429  0.00  0.00    +0.029 C 
ATOM     14  C   UNL     1       0.452  -0.547  -0.247  0.00  0.00    +0.137 C 
BRANCH  14  15
ATOM     15  C   UNL     1      -0.981  -1.006  -0.155  0.00  0.00    +0.230 C 
ATOM     16  O   UNL     1      -1.502  -1.153   0.929  0.00  0.00    -0.274 OA
ATOM     17  N   UNL     1      -1.682  -1.252  -1.279  0.00  0.00    -0.284 N 
ATOM     18  H   UNL     1      -1.288  -1.070  -2.147  0.00  0.00    +0.155 HD
BRANCH  17  19
ATOM     19  C   UNL     1      -2.972  -1.768  -1.196  0.00  0.00    +0.044 A 
ATOM     20  C   UNL     1      -3.812  -1.382  -0.159  0.00  0.00    +0.024 A 
ATOM     21  C   UNL     1      -5.090  -1.895  -0.078  0.00  0.00    +0.002 A 
ATOM     22  C   UNL     1      -5.548  -2.797  -1.026  0.00  0.00    +0.001 A 
ATOM     23  C   UNL     1      -4.732  -3.192  -2.062  0.00  0.00    +0.013 A 
ATOM     24  C   UNL     1      -3.434  -2.677  -2.163  0.00  0.00    +0.038 A 
BRANCH  24  25
ATOM     25  C   UNL     1      -2.559  -3.089  -3.267  0.00  0.00    +0.162 C 
ATOM     26  O   UNL     1      -1.404  -2.720  -3.296  0.00  0.00    -0.292 OA
ATOM     27  C   UNL     1      -3.096  -3.971  -4.365  0.00  0.00    +0.091 C 
ENDBRANCH  24  25
ENDBRANCH  17  19
ENDBRANCH  14  15
ENDBRANCH  12  14
ENDBRANCH   1  12
BRANCH  11  28
ATOM     28  C   UNL     1       3.526  -1.349   3.208  0.00  0.00    +0.109 C 
BRANCH  28  29
ATOM     29  C   UNL     1       3.645  -2.872   3.114  0.00  0.00    -0.056 C 
BRANCH  29  30
ATOM     30  N   UNL     1       3.087  -3.482   4.328  0.00  0.00    +0.384 N 
ATOM     31  H   UNL     1       2.137  -3.168   4.457  0.00  0.00    -0.081 HD
BRANCH  30  32
ATOM     32  C   UNL     1       3.105  -4.945   4.193  0.00  0.00    -0.074 C 
ATOM     33  C   UNL     1       2.395  -5.577   5.393  0.00  0.00    -0.014 C 
ATOM     34  C   UNL     1       2.386  -5.347   2.905  0.00  0.00    -0.014 C 
ENDBRANCH  30  32
BRANCH  30  35
ATOM     35  C   UNL     1       3.895  -3.088   5.490  0.00  0.00    -0.074 C 
ATOM     36  C   UNL     1       5.363  -2.973   5.076  0.00  0.00    -0.014 C 
ATOM     37  C   UNL     1       3.406  -1.736   6.016  0.00  0.00    -0.014 C 
ENDBRANCH  30  35
ENDBRANCH  29  30
ENDBRANCH  28  29
ENDBRANCH  11  28
TORSDOF 10
