REMARK  Name = ZINC30977380
REMARK  8 active torsions:
REMARK  status: ('A' for Active; 'I' for Inactive)
REMARK    1  A    between atoms: C_1  and  C_2
REMARK    2  A    between atoms: C_2  and  C_3
REMARK    3  A    between atoms: C_2  and  C_4
REMARK    4  A    between atoms: C_2  and  C_5
REMARK    5  A    between atoms: C_8  and  C_11
REMARK    6  A    between atoms: C_13  and  C_16
REMARK    7  A    between atoms: C_16  and  N_17
REMARK    8  A    between atoms: C_20  and  C_23
REMARK                            x       y       z     vdW  Elec       q    Type
REMARK                         _______ _______ _______ _____ _____    ______ ____
ROOT
ATOM      1  N   UNL     1      -6.197   2.631   1.851  0.00  0.00    +0.386 N 
ATOM      2  C   UNL     1      -5.476   2.800   3.119  0.00  0.00    -0.077 C 
ATOM      3  C   UNL     1      -4.197   3.605   2.877  0.00  0.00    -0.006 C 
ATOM      4  C   UNL     1      -3.319   2.866   1.863  0.00  0.00    +0.072 C 
ATOM      5  C   UNL     1      -4.110   2.661   0.569  0.00  0.00    -0.006 C 
ATOM      6  C   UNL     1      -5.391   1.883   0.878  0.00  0.00    -0.077 C 
ATOM      7  H   UNL     1      -6.381   3.632   1.435  0.00  0.00    -0.081 HD
ENDROOT
BRANCH   4   8
ATOM      8  C   UNL     1      -2.086   3.684   1.576  0.00  0.00    +0.223 C 
ATOM      9  O   UNL     1      -1.924   4.752   2.126  0.00  0.00    -0.275 OA
ATOM     10  N   UNL     1      -1.163   3.227   0.706  0.00  0.00    -0.261 N 
ATOM     11  C   UNL     1      -1.335   1.935   0.019  0.00  0.00    +0.209 C 
ATOM     12  C   UNL     1      -0.014   1.209   0.009  0.00  0.00    +0.235 C 
ATOM     13  O   UNL     1       0.002  -0.004   0.002  0.00  0.00    -0.274 OA
ATOM     14  N   UNL     1       1.147   1.890   0.001  0.00  0.00    -0.283 N 
ATOM     15  C   UNL     1       1.157   3.288   0.059  0.00  0.00    +0.055 A 
ATOM     16  C   UNL     1      -0.006   3.970   0.421  0.00  0.00    +0.058 A 
ATOM     17  C   UNL     1      -0.009   5.351   0.489  0.00  0.00    +0.025 A 
ATOM     18  C   UNL     1       1.144   6.056   0.192  0.00  0.00    +0.002 A 
ATOM     19  C   UNL     1       2.296   5.383  -0.172  0.00  0.00    +0.002 A 
ATOM     20  C   UNL     1       2.306   4.001  -0.238  0.00  0.00    +0.025 A 
ATOM     21  H   UNL     1       2.103   1.347  -0.050  0.00  0.00    +0.155 HD
ENDBRANCH   4   8
BRANCH   1  22
ATOM     22  C   UNL     1      -7.497   1.982   2.068  0.00  0.00    +0.022 C 
BRANCH  22  25
ATOM     23  C   UNL     1      -9.184   1.633  -1.087  0.00  0.00    +0.202 A 
ATOM     24  N   UNL     1      -8.318   1.158  -0.164  0.00  0.00    -0.193 NA
ATOM     25  C   UNL     1      -8.307   2.046   0.799  0.00  0.00    +0.211 A 
ATOM     26  O   UNL     1      -9.155   3.018   0.446  0.00  0.00    -0.340 OA
ATOM     27  N   UNL     1      -9.644   2.770  -0.636  0.00  0.00    -0.056 NA
BRANCH  23  31
ATOM     28  C   UNL     1     -10.214  -0.225  -4.772  0.00  0.00    -0.042 A 
ATOM     29  C   UNL     1     -10.787   0.986  -4.426  0.00  0.00    +0.005 A 
ATOM     30  C   UNL     1     -10.457   1.593  -3.231  0.00  0.00    +0.012 A 
ATOM     31  C   UNL     1      -9.543   0.984  -2.373  0.00  0.00    +0.022 A 
ATOM     32  C   UNL     1      -8.965  -0.232  -2.728  0.00  0.00    +0.012 A 
ATOM     33  C   UNL     1      -9.306  -0.833  -3.923  0.00  0.00    +0.005 A 
BRANCH  28  35
ATOM     34  C   UNL     1     -10.212   0.047  -7.236  0.00  0.00    +0.015 C 
ATOM     35  C   UNL     1     -10.579  -0.882  -6.077  0.00  0.00    -0.013 C 
ATOM     36  C   UNL     1      -9.811  -2.199  -6.217  0.00  0.00    +0.015 C 
ATOM     37  C   UNL     1     -12.082  -1.163  -6.105  0.00  0.00    +0.015 C 
ENDBRANCH  28  35
ENDBRANCH  23  31
ENDBRANCH  22  25
ENDBRANCH   1  22
TORSDOF 5
