REMARK  Name = ZINC40102270
REMARK  15 active torsions:
REMARK  status: ('A' for Active; 'I' for Inactive)
REMARK    1  A    between atoms: C_1  and  C_2
REMARK    2  A    between atoms: C_2  and  O_3
REMARK    3  A    between atoms: O_3  and  C_4
REMARK    4  A    between atoms: C_6  and  C_14
REMARK    5  A    between atoms: C_9  and  O_10
REMARK    6  A    between atoms: O_10  and  C_11
REMARK    7  A    between atoms: C_11  and  C_12
REMARK    8  A    between atoms: C_16  and  C_25
REMARK    9  A    between atoms: N_20  and  C_21
REMARK   10  A    between atoms: C_21  and  C_22
REMARK   11  A    between atoms: C_22  and  O_23
REMARK   12  A    between atoms: C_25  and  C_27
REMARK   13  A    between atoms: C_31  and  O_33
REMARK   14  A    between atoms: O_33  and  C_34
REMARK   15  A    between atoms: C_34  and  C_35
REMARK                            x       y       z     vdW  Elec       q    Type
REMARK                         _______ _______ _______ _____ _____    ______ ____
ROOT
ATOM      1  C   UNL     1       0.547  -4.931  -0.252  0.00  0.00    +0.145 C 
ATOM      2  C   UNL     1       1.015  -5.295  -1.641  0.00  0.00    +0.076 C 
ATOM      3  C   UNL     1       0.984  -6.646  -1.723  0.00  0.00    +0.249 C 
ATOM      4  C   UNL     1       0.512  -7.199  -0.436  0.00  0.00    +0.288 C 
ATOM      5  O   UNL     1       0.377  -8.382  -0.193  0.00  0.00    -0.266 OA
ATOM      6  N   UNL     1       0.256  -6.199   0.429  0.00  0.00    -0.281 N 
ATOM      7  O   UNL     1       1.331  -7.374  -2.809  0.00  0.00    -0.282 OA
ENDROOT
BRANCH   1  10
ATOM      8  C   UNL     1      -1.802  -1.982  -0.010  0.00  0.00    +0.162 A 
ATOM      9  C   UNL     1      -0.657  -2.760   0.060  0.00  0.00    +0.055 A 
ATOM     10  C   UNL     1      -0.698  -4.086  -0.329  0.00  0.00    -0.019 A 
ATOM     11  C   UNL     1      -1.879  -4.639  -0.788  0.00  0.00    +0.009 A 
ATOM     12  C   UNL     1      -3.024  -3.868  -0.862  0.00  0.00    +0.050 A 
ATOM     13  C   UNL     1      -2.992  -2.540  -0.467  0.00  0.00    +0.162 A 
BRANCH   8  14
ATOM     14  O   UNL     1      -1.764  -0.678   0.373  0.00  0.00    -0.489 OA
BRANCH  14  16
ATOM     15  C   UNL     1      -0.621   1.355   1.008  0.00  0.00    +0.048 C 
ATOM     16  C   UNL     1      -0.487  -0.143   0.726  0.00  0.00    +0.226 C 
ENDBRANCH  14  16
ENDBRANCH   8  14
BRANCH  13  17
ATOM     17  O   UNL     1      -4.119  -1.782  -0.533  0.00  0.00    -0.484 OA
BRANCH  17  18
ATOM     18  C   UNL     1      -5.304  -2.421  -1.012  0.00  0.00    +0.256 C 
BRANCH  18  19
ATOM     19  C   UNL     1      -6.442  -1.433  -1.015  0.00  0.00    +0.006 C 
ATOM     20  C   UNL     1      -7.240  -1.356  -2.051  0.00  0.00    +0.007 C 
ENDBRANCH  18  19
ENDBRANCH  17  18
ENDBRANCH  13  17
ENDBRANCH   1  10
BRANCH   2  21
ATOM     21  C   UNL     1       1.423  -4.364  -2.698  0.00  0.00    +0.195 C 
ATOM     22  O   UNL     1       0.836  -4.359  -3.764  0.00  0.00    -0.287 OA
BRANCH  21  23
ATOM     23  C   UNL     1       2.547  -3.432  -2.469  0.00  0.00    +0.026 A 
ATOM     24  C   UNL     1       3.299  -3.516  -1.295  0.00  0.00    +0.012 A 
ATOM     25  C   UNL     1       4.348  -2.645  -1.084  0.00  0.00    +0.004 A 
ATOM     26  C   UNL     1       4.658  -1.687  -2.033  0.00  0.00    +0.046 A 
ATOM     27  C   UNL     1       3.916  -1.596  -3.203  0.00  0.00    +0.122 A 
ATOM     28  C   UNL     1       2.865  -2.469  -3.427  0.00  0.00    +0.057 A 
BRANCH  27  29
ATOM     29  O   UNL     1       4.225  -0.653  -4.131  0.00  0.00    -0.488 OA
BRANCH  29  30
ATOM     30  C   UNL     1       5.326   0.211  -3.837  0.00  0.00    +0.256 C 
BRANCH  30  31
ATOM     31  C   UNL     1       5.518   1.184  -4.972  0.00  0.00    +0.006 C 
ATOM     32  C   UNL     1       5.720   2.453  -4.720  0.00  0.00    +0.007 C 
ENDBRANCH  30  31
ENDBRANCH  29  30
ENDBRANCH  27  29
ENDBRANCH  21  23
ENDBRANCH   2  21
BRANCH   6  33
ATOM     33  C   UNL     1      -0.228  -6.348   1.803  0.00  0.00    +0.137 C 
BRANCH  33  34
ATOM     34  C   UNL     1      -1.758  -6.341   1.809  0.00  0.00    +0.175 C 
BRANCH  34  35
ATOM     35  O   UNL     1      -2.242  -7.490   1.111  0.00  0.00    -0.393 OA
ATOM     36  H   UNL     1      -3.206  -7.550   1.075  0.00  0.00    +0.209 HD
ENDBRANCH  34  35
ENDBRANCH  33  34
ENDBRANCH   6  33
TORSDOF 14
