REMARK  Name = ZINC09223706
REMARK  7 active torsions:
REMARK  status: ('A' for Active; 'I' for Inactive)
REMARK    1  A    between atoms: C_1  and  C_2
REMARK    2  A    between atoms: C_5  and  N_8
REMARK    3  A    between atoms: C_13  and  N_29
REMARK    4  A    between atoms: C_15  and  C_21
REMARK    5  A    between atoms: C_18  and  C_20
REMARK    6  A    between atoms: C_24  and  C_27
REMARK    7  A    between atoms: C_30  and  C_32
REMARK                            x       y       z     vdW  Elec       q    Type
REMARK                         _______ _______ _______ _____ _____    ______ ____
ROOT
ATOM      1  N   UNL     1       2.135   0.707   0.034  0.00  0.00    -0.206 N 
ATOM      2  C   UNL     1       1.324   1.802  -0.001  0.00  0.00    +0.140 C 
ATOM      3  N   UNL     1       1.616   3.098  -0.067  0.00  0.00    -0.162 NA
ATOM      4  C   UNL     1       0.646   3.974  -0.288  0.00  0.00    +0.259 C 
ATOM      5  O   UNL     1       0.912   5.157  -0.205  0.00  0.00    -0.272 OA
ATOM      6  C   UNL     1      -0.761   3.590  -0.636  0.00  0.00    +0.173 C 
ATOM      7  C   UNL     1      -1.186   2.288   0.051  0.00  0.00    +0.083 C 
ATOM      8  C   UNL     1      -0.016   1.335   0.009  0.00  0.00    +0.019 C 
ATOM      9  C   UNL     1       0.002  -0.004   0.002  0.00  0.00    +0.026 C 
ATOM     10  N   UNL     1       1.303  -0.425   0.010  0.00  0.00    -0.262 N 
ATOM     11  C   UNL     1      -1.211  -0.899  -0.013  0.00  0.00    +0.062 C 
ATOM     12  H   UNL     1       1.601  -1.349   0.000  0.00  0.00    +0.170 HD
ENDROOT
BRANCH   1  17
ATOM     13  C   UNL     1       7.803   0.719   0.241  0.00  0.00    +0.044 C 
ATOM     14  C   UNL     1       6.296   0.716   0.186  0.00  0.00    -0.050 A 
ATOM     15  C   UNL     1       5.609  -0.484   0.167  0.00  0.00    +0.005 A 
ATOM     16  C   UNL     1       4.229  -0.490   0.117  0.00  0.00    +0.025 A 
ATOM     17  C   UNL     1       3.531   0.710   0.085  0.00  0.00    +0.055 A 
ATOM     18  C   UNL     1       4.225   1.914   0.099  0.00  0.00    +0.025 A 
ATOM     19  C   UNL     1       5.605   1.913   0.155  0.00  0.00    +0.005 A 
ENDBRANCH   1  17
BRANCH   7  20
ATOM     20  C   UNL     1      -1.564   2.569   1.483  0.00  0.00    -0.037 A 
ATOM     21  C   UNL     1      -0.638   3.134   2.341  0.00  0.00    +0.005 A 
ATOM     22  C   UNL     1      -0.979   3.398   3.652  0.00  0.00    +0.019 A 
ATOM     23  C   UNL     1      -2.258   3.082   4.114  0.00  0.00    +0.052 A 
ATOM     24  C   UNL     1      -3.186   2.507   3.243  0.00  0.00    +0.019 A 
ATOM     25  C   UNL     1      -2.833   2.254   1.934  0.00  0.00    +0.005 A 
BRANCH  23  26
ATOM     26  C   UNL     1      -2.616   3.347   5.475  0.00  0.00    +0.099 C 
ATOM     27  N   UNL     1      -2.901   3.557   6.554  0.00  0.00    -0.191 NA
ENDBRANCH  23  26
ENDBRANCH   7  20
BRANCH   6  28
ATOM     28  N   UNL     1      -0.864   3.415  -2.087  0.00  0.00    -0.299 N 
ATOM     29  C   UNL     1      -1.090   4.482  -2.879  0.00  0.00    +0.245 C 
ATOM     30  O   UNL     1      -1.210   5.588  -2.390  0.00  0.00    -0.270 OA
ATOM     31  H   UNL     1      -0.768   2.533  -2.477  0.00  0.00    +0.150 HD
BRANCH  29  32
ATOM     32  C   UNL     1      -1.193   4.306  -4.344  0.00  0.00    +0.037 A 
ATOM     33  C   UNL     1      -1.050   3.038  -4.909  0.00  0.00    +0.013 A 
ATOM     34  C   UNL     1      -1.152   2.880  -6.276  0.00  0.00    +0.001 A 
ATOM     35  C   UNL     1      -1.385   3.977  -7.087  0.00  0.00    +0.000 A 
ATOM     36  C   UNL     1      -1.522   5.237  -6.533  0.00  0.00    +0.001 A 
ATOM     37  C   UNL     1      -1.428   5.408  -5.167  0.00  0.00    +0.013 A 
ENDBRANCH  29  32
ENDBRANCH   6  28
TORSDOF 5
