REMARK  Name = ZINC18044101
REMARK  12 active torsions:
REMARK  status: ('A' for Active; 'I' for Inactive)
REMARK    1  A    between atoms: C_1  and  C_2
REMARK    2  A    between atoms: C_2  and  C_3
REMARK    3  A    between atoms: C_3  and  O_4
REMARK    4  A    between atoms: O_4  and  C_5
REMARK    5  A    between atoms: C_8  and  C_14
REMARK    6  A    between atoms: C_10  and  O_11
REMARK    7  A    between atoms: O_11  and  C_12
REMARK    8  A    between atoms: C_12  and  C_13
REMARK    9  A    between atoms: N_22  and  C_25
REMARK   10  A    between atoms: C_28  and  C_31
REMARK   11  A    between atoms: C_31  and  C_32
REMARK   12  A    between atoms: N_34  and  C_35
REMARK                            x       y       z     vdW  Elec       q    Type
REMARK                         _______ _______ _______ _____ _____    ______ ____
ROOT
ATOM      1  C   UNL     1       3.022  -4.678   5.537  0.00  0.00    +0.157 C 
ATOM      2  C   UNL     1       2.311  -4.453   6.892  0.00  0.00    +0.145 C 
ATOM      3  C   UNL     1       3.100  -3.272   7.520  0.00  0.00    +0.249 C 
ATOM      4  C   UNL     1       3.784  -3.902   8.712  0.00  0.00    +0.259 C 
ATOM      5  O   UNL     1       4.518  -3.325   9.485  0.00  0.00    -0.272 OA
ATOM      6  N   UNL     1       3.453  -5.197   8.780  0.00  0.00    -0.208 N 
ATOM      7  C   UNL     1       2.612  -5.622   7.804  0.00  0.00    +0.235 C 
ATOM      8  O   UNL     1       2.173  -6.744   7.672  0.00  0.00    -0.274 OA
ATOM      9  O   UNL     1       4.078  -2.891   6.536  0.00  0.00    -0.257 OA
ATOM     10  N   UNL     1       4.356  -4.068   5.755  0.00  0.00    -0.244 N 
ENDROOT
BRANCH   1  14
ATOM     11  C   UNL     1       0.942  -2.673   2.384  0.00  0.00    +0.162 A 
ATOM     12  C   UNL     1       1.753  -1.956   3.248  0.00  0.00    +0.050 A 
ATOM     13  C   UNL     1       2.424  -2.607   4.267  0.00  0.00    +0.009 A 
ATOM     14  C   UNL     1       2.288  -3.974   4.425  0.00  0.00    -0.018 A 
ATOM     15  C   UNL     1       1.481  -4.695   3.566  0.00  0.00    +0.055 A 
ATOM     16  C   UNL     1       0.801  -4.048   2.546  0.00  0.00    +0.162 A 
BRANCH  11  17
ATOM     17  O   UNL     1       0.281  -2.034   1.381  0.00  0.00    -0.488 OA
BRANCH  17  18
ATOM     18  C   UNL     1       0.474  -0.622   1.274  0.00  0.00    +0.229 C 
BRANCH  18  20
ATOM     19  C   UNL     1      -0.138   1.428  -0.016  0.00  0.00    +0.007 C 
ATOM     20  C   UNL     1      -0.343  -0.084   0.098  0.00  0.00    +0.038 C 
ENDBRANCH  18  20
ENDBRANCH  17  18
ENDBRANCH  11  17
BRANCH  16  21
ATOM     21  O   UNL     1       0.002  -4.756   1.704  0.00  0.00    -0.489 OA
BRANCH  21  22
ATOM     22  C   UNL     1      -0.095  -6.163   1.931  0.00  0.00    +0.226 C 
ATOM     23  C   UNL     1      -1.031  -6.784   0.891  0.00  0.00    +0.048 C 
ENDBRANCH  21  22
ENDBRANCH  16  21
ENDBRANCH   1  14
BRANCH   6  24
ATOM     24  C   UNL     1       3.930  -6.050   9.786  0.00  0.00    +0.044 A 
ATOM     25  C   UNL     1       4.805  -7.079   9.467  0.00  0.00    +0.024 A 
ATOM     26  C   UNL     1       5.274  -7.918  10.459  0.00  0.00    +0.005 A 
ATOM     27  C   UNL     1       4.872  -7.733  11.770  0.00  0.00    -0.048 A 
ATOM     28  C   UNL     1       4.000  -6.708  12.090  0.00  0.00    +0.005 A 
ATOM     29  C   UNL     1       3.533  -5.863  11.102  0.00  0.00    +0.024 A 
BRANCH  27  30
ATOM     30  C   UNL     1       5.384  -8.649  12.850  0.00  0.00    +0.032 C 
ATOM     31  C   UNL     1       6.677  -8.076  13.434  0.00  0.00    +0.009 C 
ENDBRANCH  27  30
ENDBRANCH   6  24
BRANCH  10  32
ATOM     32  C   UNL     1       5.593  -4.530   5.299  0.00  0.00    +0.065 A 
ATOM     33  C   UNL     1       5.665  -5.691   4.539  0.00  0.00    +0.028 A 
ATOM     34  C   UNL     1       6.889  -6.145   4.089  0.00  0.00    +0.002 A 
ATOM     35  C   UNL     1       8.042  -5.446   4.395  0.00  0.00    +0.000 A 
ATOM     36  C   UNL     1       7.974  -4.290   5.151  0.00  0.00    +0.002 A 
ATOM     37  C   UNL     1       6.752  -3.827   5.599  0.00  0.00    +0.028 A 
ENDBRANCH  10  32
TORSDOF 9
