REMARK  Name = ZINC12973648
REMARK  8 active torsions:
REMARK  status: ('A' for Active; 'I' for Inactive)
REMARK    1  A    between atoms: C_1  and  C_2
REMARK    2  A    between atoms: C_2  and  C_3
REMARK    3  A    between atoms: C_2  and  C_4
REMARK    4  A    between atoms: C_2  and  C_5
REMARK    5  A    between atoms: C_8  and  C_11
REMARK    6  A    between atoms: N_13  and  N_14
REMARK    7  A    between atoms: C_15  and  C_17
REMARK    8  A    between atoms: C_17  and  N_18
REMARK                            x       y       z     vdW  Elec       q    Type
REMARK                         _______ _______ _______ _____ _____    ______ ____
ROOT
ATOM      1  N   UNL     1       6.754   2.324  -3.937  0.00  0.00    -0.233 N 
ATOM      2  C   UNL     1       6.038   1.802  -2.922  0.00  0.00    +0.247 C 
ATOM      3  O   UNL     1       5.085   2.408  -2.479  0.00  0.00    -0.273 OA
ATOM      4  H   UNL     1       7.516   1.839  -4.292  0.00  0.00    +0.173 HD
ENDROOT
BRANCH   1   7
ATOM      5  C   UNL     1       7.115   4.086  -5.496  0.00  0.00    +0.260 C 
ATOM      6  O   UNL     1       8.070   3.479  -5.941  0.00  0.00    -0.269 OA
ATOM      7  N   UNL     1       6.399   3.565  -4.481  0.00  0.00    -0.230 N 
ATOM      8  H   UNL     1       5.637   4.049  -4.126  0.00  0.00    +0.173 HD
BRANCH   5  12
ATOM      9  C   UNL     1       6.037   7.850  -7.144  0.00  0.00    -0.042 A 
ATOM     10  C   UNL     1       7.125   7.162  -7.652  0.00  0.00    +0.005 A 
ATOM     11  C   UNL     1       7.480   5.939  -7.121  0.00  0.00    +0.013 A 
ATOM     12  C   UNL     1       6.740   5.396  -6.070  0.00  0.00    +0.038 A 
ATOM     13  C   UNL     1       5.641   6.093  -5.566  0.00  0.00    +0.013 A 
ATOM     14  C   UNL     1       5.300   7.318  -6.101  0.00  0.00    +0.005 A 
BRANCH   9  16
ATOM     15  C   UNL     1       5.327   9.017  -9.213  0.00  0.00    +0.015 C 
ATOM     16  C   UNL     1       5.655   9.185  -7.728  0.00  0.00    -0.013 C 
ATOM     17  C   UNL     1       4.428   9.731  -6.994  0.00  0.00    +0.015 C 
ATOM     18  C   UNL     1       6.821  10.164  -7.571  0.00  0.00    +0.015 C 
ENDBRANCH   9  16
ENDBRANCH   5  12
ENDBRANCH   1   7
BRANCH   2  19
ATOM     19  C   UNL     1       6.420   0.467  -2.337  0.00  0.00    +0.215 C 
BRANCH  19  20
ATOM     20  N   UNL     1       5.494   0.124  -1.256  0.00  0.00    -0.215 N 
ATOM     21  C   UNL     1       4.348  -0.566  -1.429  0.00  0.00    +0.251 C 
ATOM     22  O   UNL     1       3.905  -1.002  -2.470  0.00  0.00    -0.272 OA
ATOM     23  C   UNL     1       3.731  -0.679  -0.053  0.00  0.00    +0.138 C 
ATOM     24  C   UNL     1       3.614  -2.143   0.354  0.00  0.00    +0.040 C 
ATOM     25  C   UNL     1       2.490  -2.786  -0.467  0.00  0.00    +0.008 C 
ATOM     26  C   UNL     1       1.157  -2.199  -0.006  0.00  0.00    +0.035 C 
ATOM     27  C   UNL     1       1.207  -0.693  -0.013  0.00  0.00    -0.042 A 
ATOM     28  C   UNL     1       2.394   0.007  -0.026  0.00  0.00    -0.012 A 
ATOM     29  C   UNL     1       2.373   1.395  -0.016  0.00  0.00    +0.006 A 
ATOM     30  C   UNL     1       1.174   2.078   0.002  0.00  0.00    +0.000 A 
ATOM     31  C   UNL     1      -0.017   1.376   0.010  0.00  0.00    +0.000 A 
ATOM     32  C   UNL     1       0.002  -0.004   0.002  0.00  0.00    +0.004 A 
ATOM     33  N   UNL     1       4.682   0.022   0.820  0.00  0.00    -0.281 N 
ATOM     34  C   UNL     1       5.679   0.456   0.028  0.00  0.00    +0.310 C 
ATOM     35  O   UNL     1       6.641   1.081   0.432  0.00  0.00    -0.252 OA
ATOM     36  H   UNL     1       4.606   0.147   1.779  0.00  0.00    +0.152 HD
ENDBRANCH  19  20
ENDBRANCH   2  19
TORSDOF 5
