REMARK  Name = ZINC59202433
REMARK  7 active torsions:
REMARK  status: ('A' for Active; 'I' for Inactive)
REMARK    1  A    between atoms: C_3  and  N_14
REMARK    2  A    between atoms: C_4  and  N_11
REMARK    3  A    between atoms: C_6  and  C_7
REMARK    4  A    between atoms: C_18  and  C_20
REMARK    5  A    between atoms: N_22  and  N_23
REMARK    6  A    between atoms: C_24  and  C_25
REMARK    7  A    between atoms: C_30  and  O_31
REMARK                            x       y       z     vdW  Elec       q    Type
REMARK                         _______ _______ _______ _____ _____    ______ ____
ROOT
ATOM      1  N   UNL     1       2.974   2.394   0.321  0.00  0.00    -0.317 N 
ATOM      2  C   UNL     1       3.429   2.565  -1.071  0.00  0.00    +0.106 C 
ATOM      3  C   UNL     1       4.549   3.632  -0.993  0.00  0.00    +0.021 C 
ATOM      4  C   UNL     1       5.240   3.262   0.345  0.00  0.00    +0.033 C 
ATOM      5  C   UNL     1       4.059   2.800   1.225  0.00  0.00    +0.161 C 
ENDROOT
BRANCH   1   8
ATOM      6  C   UNL     1       0.234   0.108   1.201  0.00  0.00    +0.014 A 
ATOM      7  C   UNL     1       1.478   0.564   0.810  0.00  0.00    +0.026 A 
ATOM      8  C   UNL     1       1.717   1.929   0.715  0.00  0.00    +0.061 A 
ATOM      9  C   UNL     1       0.703   2.831   1.013  0.00  0.00    +0.148 A 
ATOM     10  C   UNL     1      -0.538   2.368   1.403  0.00  0.00    +0.047 A 
ATOM     11  C   UNL     1      -0.772   1.008   1.497  0.00  0.00    +0.057 A 
BRANCH  11  12
ATOM     12  C   UNL     1      -2.128   0.506   1.923  0.00  0.00    +0.417 C 
ATOM     13  F   UNL     1      -2.123  -0.893   1.943  0.00  0.00    -0.166 F 
ATOM     14  F   UNL     1      -2.424   0.990   3.202  0.00  0.00    -0.166 F 
ATOM     15  F   UNL     1      -3.097   0.955   1.019  0.00  0.00    -0.166 F 
ENDBRANCH  11  12
BRANCH   9  16
ATOM     16  N   UNL     1       0.953   4.286   0.914  0.00  0.00    +0.058 N 
ATOM     17  O   UNL     1       0.104   5.071   1.268  0.00  0.00    -0.126 OA
ATOM     18  O   UNL     1       2.005   4.690   0.478  0.00  0.00    -0.126 OA
ENDBRANCH   9  16
ENDBRANCH   1   8
BRANCH   5  19
ATOM     19  C   UNL     1       4.484   1.630   2.075  0.00  0.00    +0.253 C 
ATOM     20  O   UNL     1       4.343   0.498   1.661  0.00  0.00    -0.272 OA
ATOM     21  N   UNL     1       5.019   1.840   3.293  0.00  0.00    -0.205 N 
ATOM     22  H   UNL     1       5.131   2.745   3.624  0.00  0.00    +0.177 HD
BRANCH  21  23
ATOM     23  N   UNL     1       5.413   0.752   4.083  0.00  0.00    -0.188 NA
ATOM     24  C   UNL     1       5.929   0.955   5.256  0.00  0.00    +0.142 C 
BRANCH  24  25
ATOM     25  C   UNL     1       6.344  -0.190   6.087  0.00  0.00    +0.037 A 
ATOM     26  C   UNL     1       6.894   0.024   7.353  0.00  0.00    +0.028 A 
ATOM     27  C   UNL     1       7.280  -1.052   8.126  0.00  0.00    +0.019 A 
ATOM     28  C   UNL     1       7.124  -2.344   7.650  0.00  0.00    +0.019 A 
ATOM     29  C   UNL     1       6.582  -2.567   6.399  0.00  0.00    +0.047 A 
ATOM     30  C   UNL     1       6.184  -1.499   5.613  0.00  0.00    +0.126 A 
ATOM     31 BR   UNL     1       8.024  -0.762   9.839  0.00  0.00    -0.050 Br
BRANCH  30  32
ATOM     32  O   UNL     1       5.645  -1.718   4.386  0.00  0.00    -0.506 OA
ATOM     33  H   UNL     1       6.295  -1.751   3.671  0.00  0.00    +0.292 HD
ENDBRANCH  30  32
ENDBRANCH  24  25
ENDBRANCH  21  23
ENDBRANCH   5  19
TORSDOF 7
