REMARK  Name = ZINC03390401
REMARK  15 active torsions:
REMARK  status: ('A' for Active; 'I' for Inactive)
REMARK    1  A    between atoms: C_1  and  C_2
REMARK    2  A    between atoms: C_3  and  C_29
REMARK    3  A    between atoms: C_5  and  N_11
REMARK    4  A    between atoms: C_6  and  C_7
REMARK    5  A    between atoms: C_7  and  O_9
REMARK    6  A    between atoms: O_9  and  C_10
REMARK    7  A    between atoms: C_12  and  C_14
REMARK    8  A    between atoms: C_14  and  N_54
REMARK    9  A    between atoms: C_15  and  N_54
REMARK   10  A    between atoms: C_16  and  C_17
REMARK   11  A    between atoms: C_16  and  N_54
REMARK   12  A    between atoms: C_20  and  O_25
REMARK   13  A    between atoms: C_21  and  O_23
REMARK   14  A    between atoms: O_23  and  C_24
REMARK   15  A    between atoms: O_25  and  C_26
REMARK                            x       y       z     vdW  Elec       q    Type
REMARK                         _______ _______ _______ _____ _____    ______ ____
ROOT
ATOM      1  C   UNL     1      -1.330   1.944   0.019  0.00  0.00    +0.019 C 
ENDROOT
BRANCH   1   3
ATOM      2  N   UNL     1       1.143   1.898   0.001  0.00  0.00    -0.281 N 
ATOM      3  C   UNL     1      -0.014   1.209   0.009  0.00  0.00    +0.201 C 
ATOM      4  O   UNL     1       0.002  -0.004   0.002  0.00  0.00    -0.278 OA
ATOM      5  H   UNL     1       1.130   2.868   0.007  0.00  0.00    +0.155 HD
BRANCH   2  10
ATOM      6  C   UNL     1       6.166   1.262  -0.050  0.00  0.00    +0.045 C 
ATOM      7  C   UNL     1       4.730   0.805  -0.038  0.00  0.00    -0.025 A 
ATOM      8  C   UNL     1       4.410  -0.501  -0.042  0.00  0.00    -0.008 A 
ATOM      9  S   UNL     1       2.630  -0.488  -0.018  0.00  0.00    -0.078 S 
ATOM     10  C   UNL     1       2.353   1.222  -0.014  0.00  0.00    +0.086 A 
ATOM     11  C   UNL     1       3.639   1.751  -0.023  0.00  0.00    +0.091 A 
ATOM     12  C   UNL     1       5.336  -1.690  -0.057  0.00  0.00    +0.052 C 
BRANCH  11  13
ATOM     13  C   UNL     1       3.876   3.196  -0.019  0.00  0.00    +0.342 C 
ATOM     14  O   UNL     1       3.984   3.792   1.036  0.00  0.00    -0.245 OA
BRANCH  13  15
ATOM     15  O   UNL     1       3.973   3.867  -1.185  0.00  0.00    -0.464 OA
ATOM     16  C   UNL     1       4.208   5.298  -1.104  0.00  0.00    +0.280 C 
ENDBRANCH  13  15
ENDBRANCH  11  13
ENDBRANCH   2  10
ENDBRANCH   1   3
BRANCH   1  18
ATOM     17  C   UNL     1      -2.455   0.202   1.268  0.00  0.00    -0.095 C 
ATOM     18  N   UNL     1      -2.429   0.956  -0.003  0.00  0.00    +0.386 N 
ATOM     19  H   UNL     1      -2.272   0.300  -0.777  0.00  0.00    -0.081 HD
BRANCH  18  20
ATOM     20  C   UNL     1      -3.721   1.643  -0.209  0.00  0.00    -0.043 C 
BRANCH  20  21
ATOM     21  C   UNL     1      -4.789   0.607  -0.447  0.00  0.00    -0.060 A 
ATOM     22  C   UNL     1      -5.055   0.173  -1.733  0.00  0.00    +0.005 A 
ATOM     23  C   UNL     1      -6.030  -0.782  -1.956  0.00  0.00    +0.050 A 
ATOM     24  C   UNL     1      -6.751  -1.297  -0.891  0.00  0.00    +0.168 A 
ATOM     25  C   UNL     1      -6.488  -0.856   0.403  0.00  0.00    +0.162 A 
ATOM     26  C   UNL     1      -5.505   0.097   0.620  0.00  0.00    +0.051 A 
BRANCH  25  27
ATOM     27  O   UNL     1      -7.193  -1.359   1.451  0.00  0.00    -0.491 OA
ATOM     28  C   UNL     1      -6.868  -0.860   2.750  0.00  0.00    +0.277 C 
ENDBRANCH  25  27
BRANCH  24  29
ATOM     29  O   UNL     1      -7.714  -2.232  -1.109  0.00  0.00    -0.431 OA
BRANCH  29  30
ATOM     30  C   UNL     1      -7.930  -2.638  -2.462  0.00  0.00    +0.541 C 
ATOM     31  F   UNL     1      -8.304  -1.528  -3.227  0.00  0.00    -0.166 F 
ATOM     32  F   UNL     1      -6.751  -3.185  -2.978  0.00  0.00    -0.166 F 
ENDBRANCH  29  30
ENDBRANCH  24  29
ENDBRANCH  20  21
ENDBRANCH  18  20
ENDBRANCH   1  18
TORSDOF 10
