REMARK  Name = ZINC37055673
REMARK  5 active torsions:
REMARK  status: ('A' for Active; 'I' for Inactive)
REMARK    1  A    between atoms: C_1  and  C_2
REMARK    2  A    between atoms: C_5  and  N_9
REMARK    3  A    between atoms: N_9  and  C_10
REMARK    4  A    between atoms: C_10  and  C_12
REMARK    5  A    between atoms: C_10  and  C_13
REMARK                            x       y       z     vdW  Elec       q    Type
REMARK                         _______ _______ _______ _____ _____    ______ ____
ROOT
ATOM      1  C   UNL     1       0.074  -4.907   1.243  0.00  0.00    +0.098 C 
ATOM      2  C   UNL     1       1.515  -5.037   1.740  0.00  0.00    +0.033 C 
ENDROOT
BRANCH   1   3
ATOM      3  C   UNL     1      -0.509  -6.280   1.029  0.00  0.00    -0.026 A 
ATOM      4  C   UNL     1      -0.206  -6.987  -0.122  0.00  0.00    +0.007 A 
ATOM      5  C   UNL     1      -0.736  -8.245  -0.327  0.00  0.00    +0.028 A 
ATOM      6  C   UNL     1      -1.575  -8.804   0.624  0.00  0.00    +0.067 A 
ATOM      7  C   UNL     1      -1.881  -8.092   1.786  0.00  0.00    +0.067 A 
ATOM      8  C   UNL     1      -1.340  -6.831   1.985  0.00  0.00    +0.033 A 
ATOM      9  N   UNL     1      -2.732  -8.898   2.539  0.00  0.00    -0.306 N 
ATOM     10  H   UNL     1      -3.114  -8.669   3.401  0.00  0.00    +0.170 HD
ATOM     11  C   UNL     1      -2.934 -10.047   1.867  0.00  0.00    +0.325 A 
ATOM     12  O   UNL     1      -3.630 -10.969   2.249  0.00  0.00    -0.247 OA
ATOM     13  N   UNL     1      -2.249 -10.020   0.708  0.00  0.00    -0.306 N 
ATOM     14  H   UNL     1      -2.229 -10.728   0.045  0.00  0.00    +0.170 HD
ENDBRANCH   1   3
BRANCH   1  15
ATOM     15  N   UNL     1       0.058  -4.168  -0.021  0.00  0.00    -0.337 N 
ATOM     16  H   UNL     1       0.060  -4.648  -0.864  0.00  0.00    +0.147 HD
BRANCH  15  21
ATOM     17  C   UNL     1      -0.018   1.503   0.010  0.00  0.00    +0.045 C 
ATOM     18  C   UNL     1       0.002  -0.004   0.002  0.00  0.00    -0.037 A 
ATOM     19  C   UNL     1       0.006  -0.687  -1.200  0.00  0.00    +0.006 A 
ATOM     20  C   UNL     1       0.024  -2.068  -1.212  0.00  0.00    +0.023 A 
ATOM     21  C   UNL     1       0.040  -2.771  -0.013  0.00  0.00    +0.029 A 
ATOM     22  C   UNL     1       0.036  -2.082   1.193  0.00  0.00    +0.037 A 
ATOM     23  C   UNL     1       0.023  -0.701   1.197  0.00  0.00    +0.018 A 
ATOM     24  I   UNL     1       0.027   0.340   3.015  0.00  0.00    -0.043 I 
ENDBRANCH  15  21
ENDBRANCH   1  15
TORSDOF 3
