REMARK  Name = ZINC20933682
REMARK  11 active torsions:
REMARK  status: ('A' for Active; 'I' for Inactive)
REMARK    1  A    between atoms: C_1  and  C_2
REMARK    2  A    between atoms: C_2  and  C_3
REMARK    3  A    between atoms: C_3  and  N_4
REMARK    4  A    between atoms: C_13  and  C_15
REMARK    5  A    between atoms: N_17  and  N_18
REMARK    6  A    between atoms: C_19  and  C_20
REMARK    7  A    between atoms: C_23  and  O_28
REMARK    8  A    between atoms: C_24  and  O_26
REMARK    9  A    between atoms: O_26  and  C_27
REMARK   10  A    between atoms: O_28  and  C_29
REMARK   11  A    between atoms: C_29  and  C_31
REMARK                            x       y       z     vdW  Elec       q    Type
REMARK                         _______ _______ _______ _____ _____    ______ ____
ROOT
ATOM      1  C   UNL     1       1.513   5.971   2.539  0.00  0.00    +0.284 C 
ATOM      2  O   UNL     1       1.606   7.184   2.578  0.00  0.00    -0.267 OA
ATOM      3  N   UNL     1       2.468   5.204   3.100  0.00  0.00    -0.202 N 
ATOM      4  H   UNL     1       2.384   4.107   3.065  0.00  0.00    +0.178 HD
ENDROOT
BRANCH   1  14
ATOM      5  N   UNL     1      -0.726   3.413   1.278  0.00  0.00    -0.228 N 
ATOM      6  C   UNL     1      -1.757   4.032   0.669  0.00  0.00    +0.275 A 
ATOM      7  O   UNL     1      -2.654   3.389   0.155  0.00  0.00    -0.266 OA
ATOM      8  C   UNL     1      -1.777   5.502   0.646  0.00  0.00    +0.050 A 
ATOM      9  C   UNL     1      -2.797   6.235   0.048  0.00  0.00    +0.014 A 
ATOM     10  C   UNL     1      -2.738   7.612   0.064  0.00  0.00    +0.001 A 
ATOM     11  C   UNL     1      -1.675   8.270   0.670  0.00  0.00    +0.001 A 
ATOM     12  C   UNL     1      -0.654   7.561   1.267  0.00  0.00    +0.011 A 
ATOM     13  C   UNL     1      -0.694   6.171   1.262  0.00  0.00    +0.020 A 
ATOM     14  C   UNL     1       0.354   5.341   1.877  0.00  0.00    +0.155 A 
ATOM     15  N   UNL     1       0.246   4.035   1.831  0.00  0.00    -0.163 NA
BRANCH   5  16
ATOM     16  C   UNL     1      -0.714   1.948   1.303  0.00  0.00    +0.147 C 
BRANCH  16  18
ATOM     17  C   UNL     1       0.024  -0.107   0.088  0.00  0.00    +0.005 C 
ATOM     18  C   UNL     1       0.011   1.423   0.062  0.00  0.00    +0.020 C 
ENDBRANCH  16  18
ENDBRANCH   5  16
ENDBRANCH   1  14
BRANCH   3  19
ATOM     19  N   UNL     1       3.568   5.802   3.728  0.00  0.00    -0.187 NA
ATOM     20  C   UNL     1       4.488   5.062   4.269  0.00  0.00    +0.138 C 
BRANCH  20  21
ATOM     21  C   UNL     1       5.646   5.692   4.929  0.00  0.00    -0.002 A 
ATOM     22  C   UNL     1       5.758   7.084   4.970  0.00  0.00    +0.013 A 
ATOM     23  C   UNL     1       6.838   7.671   5.593  0.00  0.00    +0.051 A 
ATOM     24  C   UNL     1       7.823   6.882   6.172  0.00  0.00    +0.173 A 
ATOM     25  C   UNL     1       7.721   5.493   6.130  0.00  0.00    +0.163 A 
ATOM     26  C   UNL     1       6.637   4.897   5.512  0.00  0.00    +0.059 A 
BRANCH  25  27
ATOM     27  O   UNL     1       8.687   4.723   6.697  0.00  0.00    -0.491 OA
ATOM     28  C   UNL     1       8.519   3.306   6.617  0.00  0.00    +0.277 C 
ENDBRANCH  25  27
BRANCH  24  29
ATOM     29  O   UNL     1       8.889   7.465   6.780  0.00  0.00    -0.418 OA
BRANCH  29  30
ATOM     30  C   UNL     1      10.031   7.549   6.067  0.00  0.00    +0.351 C 
ATOM     31  O   UNL     1      10.046   7.202   4.901  0.00  0.00    -0.244 OA
BRANCH  30  32
ATOM     32  C   UNL     1      11.252   8.056   6.696  0.00  0.00    +0.097 A 
ATOM     33  C   UNL     1      12.515   8.220   6.147  0.00  0.00    +0.022 A 
ATOM     34  C   UNL     1      13.493   8.721   6.968  0.00  0.00    +0.008 A 
ATOM     35  C   UNL     1      13.184   9.028   8.256  0.00  0.00    +0.046 A 
ATOM     36  S   UNL     1      11.501   8.631   8.366  0.00  0.00    -0.090 S 
ENDBRANCH  30  32
ENDBRANCH  29  30
ENDBRANCH  24  29
ENDBRANCH  20  21
ENDBRANCH   3  19
TORSDOF 9
