REMARK  Name = ZINC41585514
REMARK  9 active torsions:
REMARK  status: ('A' for Active; 'I' for Inactive)
REMARK    1  A    between atoms: C_1  and  C_2
REMARK    2  A    between atoms: C_3  and  O_28
REMARK    3  A    between atoms: C_9  and  O_27
REMARK    4  A    between atoms: C_10  and  C_13
REMARK    5  A    between atoms: C_13  and  N_14
REMARK    6  A    between atoms: N_17  and  C_20
REMARK    7  A    between atoms: O_28  and  C_29
REMARK    8  A    between atoms: C_34  and  O_35
REMARK    9  A    between atoms: O_35  and  C_36
REMARK                            x       y       z     vdW  Elec       q    Type
REMARK                         _______ _______ _______ _____ _____    ______ ____
ROOT
ATOM      1  C   UNL     1      -0.024   1.489  -0.116  0.00  0.00    +0.090 C 
ATOM      2  C   UNL     1      -0.005  -0.017  -0.060  0.00  0.00    +0.148 A 
ATOM      3  C   UNL     1      -1.171  -0.672   0.105  0.00  0.00    +0.213 A 
ATOM      4  C   UNL     1      -1.175  -2.095   0.160  0.00  0.00    +0.235 A 
ATOM      5  O   UNL     1      -2.211  -2.722   0.308  0.00  0.00    -0.283 OA
ATOM      6  C   UNL     1       0.123  -2.778   0.030  0.00  0.00    +0.068 A 
ATOM      7  C   UNL     1       0.221  -4.170   0.071  0.00  0.00    +0.019 A 
ATOM      8  C   UNL     1       1.442  -4.768  -0.054  0.00  0.00    +0.046 A 
ATOM      9  C   UNL     1       2.591  -3.996  -0.221  0.00  0.00    +0.125 A 
ATOM     10  C   UNL     1       2.511  -2.614  -0.263  0.00  0.00    +0.051 A 
ATOM     11  C   UNL     1       1.277  -1.992  -0.139  0.00  0.00    +0.147 A 
ATOM     12  O   UNL     1       1.170  -0.648  -0.182  0.00  0.00    -0.456 OA
ENDROOT
BRANCH   9  13
ATOM     13  O   UNL     1       3.798  -4.604  -0.342  0.00  0.00    -0.506 OA
ATOM     14  H   UNL     1       4.043  -4.814  -1.254  0.00  0.00    +0.292 HD
ENDBRANCH   9  13
BRANCH  10  15
ATOM     15  C   UNL     1       3.759  -1.790  -0.444  0.00  0.00    +0.127 C 
BRANCH  15  16
ATOM     16  N   UNL     1       4.001  -1.574  -1.877  0.00  0.00    -0.295 NA
ATOM     17  C   UNL     1       4.308  -2.840  -2.555  0.00  0.00    +0.103 C 
ATOM     18  C   UNL     1       4.374  -2.602  -4.068  0.00  0.00    +0.120 C 
ATOM     19  N   UNL     1       5.324  -1.510  -4.328  0.00  0.00    -0.325 N 
ATOM     20  C   UNL     1       5.162  -0.254  -3.581  0.00  0.00    +0.120 C 
ATOM     21  C   UNL     1       5.065  -0.584  -2.088  0.00  0.00    +0.103 C 
BRANCH  19  22
ATOM     22  C   UNL     1       6.354  -1.662  -5.261  0.00  0.00    +0.065 A 
ATOM     23  C   UNL     1       6.148  -1.312  -6.589  0.00  0.00    +0.026 A 
ATOM     24  C   UNL     1       7.168  -1.463  -7.508  0.00  0.00    +0.002 A 
ATOM     25  C   UNL     1       8.394  -1.963  -7.109  0.00  0.00    +0.003 A 
ATOM     26  C   UNL     1       8.604  -2.314  -5.788  0.00  0.00    +0.040 A 
ATOM     27  C   UNL     1       7.590  -2.160  -4.861  0.00  0.00    +0.144 A 
ATOM     28  F   UNL     1       7.797  -2.498  -3.569  0.00  0.00    -0.204 F 
ENDBRANCH  19  22
ENDBRANCH  15  16
ENDBRANCH  10  15
BRANCH   3  29
ATOM     29  O   UNL     1      -2.337   0.021   0.219  0.00  0.00    -0.445 OA
BRANCH  29  30
ATOM     30  C   UNL     1      -2.987  -0.016   1.412  0.00  0.00    +0.170 A 
ATOM     31  C   UNL     1      -2.406  -0.647   2.501  0.00  0.00    +0.050 A 
ATOM     32  C   UNL     1      -3.069  -0.684   3.713  0.00  0.00    +0.004 A 
ATOM     33  C   UNL     1      -4.312  -0.092   3.843  0.00  0.00    +0.004 A 
ATOM     34  C   UNL     1      -4.898   0.538   2.761  0.00  0.00    +0.049 A 
ATOM     35  C   UNL     1      -4.236   0.584   1.545  0.00  0.00    +0.162 A 
BRANCH  35  36
ATOM     36  O   UNL     1      -4.809   1.208   0.481  0.00  0.00    -0.491 OA
ATOM     37  C   UNL     1      -6.092   1.802   0.690  0.00  0.00    +0.277 C 
ENDBRANCH  35  36
ENDBRANCH  29  30
ENDBRANCH   3  29
TORSDOF 7
