REMARK  Name = ZINC25261861
REMARK  7 active torsions:
REMARK  status: ('A' for Active; 'I' for Inactive)
REMARK    1  A    between atoms: C_1  and  C_2
REMARK    2  A    between atoms: C_2  and  C_3
REMARK    3  A    between atoms: C_3  and  C_5
REMARK    4  A    between atoms: C_3  and  C_6
REMARK    5  A    between atoms: C_6  and  C_8
REMARK    6  A    between atoms: C_6  and  N_24
REMARK    7  A    between atoms: N_10  and  C_11
REMARK                            x       y       z     vdW  Elec       q    Type
REMARK                         _______ _______ _______ _____ _____    ______ ____
ROOT
ATOM      1  C   UNL     1      -0.717   1.570   1.249  0.00  0.00    +0.238 C 
ATOM      2  O   UNL     1      -0.285   2.528   1.856  0.00  0.00    -0.273 OA
ATOM      3  N   UNL     1      -1.822   0.936   1.688  0.00  0.00    -0.284 N 
ATOM      4  H   UNL     1      -2.256   0.116   1.098  0.00  0.00    +0.155 HD
ENDROOT
BRANCH   3   5
ATOM      5  C   UNL     1      -2.416   1.321   2.894  0.00  0.00    +0.034 A 
ATOM      6  C   UNL     1      -2.417   2.658   3.274  0.00  0.00    +0.024 A 
ATOM      7  C   UNL     1      -3.001   3.040   4.462  0.00  0.00    +0.010 A 
ATOM      8  C   UNL     1      -3.595   2.084   5.289  0.00  0.00    -0.014 A 
ATOM      9  C   UNL     1      -3.590   0.746   4.903  0.00  0.00    -0.034 A 
ATOM     10  C   UNL     1      -3.011   0.367   3.712  0.00  0.00    +0.028 A 
ATOM     11  C   UNL     1      -4.294  -0.041   5.981  0.00  0.00    +0.071 C 
ATOM     12  C   UNL     1      -4.707   0.964   7.029  0.00  0.00    -0.035 A 
ATOM     13  C   UNL     1      -4.282   2.217   6.597  0.00  0.00    -0.014 A 
ATOM     14  C   UNL     1      -4.540   3.338   7.390  0.00  0.00    +0.009 A 
ATOM     15  C   UNL     1      -5.210   3.195   8.587  0.00  0.00    +0.001 A 
ATOM     16  C   UNL     1      -5.628   1.945   9.007  0.00  0.00    +0.000 A 
ATOM     17  C   UNL     1      -5.376   0.830   8.227  0.00  0.00    +0.004 A 
ENDBRANCH   3   5
BRANCH   1  18
ATOM     18  C   UNL     1      -0.018   1.091   0.003  0.00  0.00    +0.163 C 
BRANCH  18  19
ATOM     19  N   UNL     1       1.359   1.592  -0.008  0.00  0.00    -0.288 N 
ATOM     20  C   UNL     1       1.593   2.919   0.006  0.00  0.00    +0.298 C 
ATOM     21  O   UNL     1       0.661   3.700   0.028  0.00  0.00    -0.253 OA
ATOM     22  N   UNL     1       2.859   3.381  -0.004  0.00  0.00    -0.313 N 
ATOM     23  H   UNL     1       2.202   0.885  -0.028  0.00  0.00    +0.151 HD
ATOM     24  H   UNL     1       3.050   4.464   0.007  0.00  0.00    +0.146 HD
ATOM     25  H   UNL     1       3.702   2.674  -0.024  0.00  0.00    +0.146 HD
ENDBRANCH  18  19
BRANCH  18  26
ATOM     26  C   UNL     1      -0.759   1.610  -1.230  0.00  0.00    +0.015 C 
ATOM     27  C   UNL     1      -2.197   1.086  -1.218  0.00  0.00    +0.010 C 
BRANCH  26  29
ATOM     28  C   UNL     1      -0.716   1.742  -3.725  0.00  0.00    +0.004 C 
ATOM     29  C   UNL     1      -0.050   1.123  -2.495  0.00  0.00    +0.002 C 
ENDBRANCH  26  29
ENDBRANCH  18  26
ENDBRANCH   1  18
TORSDOF 5
