REMARK  Name = ZINC08326134
REMARK  7 active torsions:
REMARK  status: ('A' for Active; 'I' for Inactive)
REMARK    1  A    between atoms: C_1  and  C_2
REMARK    2  A    between atoms: C_2  and  C_3
REMARK    3  A    between atoms: C_3  and  C_5
REMARK    4  A    between atoms: C_3  and  S_6
REMARK    5  A    between atoms: S_6  and  C_7
REMARK    6  A    between atoms: C_18  and  C_20
REMARK    7  A    between atoms: C_24  and  O_26
REMARK                            x       y       z     vdW  Elec       q    Type
REMARK                         _______ _______ _______ _____ _____    ______ ____
ROOT
ATOM      1  C   UNL     1       3.154  -0.528   2.698  0.00  0.00    +0.171 A 
ATOM      2  N   UNL     1       4.469  -0.292   2.967  0.00  0.00    -0.302 N 
ATOM      3  H   UNL     1       5.025   0.155   2.310  0.00  0.00    +0.171 HD
ATOM      4  C   UNL     1       5.000  -0.680   4.146  0.00  0.00    +0.258 A 
ATOM      5  O   UNL     1       6.176  -0.470   4.398  0.00  0.00    -0.267 OA
ATOM      6  C   UNL     1       4.176  -1.328   5.074  0.00  0.00    +0.069 A 
ATOM      7  C   UNL     1       2.849  -1.548   4.750  0.00  0.00    +0.135 A 
ATOM      8  N   UNL     1       2.374  -1.132   3.571  0.00  0.00    -0.208 NA
ATOM      9  N   UNL     1       2.023  -2.193   5.649  0.00  0.00    -0.302 N 
ATOM     10  C   UNL     1       2.550  -2.953   6.658  0.00  0.00    +0.017 C 
ATOM     11  C   UNL     1       3.831  -2.791   7.052  0.00  0.00    +0.024 C 
ATOM     12  C   UNL     1       4.727  -1.770   6.397  0.00  0.00    +0.092 C 
ATOM     13  C   UNL     1       4.372  -3.567   8.092  0.00  0.00    +0.162 C 
ATOM     14  O   UNL     1       5.534  -3.411   8.409  0.00  0.00    -0.292 OA
ATOM     15  C   UNL     1       3.540  -4.587   8.820  0.00  0.00    +0.080 C 
ATOM     16  C   UNL     1       2.071  -4.154   8.779  0.00  0.00    +0.014 C 
ATOM     17  C   UNL     1       1.659  -3.979   7.316  0.00  0.00    +0.051 C 
ATOM     18  H   UNL     1       1.060  -2.108   5.565  0.00  0.00    +0.153 HD
ENDROOT
BRANCH  12  19
ATOM     19  C   UNL     1       4.855  -0.573   7.303  0.00  0.00    -0.032 A 
ATOM     20  C   UNL     1       3.733   0.165   7.637  0.00  0.00    +0.005 A 
ATOM     21  C   UNL     1       3.847   1.263   8.467  0.00  0.00    +0.004 A 
ATOM     22  C   UNL     1       5.083   1.628   8.967  0.00  0.00    +0.045 A 
ATOM     23  C   UNL     1       6.209   0.891   8.634  0.00  0.00    +0.117 A 
ATOM     24  C   UNL     1       6.091  -0.215   7.804  0.00  0.00    +0.050 A 
BRANCH  23  25
ATOM     25  O   UNL     1       7.426   1.248   9.124  0.00  0.00    -0.507 OA
ATOM     26  H   UNL     1       7.646   0.833   9.969  0.00  0.00    +0.292 HD
ENDBRANCH  23  25
ENDBRANCH  12  19
BRANCH   1  27
ATOM     27  S   UNL     1       2.482  -0.007   1.155  0.00  0.00    -0.085 S 
BRANCH  27  28
ATOM     28  C   UNL     1       0.742  -0.511   1.242  0.00  0.00    +0.051 C 
ATOM     29  C   UNL     1       0.655  -2.037   1.299  0.00  0.00    +0.019 C 
BRANCH  28  31
ATOM     30  C   UNL     1      -0.019   1.526   0.010  0.00  0.00    +0.005 C 
ATOM     31  C   UNL     1       0.002  -0.004   0.002  0.00  0.00    +0.011 C 
ENDBRANCH  28  31
ENDBRANCH  27  28
ENDBRANCH   1  27
TORSDOF 5
