REMARK  Name = ZINC38620842
REMARK  9 active torsions:
REMARK  status: ('A' for Active; 'I' for Inactive)
REMARK    1  A    between atoms: C_4  and  C_7
REMARK    2  A    between atoms: C_7  and  C_8
REMARK    3  A    between atoms: C_8  and  S_9
REMARK    4  A    between atoms: S_9  and  N_12
REMARK    5  A    between atoms: N_12  and  C_13
REMARK    6  A    between atoms: C_13  and  C_14
REMARK    7  A    between atoms: C_14  and  C_16
REMARK    8  A    between atoms: C_14  and  N_25
REMARK    9  A    between atoms: N_28  and  C_31
REMARK                            x       y       z     vdW  Elec       q    Type
REMARK                         _______ _______ _______ _____ _____    ______ ____
ROOT
ATOM      1  C   UNL     1       6.056  -3.248   5.112  0.00  0.00    +0.102 C 
ENDROOT
BRANCH   1   2
ATOM      2  C   UNL     1       5.158  -4.236   5.811  0.00  0.00    -0.025 A 
ATOM      3  C   UNL     1       5.262  -4.415   7.178  0.00  0.00    +0.009 A 
ATOM      4  C   UNL     1       4.440  -5.320   7.824  0.00  0.00    +0.050 A 
ATOM      5  C   UNL     1       3.510  -6.050   7.101  0.00  0.00    +0.166 A 
ATOM      6  C   UNL     1       3.405  -5.869   5.724  0.00  0.00    +0.167 A 
ATOM      7  C   UNL     1       4.228  -4.956   5.085  0.00  0.00    +0.054 A 
ATOM      8  O   UNL     1       2.427  -6.694   5.249  0.00  0.00    -0.453 OA
ATOM      9  C   UNL     1       2.216  -7.675   6.282  0.00  0.00    +0.466 C 
ATOM     10  O   UNL     1       2.598  -6.988   7.489  0.00  0.00    -0.453 OA
ENDBRANCH   1   2
BRANCH   1  11
ATOM     11  N   UNL     1       7.012  -3.970   4.263  0.00  0.00    -0.291 NA
ATOM     12  C   UNL     1       6.313  -4.802   3.274  0.00  0.00    +0.104 C 
ATOM     13  C   UNL     1       7.334  -5.394   2.296  0.00  0.00    +0.120 C 
ATOM     14  N   UNL     1       8.373  -6.090   3.071  0.00  0.00    -0.325 N 
ATOM     15  C   UNL     1       9.024  -5.363   4.171  0.00  0.00    +0.120 C 
ATOM     16  C   UNL     1       7.936  -4.772   5.075  0.00  0.00    +0.104 C 
BRANCH  14  17
ATOM     17  C   UNL     1       8.733  -7.407   2.768  0.00  0.00    +0.065 A 
ATOM     18  C   UNL     1       9.753  -7.658   1.861  0.00  0.00    +0.026 A 
ATOM     19  C   UNL     1      10.107  -8.960   1.565  0.00  0.00    +0.002 A 
ATOM     20  C   UNL     1       9.446 -10.014   2.169  0.00  0.00    +0.003 A 
ATOM     21  C   UNL     1       8.429  -9.768   3.073  0.00  0.00    +0.040 A 
ATOM     22  C   UNL     1       8.074  -8.467   3.380  0.00  0.00    +0.144 A 
ATOM     23  F   UNL     1       7.084  -8.228   4.268  0.00  0.00    -0.204 F 
ENDBRANCH  14  17
ENDBRANCH   1  11
BRANCH   1  24
ATOM     24  C   UNL     1       5.209  -2.313   4.246  0.00  0.00    +0.129 C 
BRANCH  24  25
ATOM     25  N   UNL     1       6.088  -1.431   3.475  0.00  0.00    -0.193 NA
ATOM     26  H   UNL     1       7.024  -1.346   3.718  0.00  0.00    +0.148 HD
BRANCH  25  27
ATOM     27  S   UNL     1       5.486  -0.578   2.190  0.00  0.00    +0.030 S 
ATOM     28  O   UNL     1       4.816  -1.546   1.394  0.00  0.00    -0.158 OA
ATOM     29  O   UNL     1       6.601   0.137   1.674  0.00  0.00    -0.158 OA
BRANCH  27  30
ATOM     30  C   UNL     1       4.287   0.573   2.915  0.00  0.00    +0.189 C 
BRANCH  30  31
ATOM     31  C   UNL     1       3.660   1.422   1.807  0.00  0.00    +0.059 C 
BRANCH  31  35
ATOM     32  C   UNL     1       0.835   4.134   3.513  0.00  0.00    +0.000 A 
ATOM     33  C   UNL     1       2.158   4.511   3.374  0.00  0.00    +0.000 A 
ATOM     34  C   UNL     1       3.072   3.633   2.822  0.00  0.00    +0.004 A 
ATOM     35  C   UNL     1       2.664   2.379   2.410  0.00  0.00    -0.046 A 
ATOM     36  C   UNL     1       1.341   2.002   2.550  0.00  0.00    +0.004 A 
ATOM     37  C   UNL     1       0.427   2.880   3.100  0.00  0.00    +0.000 A 
ENDBRANCH  31  35
ENDBRANCH  30  31
ENDBRANCH  27  30
ENDBRANCH  25  27
ENDBRANCH  24  25
ENDBRANCH   1  24
TORSDOF 9
