REMARK  Name = ZINC22390643
REMARK  12 active torsions:
REMARK  status: ('A' for Active; 'I' for Inactive)
REMARK    1  A    between atoms: C_1  and  C_2
REMARK    2  A    between atoms: C_2  and  C_3
REMARK    3  A    between atoms: C_3  and  C_5
REMARK    4  A    between atoms: C_3  and  N_6
REMARK    5  A    between atoms: C_7  and  C_9
REMARK    6  A    between atoms: C_14  and  N_15
REMARK    7  A    between atoms: C_16  and  C_18
REMARK    8  A    between atoms: C_18  and  N_19
REMARK    9  A    between atoms: N_19  and  C_20
REMARK   10  A    between atoms: N_19  and  S_34
REMARK   11  A    between atoms: C_23  and  C_26
REMARK   12  A    between atoms: S_34  and  C_37
REMARK                            x       y       z     vdW  Elec       q    Type
REMARK                         _______ _______ _______ _____ _____    ______ ____
ROOT
ATOM      1  C   UNL     1      -6.235   3.066  -0.343  0.00  0.00    +0.227 C 
ENDROOT
BRANCH   1   3
ATOM      2  N   UNL     1      -7.875   1.552   0.724  0.00  0.00    -0.283 N 
ATOM      3  C   UNL     1      -6.761   2.300   0.844  0.00  0.00    +0.236 C 
ATOM      4  O   UNL     1      -6.180   2.357   1.907  0.00  0.00    -0.274 OA
ATOM      5  H   UNL     1      -8.351   1.428  -0.260  0.00  0.00    +0.155 HD
BRANCH   2  11
ATOM      6  C   UNL     1      -9.201  -0.223   1.704  0.00  0.00    +0.058 A 
ATOM      7  C   UNL     1      -9.746  -0.831   2.838  0.00  0.00    +0.015 A 
ATOM      8  C   UNL     1      -9.519  -0.290   4.085  0.00  0.00    +0.001 A 
ATOM      9  C   UNL     1      -8.751   0.855   4.221  0.00  0.00    +0.002 A 
ATOM     10  C   UNL     1      -8.202   1.464   3.111  0.00  0.00    +0.024 A 
ATOM     11  C   UNL     1      -8.425   0.936   1.846  0.00  0.00    +0.046 A 
BRANCH   6  13
ATOM     12  N   UNL     1     -10.278  -1.843   0.222  0.00  0.00    -0.309 N 
ATOM     13  C   UNL     1      -9.440  -0.797   0.367  0.00  0.00    +0.246 C 
ATOM     14  O   UNL     1      -8.882  -0.327  -0.606  0.00  0.00    -0.270 OA
ATOM     15  H   UNL     1     -10.784  -2.268   1.101  0.00  0.00    +0.149 HD
BRANCH  12  16
ATOM     16  C   UNL     1     -10.516  -2.413  -1.107  0.00  0.00    +0.070 C 
ATOM     17  C   UNL     1     -11.618  -1.620  -1.812  0.00  0.00    +0.028 C 
BRANCH  16  19
ATOM     18  C   UNL     1      -9.799  -4.691  -0.373  0.00  0.00    +0.005 C 
ATOM     19  C   UNL     1     -10.949  -3.873  -0.965  0.00  0.00    +0.018 C 
ENDBRANCH  16  19
ENDBRANCH  12  16
ENDBRANCH   6  13
ENDBRANCH   2  11
ENDBRANCH   1   3
BRANCH   1  20
ATOM     20  N   UNL     1      -5.024   3.794   0.043  0.00  0.00    -0.199 N 
BRANCH  20  21
ATOM     21  C   UNL     1      -3.789   3.156   0.009  0.00  0.00    +0.051 A 
ATOM     22  C   UNL     1      -3.719   1.771   0.128  0.00  0.00    +0.025 A 
ATOM     23  C   UNL     1      -2.498   1.137   0.095  0.00  0.00    +0.015 A 
ATOM     24  C   UNL     1      -1.327   1.885  -0.058  0.00  0.00    +0.037 A 
ATOM     25  C   UNL     1      -1.401   3.277  -0.172  0.00  0.00    +0.015 A 
ATOM     26  C   UNL     1      -2.625   3.904  -0.144  0.00  0.00    +0.025 A 
BRANCH  24  27
ATOM     27  C   UNL     1      -0.017   1.208  -0.094  0.00  0.00    +0.247 C 
ATOM     28  O   UNL     1       0.083   0.103  -0.589  0.00  0.00    -0.270 OA
ATOM     29  N   UNL     1       1.070   1.818   0.418  0.00  0.00    -0.293 N 
ATOM     30  C   UNL     1       0.991   3.188   0.950  0.00  0.00    +0.136 C 
ATOM     31  C   UNL     1       1.618   3.194   2.353  0.00  0.00    +0.179 C 
ATOM     32  O   UNL     1       2.923   2.615   2.286  0.00  0.00    -0.377 OA
ATOM     33  C   UNL     1       2.935   1.244   1.878  0.00  0.00    +0.179 C 
ATOM     34  C   UNL     1       2.374   1.136   0.456  0.00  0.00    +0.136 C 
ENDBRANCH  24  27
ENDBRANCH  20  21
BRANCH  20  35
ATOM     35  S   UNL     1      -5.126   5.377   0.518  0.00  0.00    +0.043 S 
ATOM     36  O   UNL     1      -6.413   5.496   1.109  0.00  0.00    -0.155 OA
ATOM     37  O   UNL     1      -3.952   5.601   1.287  0.00  0.00    -0.155 OA
ATOM     38  C   UNL     1      -5.055   6.332  -1.022  0.00  0.00    +0.218 C 
ENDBRANCH  20  35
ENDBRANCH   1  20
TORSDOF 9
