REMARK  Name = ZINC06807093
REMARK  7 active torsions:
REMARK  status: ('A' for Active; 'I' for Inactive)
REMARK    1  A    between atoms: C_1  and  C_2
REMARK    2  A    between atoms: C_6  and  N_9
REMARK    3  A    between atoms: C_7  and  C_8
REMARK    4  A    between atoms: C_10  and  C_12
REMARK    5  A    between atoms: C_13  and  C_28
REMARK    6  A    between atoms: N_15  and  C_22
REMARK    7  A    between atoms: C_16  and  N_17
REMARK                            x       y       z     vdW  Elec       q    Type
REMARK                         _______ _______ _______ _____ _____    ______ ____
ROOT
ATOM      1  C   UNL     1       2.083   0.713  -0.014  0.00  0.00    +0.102 A 
ATOM      2  C   UNL     1       1.200   1.818   0.003  0.00  0.00    +0.075 A 
ATOM      3  N   UNL     1      -0.022   1.364   0.012  0.00  0.00    -0.169 NA
ATOM      4  N   UNL     1       0.008  -0.035   0.001  0.00  0.00    -0.215 N 
ATOM      5  C   UNL     1       1.298  -0.435  -0.014  0.00  0.00    +0.154 A 
ATOM      6  C   UNL     1       1.603   3.270   0.009  0.00  0.00    +0.068 C 
ENDROOT
BRANCH   4   7
ATOM      7  C   UNL     1      -1.111  -0.878   0.007  0.00  0.00    +0.068 A 
ATOM      8  C   UNL     1      -1.083  -2.076  -0.696  0.00  0.00    +0.028 A 
ATOM      9  C   UNL     1      -2.186  -2.907  -0.685  0.00  0.00    +0.002 A 
ATOM     10  C   UNL     1      -3.321  -2.543   0.016  0.00  0.00    +0.000 A 
ATOM     11  C   UNL     1      -3.353  -1.349   0.713  0.00  0.00    +0.002 A 
ATOM     12  C   UNL     1      -2.252  -0.516   0.710  0.00  0.00    +0.028 A 
ENDBRANCH   4   7
BRANCH   5  13
ATOM     13  N   UNL     1       1.755  -1.747  -0.028  0.00  0.00    -0.307 N 
ATOM     14  C   UNL     1       2.748  -2.237  -0.831  0.00  0.00    +0.092 A 
ATOM     15  C   UNL     1       2.907  -3.546  -0.551  0.00  0.00    +0.019 A 
ATOM     16  C   UNL     1       1.974  -3.882   0.452  0.00  0.00    +0.019 A 
ATOM     17  C   UNL     1       1.284  -2.764   0.754  0.00  0.00    +0.092 A 
ENDBRANCH   5  13
BRANCH   1  19
ATOM     18  N   UNL     1       4.236   0.784   1.133  0.00  0.00    -0.281 N 
ATOM     19  C   UNL     1       3.551   0.768  -0.028  0.00  0.00    +0.254 C 
ATOM     20  O   UNL     1       4.149   0.798  -1.087  0.00  0.00    -0.270 OA
ATOM     21  H   UNL     1       3.760   0.841   1.976  0.00  0.00    +0.155 HD
BRANCH  18  27
ATOM     22  C   UNL     1       8.534   1.731   3.324  0.00  0.00    +0.044 C 
ATOM     23  C   UNL     1       7.742   1.171   2.171  0.00  0.00    -0.046 A 
ATOM     24  C   UNL     1       8.397   0.592   1.099  0.00  0.00    +0.004 A 
ATOM     25  C   UNL     1       7.674   0.076   0.039  0.00  0.00    +0.002 A 
ATOM     26  C   UNL     1       6.294   0.139   0.047  0.00  0.00    +0.023 A 
ATOM     27  C   UNL     1       5.633   0.720   1.122  0.00  0.00    +0.037 A 
ATOM     28  C   UNL     1       6.363   1.241   2.182  0.00  0.00    -0.026 A 
ATOM     29  C   UNL     1       5.650   1.878   3.347  0.00  0.00    +0.046 C 
ENDBRANCH  18  27
ENDBRANCH   1  19
TORSDOF 4
