REMARK  Name = ZINC40626841
REMARK  5 active torsions:
REMARK  status: ('A' for Active; 'I' for Inactive)
REMARK    1  A    between atoms: C_1  and  C_2
REMARK    2  A    between atoms: C_9  and  N_12
REMARK    3  A    between atoms: C_14  and  N_31
REMARK    4  A    between atoms: C_15  and  O_19
REMARK    5  A    between atoms: O_19  and  C_20
REMARK                            x       y       z     vdW  Elec       q    Type
REMARK                         _______ _______ _______ _____ _____    ______ ____
ROOT
ATOM      1  N   UNL     1       0.042  -1.962   3.622  0.00  0.00    -0.296 N 
ATOM      2  C   UNL     1      -0.049  -2.641   4.828  0.00  0.00    +0.161 A 
ATOM      3  C   UNL     1      -0.162  -1.940   6.026  0.00  0.00    +0.227 A 
ATOM      4  C   UNL     1      -0.250  -2.667   7.207  0.00  0.00    +0.256 A 
ATOM      5  N   UNL     1      -0.222  -3.996   7.153  0.00  0.00    -0.199 NA
ATOM      6  C   UNL     1      -0.114  -4.623   6.000  0.00  0.00    +0.227 A 
ATOM      7  N   UNL     1      -0.033  -3.972   4.857  0.00  0.00    -0.218 NA
ATOM      8  H   UNL     1       0.113  -0.995   3.614  0.00  0.00    +0.154 HD
ENDROOT
BRANCH   1  17
ATOM      9  C   UNL     1       2.396   0.961   0.310  0.00  0.00    +0.065 C 
ATOM     10  C   UNL     1       1.754  -0.400   0.221  0.00  0.00    +0.039 A 
ATOM     11  C   UNL     1       1.762  -1.075  -0.998  0.00  0.00    +0.023 A 
ATOM     12  C   UNL     1       1.185  -2.309  -1.097  0.00  0.00    +0.012 A 
ATOM     13  C   UNL     1       0.594  -2.861   0.056  0.00  0.00    +0.002 A 
ATOM     14  C   UNL     1      -0.017  -4.125   0.029  0.00  0.00    +0.010 A 
ATOM     15  C   UNL     1      -0.580  -4.632   1.160  0.00  0.00    +0.003 A 
ATOM     16  C   UNL     1      -0.560  -3.915   2.353  0.00  0.00    +0.025 A 
ATOM     17  C   UNL     1       0.030  -2.671   2.420  0.00  0.00    +0.059 A 
ATOM     18  C   UNL     1       0.622  -2.119   1.262  0.00  0.00    +0.092 A 
ATOM     19  N   UNL     1       1.207  -0.920   1.293  0.00  0.00    -0.250 NA
ENDBRANCH   1  17
BRANCH   3  20
ATOM     20  N   UNL     1      -0.189  -0.461   6.041  0.00  0.00    +0.065 N 
ATOM     21  O   UNL     1      -1.243   0.126   5.958  0.00  0.00    -0.126 OA
ATOM     22  O   UNL     1       0.843   0.162   6.136  0.00  0.00    -0.126 OA
ENDBRANCH   3  20
BRANCH   4  23
ATOM     23  O   UNL     1      -0.362  -2.030   8.399  0.00  0.00    -0.434 OA
BRANCH  23  24
ATOM     24  C   UNL     1      -0.339  -2.783   9.529  0.00  0.00    +0.156 A 
ATOM     25  C   UNL     1      -1.514  -3.109  10.168  0.00  0.00    +0.049 A 
ATOM     26  C   UNL     1      -1.506  -3.880  11.328  0.00  0.00    +0.019 A 
ATOM     27  C   UNL     1      -0.336  -4.332  11.860  0.00  0.00    +0.027 A 
ATOM     28  C   UNL     1       0.883  -4.021  11.236  0.00  0.00    +0.018 A 
ATOM     29  C   UNL     1       0.888  -3.242  10.052  0.00  0.00    +0.114 A 
ATOM     30  N   UNL     1       2.045  -2.948   9.453  0.00  0.00    -0.251 NA
ATOM     31  C   UNL     1       3.189  -3.372   9.934  0.00  0.00    +0.111 A 
ATOM     32  C   UNL     1       3.255  -4.146  11.090  0.00  0.00    +0.020 A 
ATOM     33  C   UNL     1       2.110  -4.472  11.759  0.00  0.00    +0.013 A 
ATOM     34 BR   UNL     1      -0.354  -5.377  13.436  0.00  0.00    -0.050 Br
ENDBRANCH  23  24
ENDBRANCH   4  23
TORSDOF 4
