REMARK  Name = ZINC35817478
REMARK  9 active torsions:
REMARK  status: ('A' for Active; 'I' for Inactive)
REMARK    1  A    between atoms: C_1  and  C_2
REMARK    2  A    between atoms: C_2  and  C_3
REMARK    3  A    between atoms: C_3  and  C_5
REMARK    4  A    between atoms: C_3  and  O_6
REMARK    5  A    between atoms: O_6  and  C_7
REMARK    6  A    between atoms: C_7  and  C_9
REMARK    7  A    between atoms: C_10  and  C_38
REMARK    8  A    between atoms: C_14  and  C_16
REMARK    9  A    between atoms: C_29  and  C_32
REMARK                            x       y       z     vdW  Elec       q    Type
REMARK                         _______ _______ _______ _____ _____    ______ ____
ROOT
ATOM      1  C   UNL     1      -0.031   0.351  -4.775  0.00  0.00    +0.065 C 
ATOM      2  C   UNL     1       0.680   0.791  -5.828  0.00  0.00    +0.016 C 
ATOM      3  N   UNL     1       0.046   1.290  -6.932  0.00  0.00    -0.321 N 
ATOM      4  C   UNL     1      -1.252   1.720  -6.857  0.00  0.00    +0.016 C 
ATOM      5  C   UNL     1      -2.048   1.321  -5.842  0.00  0.00    +0.024 C 
ATOM      6  C   UNL     1      -1.531   0.379  -4.782  0.00  0.00    +0.094 C 
ATOM      7  C   UNL     1      -3.377   1.769  -5.745  0.00  0.00    +0.162 C 
ATOM      8  O   UNL     1      -4.070   1.385  -4.823  0.00  0.00    -0.292 OA
ATOM      9  C   UNL     1      -3.958   2.713  -6.761  0.00  0.00    +0.088 C 
ATOM     10  C   UNL     1      -2.832   3.572  -7.346  0.00  0.00    +0.032 C 
ATOM     11  C   UNL     1      -1.768   2.642  -7.934  0.00  0.00    +0.059 C 
ATOM     12  C   UNL     1       2.185   0.736  -5.791  0.00  0.00    +0.061 C 
ATOM     13  H   UNL     1       0.520   1.340  -7.776  0.00  0.00    +0.152 HD
ENDROOT
BRANCH   6  14
ATOM     14  C   UNL     1      -2.051  -1.010  -5.051  0.00  0.00    -0.013 A 
ATOM     15  C   UNL     1      -1.714  -1.657  -6.226  0.00  0.00    +0.055 A 
ATOM     16  C   UNL     1      -2.190  -2.933  -6.475  0.00  0.00    +0.167 A 
ATOM     17  C   UNL     1      -3.009  -3.563  -5.541  0.00  0.00    +0.168 A 
ATOM     18  C   UNL     1      -3.342  -2.910  -4.366  0.00  0.00    +0.069 A 
ATOM     19  C   UNL     1      -2.860  -1.636  -4.121  0.00  0.00    +0.049 A 
ATOM     20 CL   UNL     1      -3.274  -0.822  -2.645  0.00  0.00    -0.083 Cl
ATOM     21  O   UNL     1      -3.342  -4.799  -6.015  0.00  0.00    -0.453 OA
ATOM     22  C   UNL     1      -3.055  -4.760  -7.426  0.00  0.00    +0.466 C 
ATOM     23  O   UNL     1      -2.010  -3.775  -7.535  0.00  0.00    -0.453 OA
ENDBRANCH   6  14
BRANCH  10  24
ATOM     24  C   UNL     1      -3.385   4.463  -8.429  0.00  0.00    -0.044 A 
ATOM     25  C   UNL     1      -3.994   3.907  -9.538  0.00  0.00    +0.004 A 
ATOM     26  C   UNL     1      -4.501   4.724 -10.530  0.00  0.00    +0.000 A 
ATOM     27  C   UNL     1      -4.399   6.098 -10.414  0.00  0.00    +0.000 A 
ATOM     28  C   UNL     1      -3.790   6.654  -9.305  0.00  0.00    +0.000 A 
ATOM     29  C   UNL     1      -3.287   5.837  -8.310  0.00  0.00    +0.004 A 
ENDBRANCH  10  24
BRANCH   1  30
ATOM     30  C   UNL     1       0.648  -0.154  -3.642  0.00  0.00    +0.338 C 
ATOM     31  O   UNL     1       0.710   0.510  -2.624  0.00  0.00    -0.245 OA
BRANCH  30  32
ATOM     32  O   UNL     1       1.228  -1.371  -3.690  0.00  0.00    -0.458 OA
BRANCH  32  33
ATOM     33  C   UNL     1       1.897  -1.818  -2.509  0.00  0.00    +0.173 C 
ATOM     34  C   UNL     1       3.361  -1.376  -2.554  0.00  0.00    +0.052 C 
BRANCH  33  36
ATOM     35  C   UNL     1       0.371  -3.781  -2.259  0.00  0.00    +0.007 C 
ATOM     36  C   UNL     1       1.827  -3.345  -2.430  0.00  0.00    +0.041 C 
ENDBRANCH  33  36
ENDBRANCH  32  33
ENDBRANCH  30  32
ENDBRANCH   1  30
TORSDOF 6
