REMARK  Name = ZINC39666611
REMARK  8 active torsions:
REMARK  status: ('A' for Active; 'I' for Inactive)
REMARK    1  A    between atoms: C_1  and  C_2
REMARK    2  A    between atoms: C_2  and  C_4
REMARK    3  A    between atoms: C_2  and  O_32
REMARK    4  A    between atoms: C_4  and  N_5
REMARK    5  A    between atoms: C_6  and  C_8
REMARK    6  A    between atoms: C_19  and  C_21
REMARK    7  A    between atoms: C_24  and  C_26
REMARK    8  A    between atoms: O_32  and  C_33
REMARK                            x       y       z     vdW  Elec       q    Type
REMARK                         _______ _______ _______ _____ _____    ______ ____
ROOT
ATOM      1  C   UNL     1      -3.002  -4.381  -0.084  0.00  0.00    +0.100 C 
ATOM      2  C   UNL     1      -2.588  -5.002   1.269  0.00  0.00    +0.121 C 
ATOM      3  N   UNL     1      -3.860  -5.161   2.012  0.00  0.00    -0.294 N 
ATOM      4  C   UNL     1      -4.834  -5.603   0.985  0.00  0.00    +0.115 C 
ATOM      5  C   UNL     1      -4.475  -4.781  -0.268  0.00  0.00    -0.004 C 
ATOM      6  C   UNL     1      -4.639  -5.633  -1.523  0.00  0.00    -0.010 C 
ATOM      7  C   UNL     1      -6.120  -5.969  -1.717  0.00  0.00    -0.082 C 
ATOM      8  N   UNL     1      -6.894  -4.727  -1.840  0.00  0.00    +0.379 N 
ATOM      9  C   UNL     1      -6.806  -3.957  -0.593  0.00  0.00    -0.082 C 
ATOM     10  C   UNL     1      -5.354  -3.536  -0.352  0.00  0.00    -0.010 C 
ATOM     11  C   UNL     1      -4.082  -4.952   3.325  0.00  0.00    +0.282 C 
ATOM     12  O   UNL     1      -5.192  -5.128   3.791  0.00  0.00    -0.267 OA
ATOM     13  H   UNL     1      -6.524  -4.176  -2.600  0.00  0.00    -0.086 HD
ATOM     14  H   UNL     1      -7.859  -4.951  -2.029  0.00  0.00    -0.086 HD
ENDROOT
BRANCH  11  15
ATOM     15  C   UNL     1      -2.985  -4.513   4.192  0.00  0.00    +0.190 A 
ATOM     16  C   UNL     1      -3.072  -4.269   5.545  0.00  0.00    +0.055 A 
ATOM     17  C   UNL     1      -1.798  -3.873   5.966  0.00  0.00    +0.050 A 
ATOM     18  C   UNL     1      -0.989  -3.890   4.867  0.00  0.00    +0.136 A 
ATOM     19  O   UNL     1      -1.713  -4.282   3.805  0.00  0.00    -0.450 OA
BRANCH  18  20
ATOM     20  C   UNL     1       0.446  -3.540   4.849  0.00  0.00    +0.017 A 
ATOM     21  C   UNL     1       1.089  -3.157   6.027  0.00  0.00    +0.011 A 
ATOM     22  C   UNL     1       2.430  -2.832   6.003  0.00  0.00    +0.001 A 
ATOM     23  C   UNL     1       3.137  -2.886   4.815  0.00  0.00    +0.000 A 
ATOM     24  C   UNL     1       2.506  -3.264   3.644  0.00  0.00    +0.001 A 
ATOM     25  C   UNL     1       1.167  -3.597   3.654  0.00  0.00    +0.011 A 
ENDBRANCH  18  20
ENDBRANCH  11  15
BRANCH   1  27
ATOM     26  N   UNL     1      -2.599  -2.192  -1.163  0.00  0.00    -0.312 N 
ATOM     27  C   UNL     1      -2.867  -2.881  -0.036  0.00  0.00    +0.218 C 
ATOM     28  O   UNL     1      -3.001  -2.293   1.017  0.00  0.00    -0.275 OA
ATOM     29  H   UNL     1      -2.492  -2.661  -2.005  0.00  0.00    +0.149 HD
BRANCH  26  30
ATOM     30  C   UNL     1      -2.468  -0.733  -1.116  0.00  0.00    +0.148 C 
BRANCH  30  32
ATOM     31  C   UNL     1      -1.905   1.303  -2.449  0.00  0.00    +0.053 C 
ATOM     32  C   UNL     1      -2.165  -0.203  -2.518  0.00  0.00    +0.187 C 
BRANCH  32  33
ATOM     33  O   UNL     1      -3.281  -0.455  -3.374  0.00  0.00    -0.486 OA
BRANCH  33  34
ATOM     34  C   UNL     1      -3.031  -0.530  -4.708  0.00  0.00    +0.139 A 
ATOM     35  C   UNL     1      -1.762  -0.253  -5.194  0.00  0.00    +0.047 A 
ATOM     36  C   UNL     1      -1.510  -0.330  -6.550  0.00  0.00    +0.004 A 
ATOM     37  C   UNL     1      -2.522  -0.683  -7.424  0.00  0.00    +0.002 A 
ATOM     38  C   UNL     1      -3.788  -0.959  -6.944  0.00  0.00    +0.023 A 
ATOM     39  C   UNL     1      -4.044  -0.889  -5.587  0.00  0.00    +0.083 A 
ATOM     40 CL   UNL     1      -5.633  -1.244  -4.982  0.00  0.00    -0.080 Cl
ENDBRANCH  33  34
ENDBRANCH  32  33
ENDBRANCH  30  32
ENDBRANCH  26  30
ENDBRANCH   1  27
TORSDOF 7
