REMARK  Name = ZINC45619905
REMARK  8 active torsions:
REMARK  status: ('A' for Active; 'I' for Inactive)
REMARK    1  A    between atoms: C_1  and  C_2
REMARK    2  A    between atoms: C_5  and  C_31
REMARK    3  A    between atoms: C_6  and  C_8
REMARK    4  A    between atoms: C_8  and  C_10
REMARK    5  A    between atoms: C_10  and  S_11
REMARK    6  A    between atoms: S_11  and  C_12
REMARK    7  A    between atoms: N_22  and  C_23
REMARK    8  A    between atoms: C_26  and  C_29
REMARK                            x       y       z     vdW  Elec       q    Type
REMARK                         _______ _______ _______ _____ _____    ______ ____
ROOT
ATOM      1  C   UNL     1       0.627  -1.835   7.026  0.00  0.00    +0.177 A 
ATOM      2  N   UNL     1       0.471  -0.550   6.822  0.00  0.00    -0.223 NA
ATOM      3  C   UNL     1       1.060   0.370   7.620  0.00  0.00    +0.079 A 
ATOM      4  C   UNL     1       0.895   1.741   7.405  0.00  0.00    +0.028 A 
ATOM      5  C   UNL     1       1.508   2.635   8.237  0.00  0.00    +0.002 A 
ATOM      6  C   UNL     1       2.296   2.203   9.296  0.00  0.00    +0.001 A 
ATOM      7  C   UNL     1       2.477   0.868   9.532  0.00  0.00    +0.015 A 
ATOM      8  C   UNL     1       1.863  -0.067   8.700  0.00  0.00    +0.065 A 
ATOM      9  C   UNL     1       2.021  -1.512   8.906  0.00  0.00    +0.267 A 
ATOM     10  O   UNL     1       2.699  -1.949   9.818  0.00  0.00    -0.267 OA
ATOM     11  N   UNL     1       1.381  -2.341   8.049  0.00  0.00    -0.255 N 
ENDROOT
BRANCH  11  12
ATOM     12  C   UNL     1       1.496  -3.725   8.206  0.00  0.00    +0.052 A 
ATOM     13  C   UNL     1       0.557  -4.418   8.963  0.00  0.00    +0.027 A 
ATOM     14  C   UNL     1       0.667  -5.781   9.120  0.00  0.00    +0.021 A 
ATOM     15  C   UNL     1       1.725  -6.469   8.519  0.00  0.00    +0.052 A 
ATOM     16  C   UNL     1       2.667  -5.770   7.759  0.00  0.00    +0.021 A 
ATOM     17  C   UNL     1       2.547  -4.407   7.602  0.00  0.00    +0.027 A 
BRANCH  15  18
ATOM     18  C   UNL     1       1.843  -7.887   8.681  0.00  0.00    +0.099 C 
ATOM     19  N   UNL     1       1.937  -9.012   8.810  0.00  0.00    -0.191 NA
ENDBRANCH  15  18
ENDBRANCH  11  12
BRANCH   1  20
ATOM     20  S   UNL     1      -0.177  -2.962   5.936  0.00  0.00    -0.079 S 
BRANCH  20  21
ATOM     21  C   UNL     1      -1.045  -1.891   4.758  0.00  0.00    +0.157 C 
BRANCH  21  22
ATOM     22  C   UNL     1      -1.784  -2.740   3.756  0.00  0.00    +0.174 C 
ATOM     23  O   UNL     1      -1.730  -3.950   3.830  0.00  0.00    -0.291 OA
BRANCH  22  29
ATOM     24  C   UNL     1      -3.249   1.373   1.349  0.00  0.00    +0.044 C 
ATOM     25  C   UNL     1      -3.280  -0.124   1.525  0.00  0.00    -0.050 A 
ATOM     26  C   UNL     1      -4.053  -0.902   0.680  0.00  0.00    +0.003 A 
ATOM     27  C   UNL     1      -4.088  -2.277   0.833  0.00  0.00    +0.004 A 
ATOM     28  C   UNL     1      -3.353  -2.882   1.831  0.00  0.00    -0.040 A 
ATOM     29  C   UNL     1      -2.571  -2.103   2.689  0.00  0.00    +0.021 A 
ATOM     30  C   UNL     1      -2.535  -0.714   2.523  0.00  0.00    +0.015 A 
ATOM     31  C   UNL     1      -3.394  -4.379   1.997  0.00  0.00    +0.044 C 
ENDBRANCH  22  29
ENDBRANCH  21  22
ENDBRANCH  20  21
ENDBRANCH   1  20
TORSDOF 6
