REMARK  Name = ZINC08790329
REMARK  5 active torsions:
REMARK  status: ('A' for Active; 'I' for Inactive)
REMARK    1  A    between atoms: C_6  and  C_7
REMARK    2  A    between atoms: C_7  and  N_8
REMARK    3  A    between atoms: C_13  and  C_30
REMARK    4  A    between atoms: C_30  and  C_31
REMARK    5  A    between atoms: C_31  and  C_32
REMARK                            x       y       z     vdW  Elec       q    Type
REMARK                         _______ _______ _______ _____ _____    ______ ____
ROOT
ATOM      1  N   UNL     1       0.248   2.462   1.869  0.00  0.00    -0.237 N 
ATOM      2  C   UNL     1       1.425   2.568   1.242  0.00  0.00    +0.224 C 
ATOM      3  O   UNL     1       2.358   3.247   1.613  0.00  0.00    -0.275 OA
ATOM      4  C   UNL     1       1.411   1.709  -0.002  0.00  0.00    +0.073 C 
ATOM      5  C   UNL     1       1.437   2.617  -1.250  0.00  0.00    -0.057 C 
ATOM      6  C   UNL     1      -0.700   1.674  -1.231  0.00  0.00    +0.050 C 
ATOM      7  C   UNL     1      -0.013   1.086   0.008  0.00  0.00    +0.088 C 
ATOM      8  C   UNL     1      -0.632   1.654   1.266  0.00  0.00    +0.225 C 
ATOM      9  O   UNL     1      -1.751   1.414   1.665  0.00  0.00    -0.275 OA
ATOM     10  C   UNL     1      -2.161   1.921  -0.985  0.00  0.00    -0.026 A 
ATOM     11  C   UNL     1      -2.853   2.692  -0.076  0.00  0.00    +0.024 A 
ATOM     12  C   UNL     1      -4.237   2.713  -0.098  0.00  0.00    +0.041 A 
ATOM     13  C   UNL     1      -4.922   1.958  -1.034  0.00  0.00    +0.022 A 
ATOM     14  C   UNL     1      -4.233   1.186  -1.945  0.00  0.00    +0.025 A 
ATOM     15  C   UNL     1      -2.841   1.159  -1.931  0.00  0.00    +0.036 A 
ATOM     16  N   UNL     1      -1.932   0.469  -2.737  0.00  0.00    -0.286 N 
ATOM     17  C   UNL     1      -0.654   0.717  -2.391  0.00  0.00    +0.211 C 
ATOM     18  O   UNL     1       0.340   0.259  -2.913  0.00  0.00    -0.277 OA
ATOM     19 CL   UNL     1      -5.110   3.683   1.047  0.00  0.00    -0.084 Cl
ATOM     20  H   UNL     1      -2.192  -0.121  -3.462  0.00  0.00    +0.155 HD
ATOM     21  N   UNL     1       0.026   2.907  -1.505  0.00  0.00    +0.394 N 
ATOM     22  H   UNL     1      -0.108   3.188  -2.484  0.00  0.00    -0.083 HD
ATOM     23  H   UNL     1      -0.301   3.658  -0.886  0.00  0.00    -0.083 HD
ENDROOT
BRANCH   1  24
ATOM     24  C   UNL     1      -0.054   3.173   3.114  0.00  0.00    +0.151 C 
BRANCH  24  30
ATOM     25  C   UNL     1       0.165   5.619   2.638  0.00  0.00    +0.009 A 
ATOM     26  C   UNL     1      -0.381   6.854   2.337  0.00  0.00    +0.050 A 
ATOM     27  C   UNL     1      -1.753   6.990   2.200  0.00  0.00    +0.166 A 
ATOM     28  C   UNL     1      -2.579   5.880   2.361  0.00  0.00    +0.167 A 
ATOM     29  C   UNL     1      -2.025   4.646   2.657  0.00  0.00    +0.054 A 
ATOM     30  C   UNL     1      -0.654   4.517   2.792  0.00  0.00    -0.026 A 
ATOM     31  O   UNL     1      -3.874   6.271   2.178  0.00  0.00    -0.453 OA
ATOM     32  C   UNL     1      -3.865   7.705   2.308  0.00  0.00    +0.466 C 
ATOM     33  O   UNL     1      -2.530   8.075   1.916  0.00  0.00    -0.453 OA
ENDBRANCH  24  30
ENDBRANCH   1  24
BRANCH   5  34
ATOM     34  C   UNL     1       2.228   3.895  -0.962  0.00  0.00    -0.006 C 
BRANCH  34  35
ATOM     35  C   UNL     1       2.348   4.721  -2.244  0.00  0.00    +0.094 C 
BRANCH  35  36
ATOM     36  C   UNL     1       3.127   5.979  -1.960  0.00  0.00    +0.210 C 
ATOM     37  O   UNL     1       3.545   6.195  -0.842  0.00  0.00    -0.276 OA
ATOM     38  N   UNL     1       3.358   6.866  -2.949  0.00  0.00    -0.329 N 
ATOM     39  H   UNL     1       3.024   6.694  -3.843  0.00  0.00    +0.145 HD
ATOM     40  H   UNL     1       3.860   7.676  -2.766  0.00  0.00    +0.145 HD
ENDBRANCH  35  36
ENDBRANCH  34  35
ENDBRANCH   5  34
TORSDOF 5
