REMARK  Name = ZINC22798898
REMARK  6 active torsions:
REMARK  status: ('A' for Active; 'I' for Inactive)
REMARK    1  A    between atoms: C_1  and  C_2
REMARK    2  A    between atoms: C_5  and  C_7
REMARK    3  A    between atoms: C_15  and  C_17
REMARK    4  A    between atoms: C_17  and  N_18
REMARK    5  A    between atoms: N_21  and  C_24
REMARK    6  A    between atoms: C_24  and  C_25
REMARK                            x       y       z     vdW  Elec       q    Type
REMARK                         _______ _______ _______ _____ _____    ______ ____
ROOT
ATOM      1  C   UNL     1       4.983  -6.163  -3.550  0.00  0.00    +0.158 C 
ENDROOT
BRANCH   1  10
ATOM      2  C   UNL     1       1.040  -4.033  -0.026  0.00  0.00    +0.010 A 
ATOM      3  C   UNL     1       0.587  -4.954   0.861  0.00  0.00    +0.057 A 
ATOM      4  S   UNL     1       1.512  -6.420   0.444  0.00  0.00    -0.076 S 
ATOM      5  C   UNL     1       2.475  -5.771  -0.897  0.00  0.00    +0.116 A 
ATOM      6  C   UNL     1       2.055  -4.435  -0.995  0.00  0.00    +0.080 A 
ATOM      7  C   UNL     1       2.682  -3.661  -2.022  0.00  0.00    +0.260 A 
ATOM      8  O   UNL     1       2.385  -2.489  -2.182  0.00  0.00    -0.267 OA
ATOM      9  N   UNL     1       3.603  -4.246  -2.809  0.00  0.00    -0.309 N 
ATOM     10  C   UNL     1       3.946  -5.550  -2.645  0.00  0.00    +0.125 A 
ATOM     11  N   UNL     1       3.398  -6.279  -1.710  0.00  0.00    -0.225 NA
ATOM     12  H   UNL     1       4.032  -3.727  -3.507  0.00  0.00    +0.170 HD
BRANCH   2  17
ATOM     13  C   UNL     1      -0.018   1.503   0.010  0.00  0.00    +0.051 C 
ATOM     14  C   UNL     1       0.002  -0.004   0.002  0.00  0.00    -0.013 A 
ATOM     15  C   UNL     1      -1.042  -0.871   0.002  0.00  0.00    +0.011 A 
ATOM     16  C   UNL     1      -0.789  -2.227  -0.007  0.00  0.00    +0.016 A 
ATOM     17  C   UNL     1       0.512  -2.653  -0.016  0.00  0.00    +0.021 A 
ATOM     18  S   UNL     1       1.406  -1.107  -0.018  0.00  0.00    -0.093 S 
ENDBRANCH   2  17
ENDBRANCH   1  10
BRANCH   1  19
ATOM     19  N   UNL     1       5.183  -7.571  -3.183  0.00  0.00    -0.299 NA
ATOM     20  C   UNL     1       5.781  -7.687  -1.845  0.00  0.00    +0.066 C 
ATOM     21  C   UNL     1       5.917  -9.166  -1.476  0.00  0.00    -0.063 C 
ATOM     22  N   UNL     1       6.762  -9.842  -2.470  0.00  0.00    +0.384 N 
ATOM     23  C   UNL     1       6.139  -9.740  -3.796  0.00  0.00    -0.063 C 
ATOM     24  C   UNL     1       6.005  -8.265  -4.184  0.00  0.00    +0.066 C 
ATOM     25  H   UNL     1       7.671  -9.406  -2.491  0.00  0.00    -0.081 HD
BRANCH  22  26
ATOM     26  C   UNL     1       6.907 -11.258  -2.106  0.00  0.00    -0.043 C 
BRANCH  26  27
ATOM     27  C   UNL     1       7.871 -11.924  -3.053  0.00  0.00    -0.063 A 
ATOM     28  C   UNL     1       7.407 -12.506  -4.219  0.00  0.00    +0.005 A 
ATOM     29  C   UNL     1       8.286 -13.113  -5.092  0.00  0.00    +0.046 A 
ATOM     30  C   UNL     1       9.649 -13.146  -4.806  0.00  0.00    +0.124 A 
ATOM     31  C   UNL     1      10.101 -12.565  -3.628  0.00  0.00    -0.002 A 
ATOM     32  C   UNL     1       9.223 -11.951  -2.763  0.00  0.00    +0.009 A 
ATOM     33  C   UNL     1      11.602 -12.774  -3.578  0.00  0.00    +0.080 C 
ATOM     34  C   UNL     1      11.810 -13.864  -4.656  0.00  0.00    +0.234 C 
ATOM     35  O   UNL     1      10.679 -13.674  -5.522  0.00  0.00    -0.491 OA
ENDBRANCH  26  27
ENDBRANCH  22  26
ENDBRANCH   1  19
TORSDOF 5
