REMARK  Name = ZINC38970957
REMARK  6 active torsions:
REMARK  status: ('A' for Active; 'I' for Inactive)
REMARK    1  A    between atoms: C_4  and  O_7
REMARK    2  A    between atoms: O_7  and  C_8
REMARK    3  A    between atoms: C_11  and  N_14
REMARK    4  A    between atoms: N_14  and  C_15
REMARK    5  A    between atoms: N_18  and  S_19
REMARK    6  A    between atoms: S_19  and  C_22
REMARK                            x       y       z     vdW  Elec       q    Type
REMARK                         _______ _______ _______ _____ _____    ______ ____
ROOT
ATOM      1  C   UNL     1       4.254  -6.984  -0.057  0.00  0.00    +0.237 C 
ATOM      2  C   UNL     1       4.161  -8.078  -1.097  0.00  0.00    +0.192 C 
ATOM      3  N   UNL     1       4.070  -7.782  -2.360  0.00  0.00    -0.110 NA
ATOM      4  N   UNL     1       4.174  -9.360  -0.697  0.00  0.00    -0.226 NA
ATOM      5  C   UNL     1       4.266  -9.685   0.575  0.00  0.00    +0.089 A 
ATOM      6  C   UNL     1       4.277 -11.050   0.962  0.00  0.00    +0.030 A 
ATOM      7  C   UNL     1       4.370 -11.389   2.266  0.00  0.00    +0.002 A 
ATOM      8  C   UNL     1       4.460 -10.437   3.294  0.00  0.00    +0.002 A 
ATOM      9  C   UNL     1       4.457  -9.111   3.037  0.00  0.00    +0.027 A 
ATOM     10  C   UNL     1       4.359  -8.658   1.641  0.00  0.00    +0.063 A 
ATOM     11  N   UNL     1       4.354  -7.386   1.355  0.00  0.00    -0.359 N 
ATOM     12  H   UNL     1       4.416  -6.720   2.057  0.00  0.00    +0.162 HD
ENDROOT
BRANCH   3  13
ATOM     13  S   UNL     1       3.969  -8.989  -3.489  0.00  0.00    +0.100 S 
ATOM     14  O   UNL     1       5.211  -9.679  -3.458  0.00  0.00    -0.146 OA
ATOM     15  O   UNL     1       2.728  -9.646  -3.271  0.00  0.00    -0.146 OA
BRANCH  13  16
ATOM     16  C   UNL     1       3.861  -8.218  -5.069  0.00  0.00    +0.113 A 
ATOM     17  C   UNL     1       2.625  -7.894  -5.596  0.00  0.00    +0.032 A 
ATOM     18  C   UNL     1       2.539  -7.288  -6.835  0.00  0.00    +0.040 A 
ATOM     19  C   UNL     1       3.691  -7.006  -7.549  0.00  0.00    +0.124 A 
ATOM     20  C   UNL     1       4.929  -7.331  -7.020  0.00  0.00    +0.040 A 
ATOM     21  C   UNL     1       5.013  -7.931  -5.778  0.00  0.00    +0.032 A 
ATOM     22  F   UNL     1       3.608  -6.414  -8.761  0.00  0.00    -0.205 F 
ENDBRANCH  13  16
ENDBRANCH   3  13
BRANCH   1  23
ATOM     23  N   UNL     1       3.070  -6.133  -0.197  0.00  0.00    -0.318 N 
ATOM     24  H   UNL     1       2.187  -6.533  -0.237  0.00  0.00    +0.148 HD
BRANCH  23  28
ATOM     25  C   UNL     1       3.493  -1.993  -0.419  0.00  0.00    +0.129 A 
ATOM     26  C   UNL     1       4.598  -2.789  -0.157  0.00  0.00    +0.048 A 
ATOM     27  C   UNL     1       4.458  -4.161  -0.083  0.00  0.00    +0.026 A 
ATOM     28  C   UNL     1       3.212  -4.743  -0.271  0.00  0.00    +0.029 A 
ATOM     29  C   UNL     1       2.106  -3.945  -0.533  0.00  0.00    +0.026 A 
ATOM     30  C   UNL     1       2.247  -2.573  -0.602  0.00  0.00    +0.048 A 
BRANCH  25  31
ATOM     31  O   UNL     1       3.632  -0.642  -0.493  0.00  0.00    -0.456 OA
BRANCH  31  35
ATOM     32  C   UNL     1       4.064   1.061  -4.225  0.00  0.00    +0.000 A 
ATOM     33  C   UNL     1       3.805  -0.292  -4.110  0.00  0.00    +0.004 A 
ATOM     34  C   UNL     1       3.660  -0.865  -2.861  0.00  0.00    +0.046 A 
ATOM     35  C   UNL     1       3.774  -0.081  -1.722  0.00  0.00    +0.128 A 
ATOM     36  C   UNL     1       4.034   1.277  -1.841  0.00  0.00    +0.046 A 
ATOM     37  C   UNL     1       4.178   1.845  -3.091  0.00  0.00    +0.004 A 
ENDBRANCH  31  35
ENDBRANCH  25  31
ENDBRANCH  23  28
ENDBRANCH   1  23
TORSDOF 6
