REMARK  Name = ZINC06198360
REMARK  7 active torsions:
REMARK  status: ('A' for Active; 'I' for Inactive)
REMARK    1  A    between atoms: C_1  and  C_2
REMARK    2  A    between atoms: C_2  and  C_3
REMARK    3  A    between atoms: C_10  and  C_15
REMARK    4  A    between atoms: C_15  and  C_17
REMARK    5  A    between atoms: C_15  and  N_63
REMARK    6  A    between atoms: N_21  and  C_22
REMARK    7  A    between atoms: C_22  and  C_23
REMARK                            x       y       z     vdW  Elec       q    Type
REMARK                         _______ _______ _______ _____ _____    ______ ____
ROOT
ATOM      1  C   UNL     1       4.237   2.963  -1.744  0.00  0.00    +0.039 C 
ENDROOT
BRANCH   1   9
ATOM      2  C   UNL     1       9.571   2.855   1.390  0.00  0.00    -0.047 A 
ATOM      3  C   UNL     1      10.380   2.529   0.309  0.00  0.00    +0.005 A 
ATOM      4  C   UNL     1       9.840   2.353  -0.946  0.00  0.00    +0.026 A 
ATOM      5  C   UNL     1       8.470   2.504  -1.135  0.00  0.00    +0.049 A 
ATOM      6  C   UNL     1       7.653   2.835  -0.037  0.00  0.00    -0.001 A 
ATOM      7  C   UNL     1       8.223   3.008   1.228  0.00  0.00    +0.013 A 
ATOM      8  C   UNL     1       6.212   2.991  -0.246  0.00  0.00    +0.017 A 
ATOM      9  C   UNL     1       5.716   2.810  -1.495  0.00  0.00    +0.011 A 
ATOM     10  C   UNL     1       6.577   2.473  -2.561  0.00  0.00    +0.251 A 
ATOM     11  O   UNL     1       6.109   2.310  -3.675  0.00  0.00    -0.268 OA
ATOM     12  N   UNL     1       7.902   2.333  -2.380  0.00  0.00    -0.322 N 
ATOM     13  H   UNL     1       8.484   2.101  -3.159  0.00  0.00    +0.169 HD
BRANCH   2  15
ATOM     14  C   UNL     1      10.201   1.704   3.494  0.00  0.00    +0.009 C 
ATOM     15  C   UNL     1      10.186   3.043   2.753  0.00  0.00    +0.032 C 
ENDBRANCH   2  15
ENDBRANCH   1   9
BRANCH   1  22
ATOM     16  C   UNL     1       4.754   5.202  -2.536  0.00  0.00    -0.077 C 
ATOM     17  C   UNL     1       4.353   6.327  -3.451  0.00  0.00    -0.019 C 
ATOM     18  C   UNL     1       3.245   7.149  -2.759  0.00  0.00    -0.002 C 
ATOM     19  C   UNL     1       1.940   6.502  -2.851  0.00  0.00    -0.002 C 
ATOM     20  C   UNL     1       1.926   5.120  -2.166  0.00  0.00    -0.019 C 
ATOM     21  C   UNL     1       2.576   4.124  -3.087  0.00  0.00    -0.077 C 
ATOM     22  N   UNL     1       4.046   3.914  -2.851  0.00  0.00    +0.389 N 
ATOM     23  H   UNL     1       4.457   3.518  -3.704  0.00  0.00    -0.080 HD
ENDBRANCH   1  22
BRANCH   1  24
ATOM     24  C   UNL     1       3.658   1.635  -2.159  0.00  0.00    +0.143 A 
ATOM     25  N   UNL     1       3.789   1.053  -3.326  0.00  0.00    -0.115 NA
ATOM     26  N   UNL     1       3.149  -0.064  -3.288  0.00  0.00    -0.023 NA
ATOM     27  N   UNL     1       2.618  -0.213  -2.125  0.00  0.00    -0.044 NA
ATOM     28  N   UNL     1       2.903   0.816  -1.402  0.00  0.00    -0.226 N 
BRANCH  28  29
ATOM     29  C   UNL     1       2.490   1.048  -0.016  0.00  0.00    +0.182 C 
BRANCH  29  30
ATOM     30  C   UNL     1       1.175   1.783   0.000  0.00  0.00    -0.026 A 
ATOM     31  C   UNL     1      -0.013   1.076   0.008  0.00  0.00    +0.005 A 
ATOM     32  C   UNL     1      -1.219   1.751   0.017  0.00  0.00    +0.000 A 
ATOM     33  C   UNL     1      -1.238   3.133   0.029  0.00  0.00    +0.000 A 
ATOM     34  C   UNL     1      -0.050   3.840   0.022  0.00  0.00    +0.000 A 
ATOM     35  C   UNL     1       1.156   3.165   0.008  0.00  0.00    +0.005 A 
ENDBRANCH  29  30
ENDBRANCH  28  29
ENDBRANCH   1  24
TORSDOF 6
