REMARK  Name = ZINC09015601
REMARK  8 active torsions:
REMARK  status: ('A' for Active; 'I' for Inactive)
REMARK    1  A    between atoms: C_1  and  C_2
REMARK    2  A    between atoms: C_16  and  C_33
REMARK    3  A    between atoms: C_18  and  C_27
REMARK    4  A    between atoms: C_27  and  C_29
REMARK    5  A    between atoms: C_29  and  C_30
REMARK    6  A    between atoms: C_29  and  C_31
REMARK    7  A    between atoms: C_29  and  C_32
REMARK    8  A    between atoms: C_33  and  C_35
REMARK                            x       y       z     vdW  Elec       q    Type
REMARK                         _______ _______ _______ _____ _____    ______ ____
ROOT
ATOM      1  C   UNL     1       3.213   0.190   4.496  0.00  0.00    +0.044 C 
ATOM      2  C   UNL     1       3.383   0.852   3.152  0.00  0.00    -0.044 C 
ATOM      3  C   UNL     1       2.344   1.429   2.521  0.00  0.00    +0.000 C 
ATOM      4  C   UNL     1       2.643   2.051   1.192  0.00  0.00    +0.118 C 
ATOM      5  C   UNL     1       1.446   2.244   0.274  0.00  0.00    +0.108 C 
ATOM      6  C   UNL     1       0.821   3.590   0.416  0.00  0.00    -0.008 A 
ATOM      7  C   UNL     1       1.328   4.861   0.259  0.00  0.00    +0.006 A 
ATOM      8  C   UNL     1       0.454   5.921   0.475  0.00  0.00    +0.000 A 
ATOM      9  C   UNL     1      -0.862   5.707   0.830  0.00  0.00    +0.002 A 
ATOM     10  C   UNL     1      -1.381   4.432   0.989  0.00  0.00    +0.023 A 
ATOM     11  C   UNL     1      -0.514   3.358   0.776  0.00  0.00    +0.038 A 
ATOM     12  N   UNL     1      -0.763   1.999   0.857  0.00  0.00    -0.284 N 
ATOM     13  C   UNL     1       0.339   1.266   0.581  0.00  0.00    +0.231 C 
ATOM     14  O   UNL     1       0.420   0.056   0.576  0.00  0.00    -0.274 OA
ATOM     15  C   UNL     1       1.993   2.018  -1.150  0.00  0.00    +0.109 C 
ATOM     16  C   UNL     1       3.489   1.648  -0.940  0.00  0.00    +0.153 C 
ATOM     17  N   UNL     1       3.523   1.122   0.430  0.00  0.00    -0.311 N 
ATOM     18  C   UNL     1       4.736   1.022   1.069  0.00  0.00    +0.038 A 
ATOM     19  C   UNL     1       4.701   0.892   2.476  0.00  0.00    -0.001 A 
ATOM     20  C   UNL     1       5.888   0.796   3.188  0.00  0.00    +0.010 A 
ATOM     21  C   UNL     1       7.095   0.825   2.516  0.00  0.00    +0.001 A 
ATOM     22  C   UNL     1       7.127   0.948   1.138  0.00  0.00    +0.002 A 
ATOM     23  C   UNL     1       5.951   1.046   0.414  0.00  0.00    +0.024 A 
ATOM     24  H   UNL     1      -1.624   1.617   1.087  0.00  0.00    +0.155 HD
ENDROOT
BRANCH  16  25
ATOM     25  C   UNL     1       3.918   0.591  -1.925  0.00  0.00    +0.160 C 
ATOM     26  O   UNL     1       3.921  -0.572  -1.599  0.00  0.00    -0.295 OA
BRANCH  25  27
ATOM     27  C   UNL     1       4.342   0.985  -3.316  0.00  0.00    +0.022 C 
ATOM     28  C   UNL     1       4.582  -0.274  -4.152  0.00  0.00    +0.018 C 
ATOM     29  C   UNL     1       3.242   1.826  -3.966  0.00  0.00    +0.018 C 
ATOM     30  C   UNL     1       5.633   1.802  -3.244  0.00  0.00    +0.018 C 
ENDBRANCH  25  27
ENDBRANCH  16  25
BRANCH  15  31
ATOM     31  C   UNL     1       1.261   0.885  -1.822  0.00  0.00    +0.170 C 
ATOM     32  O   UNL     1       1.590  -0.262  -1.607  0.00  0.00    -0.292 OA
BRANCH  31  33
ATOM     33  C   UNL     1       0.146   1.171  -2.738  0.00  0.00    +0.018 A 
ATOM     34  C   UNL     1      -0.185   2.494  -3.051  0.00  0.00    +0.013 A 
ATOM     35  C   UNL     1      -1.227   2.754  -3.915  0.00  0.00    +0.020 A 
ATOM     36  C   UNL     1      -1.953   1.709  -4.464  0.00  0.00    +0.041 A 
ATOM     37  C   UNL     1      -1.634   0.397  -4.154  0.00  0.00    +0.020 A 
ATOM     38  C   UNL     1      -0.591   0.121  -3.296  0.00  0.00    +0.013 A 
ATOM     39 CL   UNL     1      -3.269   2.046  -5.545  0.00  0.00    -0.084 Cl
ENDBRANCH  31  33
ENDBRANCH  15  31
TORSDOF 4
