REMARK  Name = ZINC40880745
REMARK  6 active torsions:
REMARK  status: ('A' for Active; 'I' for Inactive)
REMARK    1  A    between atoms: C_1  and  C_2
REMARK    2  A    between atoms: C_5  and  C_8
REMARK    3  A    between atoms: C_10  and  C_13
REMARK    4  A    between atoms: C_16  and  N_20
REMARK    5  A    between atoms: C_24  and  C_27
REMARK    6  A    between atoms: C_32  and  N_35
REMARK                            x       y       z     vdW  Elec       q    Type
REMARK                         _______ _______ _______ _____ _____    ______ ____
ROOT
ATOM      1  N   UNL     1       0.157 -10.739   4.173  0.00  0.00    -0.327 N 
ATOM      2  C   UNL     1       1.427 -11.312   4.641  0.00  0.00    +0.105 C 
ATOM      3  C   UNL     1       1.401 -11.384   6.171  0.00  0.00    +0.020 C 
ATOM      4  C   UNL     1       0.160 -12.158   6.620  0.00  0.00    +0.016 C 
ATOM      5  C   UNL     1      -1.098 -11.425   6.150  0.00  0.00    +0.092 C 
ATOM      6  C   UNL     1      -1.101 -11.349   4.625  0.00  0.00    +0.118 C 
ENDROOT
BRANCH   5   7
ATOM      7  C   UNL     1      -2.321 -12.170   6.621  0.00  0.00    +0.220 C 
ATOM      8  O   UNL     1      -2.306 -13.381   6.683  0.00  0.00    -0.275 OA
ATOM      9  N   UNL     1      -3.430 -11.490   6.974  0.00  0.00    -0.301 N 
ATOM     10  C   UNL     1      -3.507 -10.035   6.787  0.00  0.00    +0.106 C 
ATOM     11  C   UNL     1      -4.768  -9.707   5.981  0.00  0.00    +0.004 C 
ATOM     12  C   UNL     1      -5.986 -10.318   6.677  0.00  0.00    -0.066 C 
ATOM     13  C   UNL     1      -5.833 -11.839   6.737  0.00  0.00    +0.004 C 
ATOM     14  C   UNL     1      -4.587 -12.192   7.546  0.00  0.00    +0.106 C 
BRANCH  12  15
ATOM     15  N   UNL     1      -7.201  -9.977   5.924  0.00  0.00    +0.382 N 
ATOM     16  C   UNL     1      -7.343  -8.518   5.861  0.00  0.00    -0.078 C 
ATOM     17  C   UNL     1      -8.562  -8.156   5.009  0.00  0.00    -0.019 C 
ATOM     18  C   UNL     1      -9.817  -8.766   5.640  0.00  0.00    -0.004 C 
ATOM     19  C   UNL     1      -9.628 -10.280   5.769  0.00  0.00    -0.019 C 
ATOM     20  C   UNL     1      -8.369 -10.563   6.592  0.00  0.00    -0.078 C 
ATOM     21  H   UNL     1      -7.130 -10.347   4.988  0.00  0.00    -0.081 HD
ENDBRANCH  12  15
ENDBRANCH   5   7
BRANCH   1  25
ATOM     22  C   UNL     1       0.126  -7.439   1.628  0.00  0.00    +0.025 A 
ATOM     23  C   UNL     1       0.117  -7.256   3.010  0.00  0.00    +0.013 A 
ATOM     24  C   UNL     1       0.127  -8.349   3.850  0.00  0.00    +0.027 A 
ATOM     25  C   UNL     1       0.146  -9.634   3.321  0.00  0.00    +0.065 A 
ATOM     26  C   UNL     1       0.156  -9.820   1.941  0.00  0.00    +0.145 A 
ATOM     27  C   UNL     1       0.140  -8.729   1.097  0.00  0.00    +0.052 A 
ATOM     28  F   UNL     1       0.174 -11.070   1.428  0.00  0.00    -0.204 F 
BRANCH  22  31
ATOM     29  C   UNL     1       0.095  -4.194   0.061  0.00  0.00    +0.259 A 
ATOM     30  N   UNL     1       0.102  -4.979   1.112  0.00  0.00    -0.187 NA
ATOM     31  C   UNL     1       0.115  -6.264   0.723  0.00  0.00    +0.202 A 
ATOM     32  N   UNL     1       0.117  -6.309  -0.587  0.00  0.00    -0.056 NA
ATOM     33  O   UNL     1       0.098  -4.964  -1.041  0.00  0.00    -0.332 OA
BRANCH  29  38
ATOM     34  C   UNL     1       0.036   1.560   0.150  0.00  0.00    +0.044 C 
ATOM     35  C   UNL     1       0.051   0.053   0.126  0.00  0.00    -0.050 A 
ATOM     36  C   UNL     1       0.054  -0.617  -1.084  0.00  0.00    +0.004 A 
ATOM     37  C   UNL     1       0.068  -1.996  -1.112  0.00  0.00    +0.013 A 
ATOM     38  C   UNL     1       0.080  -2.715   0.084  0.00  0.00    +0.039 A 
ATOM     39  C   UNL     1       0.077  -2.033   1.301  0.00  0.00    +0.013 A 
ATOM     40  C   UNL     1       0.068  -0.654   1.315  0.00  0.00    +0.004 A 
ENDBRANCH  29  38
ENDBRANCH  22  31
ENDBRANCH   1  25
TORSDOF 5
