REMARK  Name = ZINC20849702
REMARK  9 active torsions:
REMARK  status: ('A' for Active; 'I' for Inactive)
REMARK    1  A    between atoms: C_1  and  C_2
REMARK    2  A    between atoms: C_2  and  C_37
REMARK    3  A    between atoms: C_6  and  C_24
REMARK    4  A    between atoms: C_9  and  C_15
REMARK    5  A    between atoms: C_19  and  N_21
REMARK    6  A    between atoms: C_27  and  O_32
REMARK    7  A    between atoms: C_28  and  O_30
REMARK    8  A    between atoms: O_30  and  C_31
REMARK    9  A    between atoms: O_32  and  C_33
REMARK                            x       y       z     vdW  Elec       q    Type
REMARK                         _______ _______ _______ _____ _____    ______ ____
ROOT
ATOM      1  C   UNL     1       3.658   8.701  -0.815  0.00  0.00    +0.011 C 
ATOM      2  C   UNL     1       3.489   8.573   0.700  0.00  0.00    -0.023 C 
ATOM      3  C   UNL     1       2.103   9.075   1.109  0.00  0.00    +0.058 C 
ATOM      4  C   UNL     1       1.039   8.237   0.438  0.00  0.00    +0.017 C 
ATOM      5  C   UNL     1       1.255   6.932   0.168  0.00  0.00    +0.024 C 
ATOM      6  C   UNL     1       0.206   6.050  -0.474  0.00  0.00    +0.089 C 
ATOM      7  C   UNL     1      -0.891   6.903  -1.043  0.00  0.00    +0.032 A 
ATOM      8  C   UNL     1      -1.918   6.564  -1.929  0.00  0.00    +0.099 A 
ATOM      9  N   UNL     1      -2.647   7.644  -2.142  0.00  0.00    -0.172 NA
ATOM     10  N   UNL     1      -2.100   8.701  -1.397  0.00  0.00    -0.263 N 
ATOM     11  H   UNL     1      -2.564   9.698  -1.434  0.00  0.00    +0.190 HD
ATOM     12  C   UNL     1      -1.027   8.229  -0.734  0.00  0.00    +0.123 A 
ATOM     13  N   UNL     1      -0.141   8.865   0.129  0.00  0.00    -0.303 N 
ATOM     14  C   UNL     1       2.488   6.326   0.476  0.00  0.00    +0.162 C 
ATOM     15  O   UNL     1       2.649   5.149   0.224  0.00  0.00    -0.292 OA
ATOM     16  C   UNL     1       3.608   7.101   1.110  0.00  0.00    +0.086 C 
ATOM     17  C   UNL     1       4.566   9.395   1.411  0.00  0.00    +0.011 C 
ATOM     18  H   UNL     1      -0.369   9.851   0.561  0.00  0.00    +0.153 HD
ENDROOT
BRANCH   8  19
ATOM     19  C   UNL     1      -2.149   5.225  -2.525  0.00  0.00    +0.005 A 
ATOM     20  C   UNL     1      -1.067   4.411  -2.856  0.00  0.00    +0.010 A 
ATOM     21  C   UNL     1      -1.287   3.166  -3.410  0.00  0.00    +0.003 A 
ATOM     22  C   UNL     1      -2.579   2.727  -3.638  0.00  0.00    +0.033 A 
ATOM     23  C   UNL     1      -3.656   3.530  -3.311  0.00  0.00    +0.127 A 
ATOM     24  C   UNL     1      -3.448   4.774  -2.751  0.00  0.00    +0.042 A 
BRANCH  23  25
ATOM     25  N   UNL     1      -5.036   3.052  -3.557  0.00  0.00    +0.056 N 
ATOM     26  O   UNL     1      -5.221   1.953  -4.047  0.00  0.00    -0.126 OA
ATOM     27  O   UNL     1      -5.985   3.759  -3.270  0.00  0.00    -0.126 OA
ENDBRANCH  23  25
ENDBRANCH   8  19
BRANCH   6  28
ATOM     28  C   UNL     1      -0.368   5.119   0.562  0.00  0.00    -0.032 A 
ATOM     29  C   UNL     1      -1.003   5.634   1.677  0.00  0.00    +0.008 A 
ATOM     30  C   UNL     1      -1.532   4.784   2.629  0.00  0.00    +0.050 A 
ATOM     31  C   UNL     1      -1.427   3.411   2.468  0.00  0.00    +0.162 A 
ATOM     32  C   UNL     1      -0.787   2.893   1.346  0.00  0.00    +0.162 A 
ATOM     33  C   UNL     1      -0.254   3.751   0.398  0.00  0.00    +0.054 A 
BRANCH  32  34
ATOM     34  O   UNL     1      -0.682   1.547   1.184  0.00  0.00    -0.491 OA
ATOM     35  C   UNL     1      -0.013   1.086   0.008  0.00  0.00    +0.277 C 
ENDBRANCH  32  34
BRANCH  31  36
ATOM     36  O   UNL     1      -1.946   2.574   3.405  0.00  0.00    -0.491 OA
ATOM     37  C   UNL     1      -2.588   3.176   4.530  0.00  0.00    +0.277 C 
ENDBRANCH  31  36
ENDBRANCH   6  28
TORSDOF 5
