REMARK  Name = ZINC09328101
REMARK  4 active torsions:
REMARK  status: ('A' for Active; 'I' for Inactive)
REMARK    1  A    between atoms: C_1  and  C_2
REMARK    2  A    between atoms: C_5  and  N_34
REMARK    3  A    between atoms: C_7  and  N_8
REMARK    4  A    between atoms: C_27  and  C_32
REMARK                            x       y       z     vdW  Elec       q    Type
REMARK                         _______ _______ _______ _____ _____    ______ ____
ROOT
ATOM      1  N   UNL     1       1.738   1.745  -1.314  0.00  0.00    -0.210 N 
ATOM      2  C   UNL     1       1.362   1.702  -0.002  0.00  0.00    +0.228 C 
ATOM      3  O   UNL     1       2.002   2.079   0.956  0.00  0.00    -0.275 OA
ATOM      4  C   UNL     1      -0.013   1.086   0.008  0.00  0.00    +0.074 C 
ATOM      5  C   UNL     1      -1.090   1.670   0.917  0.00  0.00    -0.054 C 
ATOM      6  C   UNL     1      -0.892   3.200   1.089  0.00  0.00    -0.016 C 
ATOM      7  C   UNL     1      -2.353   3.700   1.250  0.00  0.00    -0.020 C 
ATOM      8  C   UNL     1      -3.142   2.785   0.288  0.00  0.00    -0.076 C 
ATOM      9  C   UNL     1      -1.931   1.474  -1.358  0.00  0.00    +0.053 C 
ATOM     10  C   UNL     1      -0.491   1.750  -1.346  0.00  0.00    +0.089 C 
ATOM     11  C   UNL     1       0.681   1.586  -2.176  0.00  0.00    +0.229 C 
ATOM     12  O   UNL     1       0.722   1.358  -3.366  0.00  0.00    -0.275 OA
ATOM     13  C   UNL     1      -2.300   0.114  -1.895  0.00  0.00    -0.027 A 
ATOM     14  C   UNL     1      -1.911  -1.165  -1.567  0.00  0.00    +0.006 A 
ATOM     15  C   UNL     1      -2.436  -2.246  -2.254  0.00  0.00    +0.020 A 
ATOM     16  C   UNL     1      -3.352  -2.036  -3.271  0.00  0.00    +0.046 A 
ATOM     17  C   UNL     1      -3.742  -0.754  -3.602  0.00  0.00    -0.011 A 
ATOM     18  C   UNL     1      -3.218   0.338  -2.914  0.00  0.00    +0.040 A 
ATOM     19  N   UNL     1      -3.453   1.706  -3.061  0.00  0.00    -0.286 N 
ATOM     20  C   UNL     1      -2.743   2.439  -2.186  0.00  0.00    +0.212 C 
ATOM     21  O   UNL     1      -2.752   3.648  -2.083  0.00  0.00    -0.277 OA
ATOM     22  C   UNL     1      -4.739  -0.536  -4.711  0.00  0.00    +0.047 C 
ATOM     23 CL   UNL     1      -4.012  -3.391  -4.132  0.00  0.00    -0.083 Cl
ATOM     24  H   UNL     1      -4.059   2.083  -3.718  0.00  0.00    +0.155 HD
ATOM     25  N   UNL     1      -2.327   1.579   0.085  0.00  0.00    +0.395 N 
ATOM     26  H   UNL     1      -2.867   0.750   0.357  0.00  0.00    -0.079 HD
ENDROOT
BRANCH   1  33
ATOM     27  C   UNL     1       2.648   4.406  -1.751  0.00  0.00    +0.045 C 
ATOM     28  C   UNL     1       3.546   3.213  -1.961  0.00  0.00    -0.028 A 
ATOM     29  C   UNL     1       4.852   3.395  -2.372  0.00  0.00    +0.007 A 
ATOM     30  C   UNL     1       5.674   2.301  -2.571  0.00  0.00    +0.033 A 
ATOM     31  C   UNL     1       5.194   1.023  -2.352  0.00  0.00    +0.128 A 
ATOM     32  C   UNL     1       3.890   0.835  -1.936  0.00  0.00    +0.057 A 
ATOM     33  C   UNL     1       3.062   1.932  -1.736  0.00  0.00    +0.049 A 
BRANCH  31  34
ATOM     34  N   UNL     1       6.077  -0.145  -2.566  0.00  0.00    +0.056 N 
ATOM     35  O   UNL     1       5.654  -1.272  -2.374  0.00  0.00    -0.126 OA
ATOM     36  O   UNL     1       7.227   0.019  -2.933  0.00  0.00    -0.126 OA
ENDBRANCH  31  34
ENDBRANCH   1  33
TORSDOF 2
