REMARK  Name = ZINC63493096
REMARK  1 active torsions:
REMARK  status: ('A' for Active; 'I' for Inactive)
REMARK    1  A    between atoms: C_7  and  C_17
REMARK                            x       y       z     vdW  Elec       q    Type
REMARK                         _______ _______ _______ _____ _____    ______ ____
ROOT
ATOM      1  C   UNL     1       0.041   1.823  -0.002  0.00  0.00    +0.022 A 
ATOM      2  C   UNL     1       1.217   2.485   0.026  0.00  0.00    +0.027 A 
ATOM      3  C   UNL     1       2.446   1.773  -0.006  0.00  0.00    +0.043 A 
ATOM      4  N   UNL     1       3.694   2.184   0.035  0.00  0.00    -0.376 N 
ATOM      5  C   UNL     1       4.567   1.026  -0.124  0.00  0.00    +0.128 C 
ATOM      6  C   UNL     1       5.570   0.881   1.024  0.00  0.00    +0.121 C 
ATOM      7  N   UNL     1       6.192  -0.449   0.931  0.00  0.00    -0.307 NA
ATOM      8  C   UNL     1       5.253  -1.545   1.185  0.00  0.00    +0.086 C 
ATOM      9  C   UNL     1       4.181  -1.589   0.081  0.00  0.00    +0.048 C 
ATOM     10  C   UNL     1       3.645  -0.182  -0.070  0.00  0.00    -0.035 C 
ATOM     11  C   UNL     1       2.393   0.291  -0.061  0.00  0.00    +0.001 A 
ATOM     12  C   UNL     1       1.072  -0.350  -0.093  0.00  0.00    +0.030 A 
ATOM     13  C   UNL     1      -0.037   0.424  -0.063  0.00  0.00    +0.042 A 
ATOM     14 CL   UNL     1      -1.598  -0.335  -0.101  0.00  0.00    -0.084 Cl
ATOM     15  H   UNL     1       6.657  -0.569   0.043  0.00  0.00    +0.123 HD
ATOM     16  H   UNL     1       3.986   3.102   0.150  0.00  0.00    +0.160 HD
ENDROOT
BRANCH   6  17
ATOM     17  C   UNL     1       4.853   1.016   2.343  0.00  0.00    +0.102 A 
ATOM     18  C   UNL     1       3.766   0.210   2.635  0.00  0.00    +0.282 A 
ATOM     19  N   UNL     1       3.144   0.368   3.806  0.00  0.00    -0.185 NA
ATOM     20  C   UNL     1       3.549   1.257   4.683  0.00  0.00    +0.175 A 
ATOM     21  N   UNL     1       4.635   2.063   4.484  0.00  0.00    -0.287 N 
ATOM     22  C   UNL     1       5.282   1.950   3.284  0.00  0.00    +0.263 A 
ATOM     23  O   UNL     1       6.234   2.671   3.036  0.00  0.00    -0.267 OA
ATOM     24  C   UNL     1       5.027   2.960   5.577  0.00  0.00    +0.138 C 
ATOM     25  C   UNL     1       3.856   3.238   6.549  0.00  0.00    +0.099 C 
ATOM     26  S   UNL     1       2.893   1.691   6.283  0.00  0.00    -0.086 S 
ATOM     27  O   UNL     1       3.342  -0.722   1.749  0.00  0.00    -0.265 OA
ENDBRANCH   6  17
TORSDOF 1
