REMARK  Name = ZINC30495190
REMARK  11 active torsions:
REMARK  status: ('A' for Active; 'I' for Inactive)
REMARK    1  A    between atoms: C_1  and  C_2
REMARK    2  A    between atoms: C_2  and  C_3
REMARK    3  A    between atoms: C_3  and  N_4
REMARK    4  A    between atoms: N_4  and  C_5
REMARK    5  A    between atoms: N_4  and  S_18
REMARK    6  A    between atoms: C_5  and  C_6
REMARK    7  A    between atoms: N_8  and  C_9
REMARK    8  A    between atoms: S_18  and  C_21
REMARK    9  A    between atoms: C_23  and  N_29
REMARK   10  A    between atoms: C_26  and  O_27
REMARK   11  A    between atoms: O_27  and  C_28
REMARK                            x       y       z     vdW  Elec       q    Type
REMARK                         _______ _______ _______ _____ _____    ______ ____
ROOT
ATOM      1  N   UNL     1       3.669   6.183   0.312  0.00  0.00    -0.168 NA
ENDROOT
BRANCH   1   2
ATOM      2  S   UNL     1       4.354   6.469   1.792  0.00  0.00    +0.065 S 
ATOM      3  O   UNL     1       5.383   7.427   1.585  0.00  0.00    -0.153 OA
ATOM      4  O   UNL     1       3.283   6.686   2.700  0.00  0.00    -0.153 OA
BRANCH   2   5
ATOM      5  C   UNL     1       5.148   4.979   2.296  0.00  0.00    +0.149 A 
ATOM      6  C   UNL     1       6.522   4.938   2.431  0.00  0.00    +0.065 A 
ATOM      7  C   UNL     1       7.144   3.771   2.832  0.00  0.00    +0.128 A 
ATOM      8  C   UNL     1       6.395   2.637   3.087  0.00  0.00    +0.036 A 
ATOM      9  C   UNL     1       5.021   2.671   2.948  0.00  0.00    +0.050 A 
ATOM     10  C   UNL     1       4.393   3.843   2.551  0.00  0.00    +0.146 A 
BRANCH   7  11
ATOM     11  N   UNL     1       8.616   3.732   2.981  0.00  0.00    +0.056 N 
ATOM     12  O   UNL     1       9.166   2.702   3.329  0.00  0.00    -0.126 OA
ATOM     13  O   UNL     1       9.278   4.730   2.756  0.00  0.00    -0.126 OA
ENDBRANCH   7  11
BRANCH  10  14
ATOM     14  O   UNL     1       3.042   3.878   2.414  0.00  0.00    -0.493 OA
ATOM     15  C   UNL     1       2.329   2.672   2.694  0.00  0.00    +0.277 C 
ENDBRANCH  10  14
ENDBRANCH   2   5
ENDBRANCH   1   2
BRANCH   1  16
ATOM     16  C   UNL     1       4.436   6.434  -0.911  0.00  0.00    +0.110 C 
BRANCH  16  18
ATOM     17  C   UNL     1       4.913   8.095  -2.715  0.00  0.00    +0.005 C 
ATOM     18  C   UNL     1       4.112   7.833  -1.438  0.00  0.00    +0.014 C 
ENDBRANCH  16  18
ENDBRANCH   1  16
BRANCH   1  19
ATOM     19  C   UNL     1       2.296   5.679   0.225  0.00  0.00    +0.205 C 
BRANCH  19  20
ATOM     20  C   UNL     1       2.319   4.177   0.104  0.00  0.00    +0.233 C 
ATOM     21  O   UNL     1       3.378   3.586   0.091  0.00  0.00    -0.274 OA
ATOM     22  N   UNL     1       1.163   3.491   0.009  0.00  0.00    -0.282 N 
ATOM     23  H   UNL     1       0.206   4.031  -0.046  0.00  0.00    +0.155 HD
BRANCH  22  24
ATOM     24  C   UNL     1       1.180   2.090  -0.018  0.00  0.00    +0.072 A 
ATOM     25  C   UNL     1       2.222   1.420  -0.644  0.00  0.00    +0.029 A 
ATOM     26  C   UNL     1       2.238   0.038  -0.671  0.00  0.00    +0.043 A 
ATOM     27  C   UNL     1       1.216  -0.680  -0.075  0.00  0.00    +0.161 A 
ATOM     28  C   UNL     1       0.173  -0.015   0.551  0.00  0.00    +0.195 A 
ATOM     29  C   UNL     1       0.153   1.370   0.581  0.00  0.00    +0.182 A 
ATOM     30  F   UNL     1      -0.865   2.019   1.186  0.00  0.00    -0.200 F 
ATOM     31  F   UNL     1      -0.824  -0.717   1.133  0.00  0.00    -0.199 F 
ATOM     32  F   UNL     1       1.234  -2.030  -0.103  0.00  0.00    -0.202 F 
ENDBRANCH  22  24
ENDBRANCH  19  20
ENDBRANCH   1  19
TORSDOF 9
