REMARK  Name = ZINC63362997
REMARK  8 active torsions:
REMARK  status: ('A' for Active; 'I' for Inactive)
REMARK    1  A    between atoms: C_1  and  C_2
REMARK    2  A    between atoms: C_2  and  O_3
REMARK    3  A    between atoms: O_3  and  C_4
REMARK    4  A    between atoms: C_7  and  N_10
REMARK    5  A    between atoms: C_26  and  C_31
REMARK    6  A    between atoms: C_34  and  C_37
REMARK    7  A    between atoms: C_37  and  C_38
REMARK    8  A    between atoms: C_37  and  C_39
REMARK                            x       y       z     vdW  Elec       q    Type
REMARK                         _______ _______ _______ _____ _____    ______ ____
ROOT
ATOM      1  N   UNL     1       0.926  -5.946  -1.949  0.00  0.00    -0.193 N 
ATOM      2  C   UNL     1       1.465  -6.547  -3.030  0.00  0.00    +0.248 C 
ATOM      3  O   UNL     1       1.845  -6.015  -4.051  0.00  0.00    -0.273 OA
ATOM      4  C   UNL     1       1.496  -8.024  -2.703  0.00  0.00    +0.169 C 
ATOM      5  C   UNL     1       0.684  -8.811  -3.748  0.00  0.00    +0.065 C 
ATOM      6  C   UNL     1       0.262 -10.097  -3.078  0.00  0.00    -0.034 C 
ATOM      7  C   UNL     1       0.430 -11.362  -3.449  0.00  0.00    -0.001 A 
ATOM      8  C   UNL     1       0.991 -11.956  -4.673  0.00  0.00    +0.010 A 
ATOM      9  C   UNL     1       1.030 -13.315  -4.717  0.00  0.00    +0.001 A 
ATOM     10  C   UNL     1       0.572 -14.131  -3.678  0.00  0.00    +0.002 A 
ATOM     11  C   UNL     1       0.033 -13.670  -2.521  0.00  0.00    +0.026 A 
ATOM     12  C   UNL     1      -0.067 -12.257  -2.360  0.00  0.00    +0.043 A 
ATOM     13  N   UNL     1      -0.549 -11.554  -1.379  0.00  0.00    -0.375 N 
ATOM     14  C   UNL     1      -0.471 -10.138  -1.743  0.00  0.00    +0.131 C 
ATOM     15  C   UNL     1       0.381  -9.345  -0.741  0.00  0.00    +0.135 C 
ATOM     16  N   UNL     1       0.800  -8.098  -1.403  0.00  0.00    -0.264 N 
ATOM     17  C   UNL     1       0.582  -6.836  -1.008  0.00  0.00    +0.317 C 
ATOM     18  O   UNL     1       0.122  -6.534   0.075  0.00  0.00    -0.252 OA
ATOM     19  H   UNL     1      -0.902 -11.908  -0.547  0.00  0.00    +0.160 HD
ENDROOT
BRANCH   1  23
ATOM     20  C   UNL     1       0.412  -1.823  -1.574  0.00  0.00    +0.121 A 
ATOM     21  C   UNL     1      -0.089  -2.675  -0.601  0.00  0.00    +0.047 A 
ATOM     22  C   UNL     1       0.081  -4.040  -0.725  0.00  0.00    +0.027 A 
ATOM     23  C   UNL     1       0.753  -4.559  -1.823  0.00  0.00    +0.046 A 
ATOM     24  C   UNL     1       1.254  -3.705  -2.796  0.00  0.00    +0.027 A 
ATOM     25  C   UNL     1       1.079  -2.341  -2.674  0.00  0.00    +0.047 A 
BRANCH  20  26
ATOM     26  O   UNL     1       0.244  -0.479  -1.452  0.00  0.00    -0.492 OA
BRANCH  26  28
ATOM     27  C   UNL     1      -0.542   1.512  -0.330  0.00  0.00    +0.048 C 
ATOM     28  C   UNL     1      -0.452  -0.015  -0.293  0.00  0.00    +0.225 C 
ENDBRANCH  26  28
ENDBRANCH  20  26
ENDBRANCH   1  23
BRANCH  15  29
ATOM     29  C   UNL     1      -0.431  -9.030   0.489  0.00  0.00    -0.025 A 
ATOM     30  C   UNL     1      -1.610  -8.317   0.375  0.00  0.00    +0.006 A 
ATOM     31  C   UNL     1      -2.355  -8.028   1.503  0.00  0.00    +0.004 A 
ATOM     32  C   UNL     1      -1.921  -8.453   2.745  0.00  0.00    -0.045 A 
ATOM     33  C   UNL     1      -0.743  -9.167   2.859  0.00  0.00    +0.004 A 
ATOM     34  C   UNL     1      -0.000  -9.459   1.730  0.00  0.00    +0.006 A 
BRANCH  32  35
ATOM     35  C   UNL     1      -2.732  -8.137   3.975  0.00  0.00    +0.013 C 
ATOM     36  C   UNL     1      -3.155  -9.441   4.656  0.00  0.00    +0.012 C 
ATOM     37  C   UNL     1      -1.888  -7.306   4.943  0.00  0.00    +0.012 C 
ENDBRANCH  32  35
ENDBRANCH  15  29
TORSDOF 5
