REMARK  Name = ZINC59168655
REMARK  6 active torsions:
REMARK  status: ('A' for Active; 'I' for Inactive)
REMARK    1  A    between atoms: C_1  and  C_2
REMARK    2  A    between atoms: C_2  and  O_3
REMARK    3  A    between atoms: O_3  and  C_4
REMARK    4  A    between atoms: C_8  and  C_11
REMARK    5  A    between atoms: C_9  and  O_10
REMARK    6  A    between atoms: C_15  and  C_20
REMARK                            x       y       z     vdW  Elec       q    Type
REMARK                         _______ _______ _______ _____ _____    ______ ____
ROOT
ATOM      1  C   UNL     1      -4.316  -4.377   0.007  0.00  0.00    +0.186 C 
ATOM      2  N   UNL     1      -4.269  -5.859   0.127  0.00  0.00    -0.263 N 
ATOM      3  N   UNL     1      -5.218  -6.525  -0.590  0.00  0.00    -0.220 N 
ATOM      4  C   UNL     1      -5.820  -7.779  -0.572  0.00  0.00    +0.183 A 
ATOM      5  N   UNL     1      -6.654  -7.837  -1.580  0.00  0.00    -0.127 NA
ATOM      6  N   UNL     1      -6.642  -6.723  -2.224  0.00  0.00    -0.120 NA
ATOM      7  C   UNL     1      -5.812  -5.900  -1.657  0.00  0.00    +0.211 A 
ATOM      8  S   UNL     1      -5.110  -4.262  -1.655  0.00  0.00    -0.056 S 
ATOM      9  H   UNL     1      -3.346  -6.209  -0.082  0.00  0.00    +0.168 HD
ENDROOT
BRANCH   4  10
ATOM     10  C   UNL     1      -5.564  -8.855   0.410  0.00  0.00    +0.039 A 
ATOM     11  C   UNL     1      -4.647  -8.657   1.444  0.00  0.00    +0.013 A 
ATOM     12  C   UNL     1      -4.413  -9.664   2.356  0.00  0.00    +0.001 A 
ATOM     13  C   UNL     1      -5.084 -10.870   2.249  0.00  0.00    +0.001 A 
ATOM     14  C   UNL     1      -5.993 -11.074   1.227  0.00  0.00    +0.021 A 
ATOM     15  C   UNL     1      -6.241 -10.072   0.309  0.00  0.00    +0.052 A 
ATOM     16 CL   UNL     1      -7.388 -10.327  -0.969  0.00  0.00    -0.083 Cl
ENDBRANCH   4  10
BRANCH   1  21
ATOM     17  C   UNL     1      -1.468  -1.922  -0.429  0.00  0.00    +0.162 A 
ATOM     18  C   UNL     1      -0.389  -2.680  -0.000  0.00  0.00    +0.049 A 
ATOM     19  C   UNL     1      -0.584  -3.979   0.429  0.00  0.00    +0.004 A 
ATOM     20  C   UNL     1      -1.854  -4.527   0.431  0.00  0.00    +0.010 A 
ATOM     21  C   UNL     1      -2.934  -3.777   0.004  0.00  0.00    +0.029 A 
ATOM     22  C   UNL     1      -2.746  -2.471  -0.421  0.00  0.00    +0.164 A 
BRANCH  22  23
ATOM     23  O   UNL     1      -3.809  -1.730  -0.836  0.00  0.00    -0.503 OA
ATOM     24  H   UNL     1      -3.996  -1.806  -1.781  0.00  0.00    +0.292 HD
ENDBRANCH  22  23
BRANCH  17  25
ATOM     25  O   UNL     1      -1.278  -0.643  -0.851  0.00  0.00    -0.489 OA
BRANCH  25  27
ATOM     26  C   UNL     1       0.077   1.298  -1.336  0.00  0.00    +0.048 C 
ATOM     27  C   UNL     1       0.062  -0.146  -0.831  0.00  0.00    +0.226 C 
ENDBRANCH  25  27
ENDBRANCH  17  25
ENDBRANCH   1  21
TORSDOF 5
