REMARK  Name = ZINC13499752
REMARK  9 active torsions:
REMARK  status: ('A' for Active; 'I' for Inactive)
REMARK    1  A    between atoms: C_1  and  C_2
REMARK    2  A    between atoms: C_2  and  C_3
REMARK    3  A    between atoms: C_11  and  C_15
REMARK    4  A    between atoms: C_18  and  S_21
REMARK    5  A    between atoms: S_21  and  C_22
REMARK    6  A    between atoms: C_22  and  C_23
REMARK    7  A    between atoms: N_25  and  C_26
REMARK    8  A    between atoms: C_29  and  C_32
REMARK    9  A    between atoms: C_32  and  C_34
REMARK                            x       y       z     vdW  Elec       q    Type
REMARK                         _______ _______ _______ _____ _____    ______ ____
ROOT
ATOM      1  C   UNL     1       0.282   4.234  -0.731  0.00  0.00    +0.118 A 
ATOM      2  N   UNL     1       1.320   3.456  -0.854  0.00  0.00    -0.226 NA
ATOM      3  C   UNL     1       1.229   2.131  -0.780  0.00  0.00    +0.114 A 
ATOM      4  C   UNL     1       0.010   1.473  -0.562  0.00  0.00    +0.056 A 
ATOM      5  C   UNL     1       0.051   0.057  -0.504  0.00  0.00    -0.024 A 
ATOM      6  C   UNL     1       1.253  -0.544  -0.662  0.00  0.00    -0.004 A 
ATOM      7  S   UNL     1       2.392   0.794  -0.898  0.00  0.00    -0.073 S 
ATOM      8  C   UNL     1       1.548  -2.011  -0.641  0.00  0.00    +0.046 C 
ATOM      9  C   UNL     1       0.335  -2.741  -0.046  0.00  0.00    -0.009 C 
ATOM     10  C   UNL     1      -0.934  -2.214  -0.722  0.00  0.00    +0.008 C 
ATOM     11  C   UNL     1      -1.207  -0.778  -0.273  0.00  0.00    +0.037 C 
ATOM     12  C   UNL     1       0.467  -4.244  -0.294  0.00  0.00    +0.008 C 
ATOM     13  C   UNL     1      -1.163   2.365  -0.427  0.00  0.00    +0.173 A 
ATOM     14  N   UNL     1      -0.966   3.726  -0.516  0.00  0.00    -0.257 N 
ATOM     15  C   UNL     1      -2.204   4.283  -0.351  0.00  0.00    +0.198 A 
ATOM     16  N   UNL     1      -3.054   3.298  -0.174  0.00  0.00    -0.122 NA
ATOM     17  N   UNL     1      -2.440   2.166  -0.216  0.00  0.00    -0.128 NA
ENDROOT
BRANCH   1  19
ATOM     18  C   UNL     1       0.307   6.167  -2.284  0.00  0.00    +0.012 C 
ATOM     19  C   UNL     1       0.464   5.727  -0.827  0.00  0.00    +0.071 C 
ENDBRANCH   1  19
BRANCH  15  20
ATOM     20  S   UNL     1      -2.587   6.003  -0.374  0.00  0.00    -0.076 S 
BRANCH  20  21
ATOM     21  C   UNL     1      -4.380   6.056  -0.100  0.00  0.00    +0.173 C 
BRANCH  21  22
ATOM     22  C   UNL     1      -4.845   7.490  -0.097  0.00  0.00    +0.227 C 
ATOM     23  O   UNL     1      -4.046   8.387  -0.262  0.00  0.00    -0.275 OA
ATOM     24  N   UNL     1      -6.149   7.775   0.091  0.00  0.00    -0.285 N 
ATOM     25  H   UNL     1      -6.799   7.057   0.146  0.00  0.00    +0.155 HD
BRANCH  24  26
ATOM     26  C   UNL     1      -6.563   9.100   0.204  0.00  0.00    +0.033 A 
ATOM     27  C   UNL     1      -7.806   9.483  -0.292  0.00  0.00    +0.024 A 
ATOM     28  C   UNL     1      -8.220  10.785  -0.178  0.00  0.00    +0.013 A 
ATOM     29  C   UNL     1      -7.385  11.733   0.429  0.00  0.00    +0.017 A 
ATOM     30  C   UNL     1      -6.133  11.343   0.921  0.00  0.00    +0.013 A 
ATOM     31  C   UNL     1      -5.730  10.038   0.808  0.00  0.00    +0.024 A 
BRANCH  29  32
ATOM     32  C   UNL     1      -7.822  13.130   0.548  0.00  0.00    +0.160 C 
ATOM     33  O   UNL     1      -7.098  13.948   1.074  0.00  0.00    -0.292 OA
ATOM     34  C   UNL     1      -9.169  13.546   0.018  0.00  0.00    +0.091 C 
ENDBRANCH  29  32
ENDBRANCH  24  26
ENDBRANCH  21  22
ENDBRANCH  20  21
ENDBRANCH  15  20
TORSDOF 6
