REMARK  Name = ZINC17005487
REMARK  6 active torsions:
REMARK  status: ('A' for Active; 'I' for Inactive)
REMARK    1  A    between atoms: C_1  and  C_2
REMARK    2  A    between atoms: C_2  and  C_30
REMARK    3  A    between atoms: C_10  and  C_17
REMARK    4  A    between atoms: N_13  and  O_14
REMARK    5  A    between atoms: C_20  and  C_29
REMARK    6  A    between atoms: N_25  and  O_26
REMARK                            x       y       z     vdW  Elec       q    Type
REMARK                         _______ _______ _______ _____ _____    ______ ____
ROOT
ATOM      1  C   UNL     1      -1.915   4.242  -5.839  0.00  0.00    +0.024 C 
ATOM      2  C   UNL     1      -1.953   2.782  -5.382  0.00  0.00    +0.051 C 
ATOM      3  C   UNL     1      -1.265   2.624  -4.034  0.00  0.00    -0.054 C 
ATOM      4  C   UNL     1      -1.923   3.008  -2.975  0.00  0.00    -0.026 C 
ATOM      5  C   UNL     1      -1.433   2.787  -1.565  0.00  0.00    +0.031 C 
ATOM      6  C   UNL     1      -0.496   1.577  -1.622  0.00  0.00    +0.001 C 
ATOM      7  C   UNL     1       0.653   1.971  -2.561  0.00  0.00    +0.003 C 
ATOM      8  C   UNL     1       0.102   1.998  -3.988  0.00  0.00    -0.001 C 
ATOM      9  C   UNL     1       0.086   0.599  -4.591  0.00  0.00    +0.073 C 
ATOM     10  C   UNL     1      -0.729   0.600  -5.865  0.00  0.00    +0.124 C 
ATOM     11  N   UNL     1      -0.990  -0.505  -6.490  0.00  0.00    -0.089 NA
ATOM     12  C   UNL     1      -1.220   1.898  -6.376  0.00  0.00    +0.190 C 
ATOM     13  O   UNL     1      -1.050   2.237  -7.529  0.00  0.00    -0.290 OA
ATOM     14  C   UNL     1       1.069   2.866  -4.802  0.00  0.00    +0.016 C 
ATOM     15  C   UNL     1       1.822   1.014  -2.410  0.00  0.00    +0.005 C 
ATOM     16  C   UNL     1       2.416   1.028  -0.995  0.00  0.00    +0.015 C 
ATOM     17  C   UNL     1       1.444   1.620  -0.003  0.00  0.00    +0.036 C 
ATOM     18  C   UNL     1       0.015   1.115  -0.299  0.00  0.00    +0.012 C 
ATOM     19  C   UNL     1      -0.721   1.589   0.963  0.00  0.00    +0.067 C 
ATOM     20  C   UNL     1       0.286   1.236   2.060  0.00  0.00    +0.123 C 
ATOM     21  N   UNL     1       0.013   1.041   3.310  0.00  0.00    -0.089 NA
ATOM     22  C   UNL     1       1.623   1.135   1.425  0.00  0.00    +0.186 C 
ATOM     23  O   UNL     1       2.653   0.749   1.923  0.00  0.00    -0.290 OA
ATOM     24  C   UNL     1       1.548   3.143   0.038  0.00  0.00    +0.020 C 
ATOM     25  C   UNL     1      -3.413   2.314  -5.288  0.00  0.00    +0.024 C 
ENDROOT
BRANCH  11  26
ATOM     26  O   UNL     1      -1.755  -0.480  -7.681  0.00  0.00    -0.409 OA
ATOM     27  H   UNL     1      -1.897  -1.352  -8.075  0.00  0.00    +0.328 HD
ENDBRANCH  11  26
BRANCH  21  28
ATOM     28  O   UNL     1       1.045   0.695   4.215  0.00  0.00    -0.409 OA
ATOM     29  H   UNL     1       0.744   0.570   5.126  0.00  0.00    +0.328 HD
ENDBRANCH  21  28
TORSDOF 2
