REMARK  Name = ZINC40112192
REMARK  8 active torsions:
REMARK  status: ('A' for Active; 'I' for Inactive)
REMARK    1  A    between atoms: C_3  and  C_6
REMARK    2  A    between atoms: C_8  and  C_17
REMARK    3  A    between atoms: N_12  and  C_13
REMARK    4  A    between atoms: C_13  and  C_14
REMARK    5  A    between atoms: C_14  and  O_15
REMARK    6  A    between atoms: C_17  and  C_19
REMARK    7  A    between atoms: C_22  and  S_25
REMARK    8  A    between atoms: S_25  and  N_28
REMARK                            x       y       z     vdW  Elec       q    Type
REMARK                         _______ _______ _______ _____ _____    ______ ____
ROOT
ATOM      1  C   UNL     1       3.728   1.221   2.547  0.00  0.00    +0.195 C 
ATOM      2  O   UNL     1       4.381   1.084   3.564  0.00  0.00    -0.287 OA
ENDROOT
BRANCH   1   4
ATOM      3  C   UNL     1       2.799  -0.672   0.926  0.00  0.00    +0.180 C 
ATOM      4  C   UNL     1       3.869   0.257   1.451  0.00  0.00    +0.079 C 
ATOM      5  C   UNL     1       4.981   0.029   0.714  0.00  0.00    +0.249 C 
ATOM      6  C   UNL     1       4.693  -1.021  -0.286  0.00  0.00    +0.288 C 
ATOM      7  O   UNL     1       5.491  -1.448  -1.097  0.00  0.00    -0.266 OA
ATOM      8  N   UNL     1       3.417  -1.433  -0.166  0.00  0.00    -0.278 N 
ATOM      9  O   UNL     1       6.167   0.661   0.868  0.00  0.00    -0.282 OA
BRANCH   3  12
ATOM     10  C   UNL     1       1.173  -2.587   3.622  0.00  0.00    +0.041 A 
ATOM     11  C   UNL     1       1.192  -1.512   2.704  0.00  0.00    +0.047 A 
ATOM     12  C   UNL     1       2.344  -1.607   2.016  0.00  0.00    +0.130 A 
ATOM     13  O   UNL     1       3.020  -2.677   2.466  0.00  0.00    -0.466 OA
ATOM     14  C   UNL     1       2.314  -3.275   3.440  0.00  0.00    +0.195 A 
ENDBRANCH   3  12
BRANCH   8  15
ATOM     15  C   UNL     1       2.761  -2.460  -0.980  0.00  0.00    +0.137 C 
BRANCH  15  16
ATOM     16  C   UNL     1       2.117  -1.806  -2.204  0.00  0.00    +0.175 C 
BRANCH  16  17
ATOM     17  O   UNL     1       3.135  -1.254  -3.041  0.00  0.00    -0.393 OA
ATOM     18  H   UNL     1       2.798  -0.823  -3.838  0.00  0.00    +0.209 HD
ENDBRANCH  16  17
ENDBRANCH  15  16
ENDBRANCH   8  15
ENDBRANCH   1   4
BRANCH   1  19
ATOM     19  C   UNL     1       2.794   2.359   2.415  0.00  0.00    +0.022 A 
ATOM     20  C   UNL     1       2.125   2.582   1.210  0.00  0.00    +0.013 A 
ATOM     21  C   UNL     1       1.254   3.645   1.094  0.00  0.00    +0.029 A 
ATOM     22  C   UNL     1       1.044   4.491   2.169  0.00  0.00    +0.106 A 
ATOM     23  C   UNL     1       1.704   4.277   3.366  0.00  0.00    +0.029 A 
ATOM     24  C   UNL     1       2.573   3.213   3.498  0.00  0.00    +0.013 A 
BRANCH  22  25
ATOM     25  S   UNL     1      -0.069   5.848   2.012  0.00  0.00    +0.061 S 
ATOM     26  O   UNL     1       0.322   6.808   2.984  0.00  0.00    -0.153 OA
ATOM     27  O   UNL     1      -0.144   6.154   0.626  0.00  0.00    -0.153 OA
BRANCH  25  28
ATOM     28  N   UNL     1      -1.569   5.306   2.459  0.00  0.00    -0.177 NA
ATOM     29  C   UNL     1      -2.431   4.740   1.446  0.00  0.00    +0.109 C 
ATOM     30  C   UNL     1      -3.285   5.862   0.805  0.00  0.00    +0.017 C 
ATOM     31  C   UNL     1      -4.301   6.337   1.756  0.00  0.00    +0.001 C 
ATOM     32  C   UNL     1      -3.731   6.972   3.021  0.00  0.00    +0.001 C 
ATOM     33  C   UNL     1      -3.426   5.892   4.030  0.00  0.00    +0.017 C 
ATOM     34  C   UNL     1      -1.967   5.415   3.876  0.00  0.00    +0.109 C 
ENDBRANCH  25  28
ENDBRANCH  22  25
ENDBRANCH   1  19
TORSDOF 8
