REMARK  Name = ZINC17063551
REMARK  3 active torsions:
REMARK  status: ('A' for Active; 'I' for Inactive)
REMARK    1  A    between atoms: C_1  and  N_2
REMARK    2  A    between atoms: N_2  and  C_3
REMARK    3  A    between atoms: N_2  and  C_9
REMARK                            x       y       z     vdW  Elec       q    Type
REMARK                         _______ _______ _______ _____ _____    ______ ____
ROOT
ATOM      1  C   UNL     1       0.062   3.825  -0.494  0.00  0.00    +0.044 A 
ATOM      2  C   UNL     1       1.304   3.168  -0.521  0.00  0.00    +0.093 A 
ATOM      3  C   UNL     1       1.390   1.913  -1.038  0.00  0.00    +0.253 A 
ATOM      4  N   UNL     1       0.286   1.285  -1.531  0.00  0.00    -0.290 N 
ATOM      5  H   UNL     1       0.369   0.269  -1.943  0.00  0.00    +0.172 HD
ATOM      6  C   UNL     1      -0.917   1.889  -1.524  0.00  0.00    +0.253 A 
ATOM      7  O   UNL     1      -1.892   1.308  -1.977  0.00  0.00    -0.268 OA
ATOM      8  C   UNL     1      -1.056   3.173  -0.999  0.00  0.00    +0.093 A 
ATOM      9  O   UNL     1       2.586   1.282  -1.064  0.00  0.00    -0.268 OA
ENDROOT
BRANCH   1  11
ATOM     10  C   UNL     1       1.109   5.730   0.675  0.00  0.00    +0.135 C 
ATOM     11  N   UNL     1      -0.046   5.103   0.029  0.00  0.00    -0.303 N 
BRANCH  11  12
ATOM     12  C   UNL     1      -1.257   5.795  -0.062  0.00  0.00    +0.034 A 
ATOM     13  C   UNL     1      -1.523   6.591  -1.168  0.00  0.00    +0.023 A 
ATOM     14  C   UNL     1      -2.723   7.270  -1.256  0.00  0.00    +0.002 A 
ATOM     15  C   UNL     1      -3.654   7.166  -0.240  0.00  0.00    +0.000 A 
ATOM     16  C   UNL     1      -3.390   6.378   0.866  0.00  0.00    +0.002 A 
ATOM     17  C   UNL     1      -2.195   5.693   0.958  0.00  0.00    +0.023 A 
ENDBRANCH  11  12
ENDBRANCH   1  11
TORSDOF 2
