REMARK  Name = ZINC01108315
REMARK  8 active torsions:
REMARK  status: ('A' for Active; 'I' for Inactive)
REMARK    1  A    between atoms: C_1  and  C_2
REMARK    2  A    between atoms: C_2  and  C_4
REMARK    3  A    between atoms: C_2  and  C_13
REMARK    4  A    between atoms: C_7  and  N_10
REMARK    5  A    between atoms: N_15  and  C_16
REMARK    6  A    between atoms: C_19  and  O_22
REMARK    7  A    between atoms: O_22  and  C_23
REMARK    8  A    between atoms: C_23  and  C_24
REMARK                            x       y       z     vdW  Elec       q    Type
REMARK                         _______ _______ _______ _____ _____    ______ ____
ROOT
ATOM      1  C   UNL     1      -3.809   1.718   0.837  0.00  0.00    +0.224 C 
ATOM      2  O   UNL     1      -3.829   2.856   1.259  0.00  0.00    -0.275 OA
ATOM      3  N   UNL     1      -4.503   0.753   1.471  0.00  0.00    -0.285 N 
ATOM      4  H   UNL     1      -4.551  -0.139   1.092  0.00  0.00    +0.155 HD
ENDROOT
BRANCH   3   5
ATOM      5  C   UNL     1      -5.157   1.036   2.678  0.00  0.00    +0.034 A 
ATOM      6  C   UNL     1      -4.609   1.953   3.565  0.00  0.00    +0.027 A 
ATOM      7  C   UNL     1      -5.256   2.236   4.752  0.00  0.00    +0.047 A 
ATOM      8  C   UNL     1      -6.448   1.597   5.062  0.00  0.00    +0.121 A 
ATOM      9  C   UNL     1      -6.993   0.677   4.178  0.00  0.00    +0.047 A 
ATOM     10  C   UNL     1      -6.349   0.397   2.989  0.00  0.00    +0.027 A 
BRANCH   8  11
ATOM     11  O   UNL     1      -7.082   1.872   6.233  0.00  0.00    -0.487 OA
BRANCH  11  12
ATOM     12  C   UNL     1      -6.464   2.829   7.096  0.00  0.00    +0.264 C 
BRANCH  12  13
ATOM     13  C   UNL     1      -7.303   3.003   8.336  0.00  0.00    -0.010 A 
ATOM     14  C   UNL     1      -8.295   3.965   8.369  0.00  0.00    +0.007 A 
ATOM     15  C   UNL     1      -9.068   4.121   9.504  0.00  0.00    +0.000 A 
ATOM     16  C   UNL     1      -8.842   3.323  10.610  0.00  0.00    +0.000 A 
ATOM     17  C   UNL     1      -7.846   2.365  10.578  0.00  0.00    +0.000 A 
ATOM     18  C   UNL     1      -7.077   2.205   9.441  0.00  0.00    +0.007 A 
ENDBRANCH  12  13
ENDBRANCH  11  12
ENDBRANCH   8  11
ENDBRANCH   3   5
BRANCH   1  20
ATOM     19  C   UNL     1      -3.942   0.832  -1.475  0.00  0.00    +0.022 C 
ATOM     20  C   UNL     1      -3.009   1.386  -0.396  0.00  0.00    +0.102 C 
BRANCH  20  21
ATOM     21  C   UNL     1      -2.333   2.632  -0.907  0.00  0.00    -0.036 A 
ATOM     22  C   UNL     1      -0.955   2.683  -0.998  0.00  0.00    +0.006 A 
ATOM     23  C   UNL     1      -0.335   3.823  -1.472  0.00  0.00    +0.033 A 
ATOM     24  C   UNL     1      -1.093   4.915  -1.851  0.00  0.00    +0.126 A 
ATOM     25  C   UNL     1      -2.471   4.866  -1.756  0.00  0.00    +0.033 A 
ATOM     26  C   UNL     1      -3.091   3.726  -1.281  0.00  0.00    +0.006 A 
BRANCH  24  27
ATOM     27  N   UNL     1      -0.430   6.137  -2.360  0.00  0.00    +0.056 N 
ATOM     28  O   UNL     1       0.785   6.180  -2.445  0.00  0.00    -0.126 OA
ATOM     29  O   UNL     1      -1.098   7.099  -2.694  0.00  0.00    -0.126 OA
ENDBRANCH  24  27
ENDBRANCH  20  21
ENDBRANCH   1  20
TORSDOF 7
