REMARK  Name = ZINC62811827
REMARK  3 active torsions:
REMARK  status: ('A' for Active; 'I' for Inactive)
REMARK    1  A    between atoms: C_1  and  C_2
REMARK    2  A    between atoms: C_12  and  C_14
REMARK    3  A    between atoms: C_15  and  N_20
REMARK                            x       y       z     vdW  Elec       q    Type
REMARK                         _______ _______ _______ _____ _____    ______ ____
ROOT
ATOM      1  C   UNL     1      -0.025   1.014  -0.480  0.00  0.00    +0.033 C 
ATOM      2  C   UNL     1       0.016  -0.483  -0.172  0.00  0.00    +0.104 C 
ATOM      3  C   UNL     1       0.770  -1.219  -1.278  0.00  0.00    -0.017 A 
ATOM      4  C   UNL     1       0.239  -1.439  -2.548  0.00  0.00    +0.013 A 
ATOM      5  C   UNL     1       0.966  -2.095  -3.481  0.00  0.00    +0.046 A 
ATOM      6  S   UNL     1       2.475  -2.446  -2.592  0.00  0.00    -0.101 S 
ATOM      7  C   UNL     1       2.023  -1.697  -1.049  0.00  0.00    -0.004 A 
ATOM      8  C   UNL     1       2.823  -1.611   0.210  0.00  0.00    +0.062 C 
ATOM      9  C   UNL     1       2.195  -0.544   1.121  0.00  0.00    +0.114 C 
ATOM     10  N   UNL     1       0.733  -0.712   1.090  0.00  0.00    -0.289 N 
ATOM     11  C   UNL     1       0.062  -1.070   2.203  0.00  0.00    +0.269 C 
ATOM     12  O   UNL     1       0.672  -1.365   3.212  0.00  0.00    -0.268 OA
ENDROOT
BRANCH  11  13
ATOM     13  C   UNL     1      -1.412  -1.105   2.195  0.00  0.00    +0.168 A 
ATOM     14  C   UNL     1      -2.250  -1.573   3.240  0.00  0.00    +0.075 A 
ATOM     15  C   UNL     1      -3.521  -1.411   2.785  0.00  0.00    +0.128 A 
ATOM     16  N   UNL     1      -3.433  -0.875   1.539  0.00  0.00    -0.282 N 
ATOM     17  H   UNL     1      -4.190  -0.653   0.976  0.00  0.00    +0.188 HD
ATOM     18  N   UNL     1      -2.201  -0.700   1.218  0.00  0.00    -0.167 NA
BRANCH  14  19
ATOM     19  N   UNL     1      -1.851  -2.094   4.480  0.00  0.00    -0.355 N 
ATOM     20  H   UNL     1      -0.908  -2.163   4.696  0.00  0.00    +0.142 HD
ATOM     21  H   UNL     1      -2.519  -2.386   5.120  0.00  0.00    +0.142 HD
ENDBRANCH  14  19
ENDBRANCH  11  13
TORSDOF 2
