REMARK  Name = ZINC65265933
REMARK  8 active torsions:
REMARK  status: ('A' for Active; 'I' for Inactive)
REMARK    1  A    between atoms: C_1  and  C_2
REMARK    2  A    between atoms: C_2  and  C_3
REMARK    3  A    between atoms: C_2  and  C_4
REMARK    4  A    between atoms: C_2  and  N_5
REMARK    5  A    between atoms: C_21  and  C_23
REMARK    6  A    between atoms: C_23  and  C_24
REMARK    7  A    between atoms: C_29  and  O_30
REMARK    8  A    between atoms: O_30  and  C_31
REMARK                            x       y       z     vdW  Elec       q    Type
REMARK                         _______ _______ _______ _____ _____    ______ ____
ROOT
ATOM      1  N   UNL     1       0.156  -0.957  -1.044  0.00  0.00    -0.370 N 
ATOM      2  C   UNL     1       1.349  -1.386  -1.302  0.00  0.00    +0.095 C 
ATOM      3  N   UNL     1       2.425  -1.032  -0.526  0.00  0.00    -0.303 N 
ATOM      4  C   UNL     1       2.767  -1.838   0.556  0.00  0.00    +0.037 A 
ATOM      5  C   UNL     1       3.066  -1.262   1.783  0.00  0.00    +0.023 A 
ATOM      6  C   UNL     1       3.420  -2.057   2.855  0.00  0.00    +0.002 A 
ATOM      7  C   UNL     1       3.474  -3.430   2.693  0.00  0.00    +0.000 A 
ATOM      8  C   UNL     1       3.171  -4.002   1.476  0.00  0.00    +0.007 A 
ATOM      9  C   UNL     1       2.805  -3.216   0.388  0.00  0.00    -0.012 A 
ATOM     10  C   UNL     1       2.457  -3.940  -0.887  0.00  0.00    +0.119 C 
ATOM     11  N   UNL     1       2.765  -3.156  -2.090  0.00  0.00    -0.299 NA
ATOM     12  C   UNL     1       1.622  -2.293  -2.453  0.00  0.00    +0.091 C 
ATOM     13  C   UNL     1       0.395  -3.158  -2.799  0.00  0.00    +0.050 C 
ATOM     14  C   UNL     1       0.665  -3.492  -4.290  0.00  0.00    +0.110 C 
ATOM     15  N   UNL     1       1.290  -2.276  -4.845  0.00  0.00    -0.299 N 
ATOM     16  C   UNL     1       1.917  -1.524  -3.744  0.00  0.00    +0.137 C 
ATOM     17  C   UNL     1       1.289  -1.914  -6.143  0.00  0.00    +0.220 C 
ATOM     18  O   UNL     1       1.838  -0.889  -6.487  0.00  0.00    -0.275 OA
ATOM     19  H   UNL     1      -0.605  -1.323  -1.522  0.00  0.00    +0.161 HD
ATOM     20  H   UNL     1       3.606  -2.612  -1.961  0.00  0.00    +0.123 HD
ATOM     21  H   UNL     1       2.938  -0.234  -0.729  0.00  0.00    +0.153 HD
ENDROOT
BRANCH   1  23
ATOM     22  C   UNL     1       0.852   1.278  -0.339  0.00  0.00    +0.033 C 
ATOM     23  C   UNL     1      -0.046   0.080  -0.029  0.00  0.00    +0.031 C 
ATOM     24  C   UNL     1       0.308  -0.481   1.350  0.00  0.00    +0.033 C 
ATOM     25  C   UNL     1      -1.511   0.524  -0.038  0.00  0.00    +0.033 C 
ENDBRANCH   1  23
BRANCH  17  26
ATOM     26  C   UNL     1       0.605  -2.784  -7.167  0.00  0.00    +0.134 C 
BRANCH  26  27
ATOM     27  C   UNL     1       0.747  -2.159  -8.531  0.00  0.00    +0.003 A 
ATOM     28  C   UNL     1      -0.254  -1.347  -9.028  0.00  0.00    +0.008 A 
ATOM     29  C   UNL     1      -0.124  -0.775 -10.279  0.00  0.00    +0.001 A 
ATOM     30  C   UNL     1       1.008  -1.013 -11.037  0.00  0.00    +0.004 A 
ATOM     31  C   UNL     1       2.011  -1.824 -10.545  0.00  0.00    +0.046 A 
ATOM     32  C   UNL     1       1.886  -2.395  -9.287  0.00  0.00    +0.124 A 
BRANCH  32  33
ATOM     33  O   UNL     1       2.875  -3.189  -8.798  0.00  0.00    -0.495 OA
ATOM     34  C   UNL     1       4.019  -3.388  -9.631  0.00  0.00    +0.277 C 
ENDBRANCH  32  33
ENDBRANCH  26  27
ENDBRANCH  17  26
TORSDOF 4
