REMARK  Name = ZINC04984192
REMARK  7 active torsions:
REMARK  status: ('A' for Active; 'I' for Inactive)
REMARK    1  A    between atoms: C_3  and  C_7
REMARK    2  A    between atoms: C_8  and  C_9
REMARK    3  A    between atoms: C_8  and  N_18
REMARK    4  A    between atoms: N_11  and  C_12
REMARK    5  A    between atoms: C_12  and  C_13
REMARK    6  A    between atoms: C_13  and  N_47
REMARK    7  A    between atoms: C_19  and  C_21
REMARK                            x       y       z     vdW  Elec       q    Type
REMARK                         _______ _______ _______ _____ _____    ______ ____
ROOT
ATOM      1  C   UNL     1      -1.545   4.373  -0.162  0.00  0.00    +0.054 C 
ATOM      2  C   UNL     1      -0.989   5.577   0.133  0.00  0.00    +0.098 C 
ENDROOT
BRANCH   1   5
ATOM      3  C   UNL     1      -0.005   1.271  -1.206  0.00  0.00    +0.019 A 
ATOM      4  C   UNL     1      -1.142   2.007  -0.854  0.00  0.00    +0.027 A 
ATOM      5  C   UNL     1      -0.722   3.292  -0.567  0.00  0.00    +0.041 A 
ATOM      6  N   UNL     1       0.642   3.332  -0.751  0.00  0.00    -0.361 N 
ATOM      7  H   UNL     1       1.207   4.110  -0.624  0.00  0.00    +0.165 HD
ATOM      8  C   UNL     1       1.064   2.099  -1.139  0.00  0.00    +0.083 A 
ENDBRANCH   1   5
BRANCH   2   9
ATOM      9  C   UNL     1      -1.846   6.721   0.456  0.00  0.00    +0.258 C 
ATOM     10  O   UNL     1      -1.348   7.800   0.720  0.00  0.00    -0.269 OA
ATOM     11  N   UNL     1      -3.186   6.578   0.460  0.00  0.00    -0.312 N 
ATOM     12  H   UNL     1      -3.583   5.718   0.249  0.00  0.00    +0.149 HD
BRANCH  11  13
ATOM     13  C   UNL     1      -4.044   7.721   0.782  0.00  0.00    +0.086 C 
BRANCH  13  14
ATOM     14  C   UNL     1      -5.511   7.293   0.717  0.00  0.00    -0.060 C 
BRANCH  14  19
ATOM     15  C   UNL     1      -6.033   9.613   0.195  0.00  0.00    -0.079 C 
ATOM     16  C   UNL     1      -7.309  10.488   0.278  0.00  0.00    -0.020 C 
ATOM     17  C   UNL     1      -8.446   9.442   0.277  0.00  0.00    -0.020 C 
ATOM     18  C   UNL     1      -7.790   8.134   0.757  0.00  0.00    -0.079 C 
ATOM     19  N   UNL     1      -6.390   8.458   1.034  0.00  0.00    +0.381 N 
ATOM     20  H   UNL     1      -6.280   8.702   2.025  0.00  0.00    -0.082 HD
ENDBRANCH  14  19
ENDBRANCH  13  14
ENDBRANCH  11  13
ENDBRANCH   2   9
BRANCH   2  21
ATOM     21  N   UNL     1       0.404   5.726   0.129  0.00  0.00    -0.275 N 
ATOM     22  C   UNL     1       0.984   6.618  -0.699  0.00  0.00    +0.284 C 
ATOM     23  O   UNL     1       0.306   7.235  -1.500  0.00  0.00    -0.266 OA
ATOM     24  H   UNL     1       0.951   5.187   0.721  0.00  0.00    +0.155 HD
BRANCH  22  25
ATOM     25  C   UNL     1       2.431   6.844  -0.634  0.00  0.00    +0.189 A 
ATOM     26  C   UNL     1       3.129   7.781  -1.341  0.00  0.00    +0.054 A 
ATOM     27  C   UNL     1       4.476   7.645  -0.971  0.00  0.00    +0.042 A 
ATOM     28  C   UNL     1       4.540   6.644  -0.066  0.00  0.00    +0.196 A 
ATOM     29  O   UNL     1       3.305   6.167   0.138  0.00  0.00    -0.458 OA
ENDBRANCH  22  25
ENDBRANCH   2  21
TORSDOF 7
