REMARK  Name = ZINC22673133
REMARK  16 active torsions:
REMARK  status: ('A' for Active; 'I' for Inactive)
REMARK    1  A    between atoms: C_1  and  C_2
REMARK    2  A    between atoms: C_2  and  C_3
REMARK    3  A    between atoms: C_2  and  C_4
REMARK    4  A    between atoms: C_4  and  C_5
REMARK    5  A    between atoms: C_5  and  N_6
REMARK    6  A    between atoms: N_6  and  C_7
REMARK    7  A    between atoms: N_6  and  C_12
REMARK    8  A    between atoms: C_7  and  C_8
REMARK    9  A    between atoms: C_8  and  C_9
REMARK   10  A    between atoms: C_9  and  C_10
REMARK   11  A    between atoms: C_9  and  C_11
REMARK   12  A    between atoms: C_12  and  C_13
REMARK   13  A    between atoms: C_16  and  C_19
REMARK   14  A    between atoms: C_29  and  O_31
REMARK   15  A    between atoms: O_31  and  C_32
REMARK   16  A    between atoms: C_36  and  C_38
REMARK                            x       y       z     vdW  Elec       q    Type
REMARK                         _______ _______ _______ _____ _____    ______ ____
ROOT
ATOM      1  C   UNL     1      -1.429  -0.362   0.181  0.00  0.00    -0.064 A 
ATOM      2  C   UNL     1      -1.821  -0.685   1.468  0.00  0.00    +0.002 A 
ATOM      3  C   UNL     1      -3.099  -1.144   1.708  0.00  0.00    +0.013 A 
ATOM      4  C   UNL     1      -3.994  -1.294   0.648  0.00  0.00    +0.037 A 
ATOM      5  C   UNL     1      -3.591  -0.972  -0.649  0.00  0.00    +0.013 A 
ATOM      6  C   UNL     1      -2.312  -0.508  -0.875  0.00  0.00    +0.002 A 
ENDROOT
BRANCH   4   7
ATOM      7  C   UNL     1      -5.364  -1.790   0.898  0.00  0.00    +0.247 C 
ATOM      8  O   UNL     1      -5.941  -1.494   1.926  0.00  0.00    -0.270 OA
ATOM      9  N   UNL     1      -5.974  -2.572  -0.015  0.00  0.00    -0.291 N 
ATOM     10  C   UNL     1      -7.301  -3.228   0.079  0.00  0.00    +0.080 C 
ATOM     11  C   UNL     1      -7.072  -4.637  -0.515  0.00  0.00    +0.024 C 
ATOM     12  C   UNL     1      -5.865  -4.473  -1.462  0.00  0.00    +0.024 C 
ATOM     13  C   UNL     1      -5.481  -2.976  -1.354  0.00  0.00    +0.080 C 
ATOM     14  C   UNL     1      -6.301  -2.200  -2.396  0.00  0.00    +0.067 C 
ATOM     15  C   UNL     1      -7.766  -2.635  -2.297  0.00  0.00    +0.177 C 
ATOM     16  C   UNL     1      -8.252  -2.470  -0.861  0.00  0.00    +0.067 C 
BRANCH  15  17
ATOM     17  O   UNL     1      -8.563  -1.822  -3.161  0.00  0.00    -0.489 OA
BRANCH  17  18
ATOM     18  C   UNL     1      -9.732  -2.356  -3.605  0.00  0.00    +0.122 A 
ATOM     19  C   UNL     1     -10.153  -3.593  -3.136  0.00  0.00    +0.046 A 
ATOM     20  C   UNL     1     -11.343  -4.138  -3.579  0.00  0.00    +0.005 A 
ATOM     21  C   UNL     1     -12.116  -3.461  -4.501  0.00  0.00    +0.019 A 
ATOM     22  C   UNL     1     -11.699  -2.219  -4.982  0.00  0.00    +0.055 A 
ATOM     23  C   UNL     1     -10.499  -1.667  -4.529  0.00  0.00    +0.064 A 
BRANCH  22  24
ATOM     24  C   UNL     1     -12.498  -1.514  -5.939  0.00  0.00    +0.099 C 
ATOM     25  N   UNL     1     -13.132  -0.954  -6.697  0.00  0.00    -0.191 NA
ENDBRANCH  22  24
ENDBRANCH  17  18
ENDBRANCH  15  17
ENDBRANCH   4   7
BRANCH   1  26
ATOM     26  C   UNL     1      -0.033   0.144  -0.074  0.00  0.00    -0.043 C 
BRANCH  26  27
ATOM     27  N   UNL     1      -0.017   1.610   0.030  0.00  0.00    +0.382 N 
ATOM     28  H   UNL     1      -0.476   1.885   0.991  0.00  0.00    -0.081 HD
BRANCH  27  29
ATOM     29  C   UNL     1       1.360   2.123   0.024  0.00  0.00    -0.078 C 
BRANCH  29  30
ATOM     30  C   UNL     1       2.010   1.854   1.383  0.00  0.00    -0.016 C 
BRANCH  30  32
ATOM     31  C   UNL     1       3.996   2.339   2.820  0.00  0.00    +0.007 C 
ATOM     32  C   UNL     1       3.397   2.500   1.421  0.00  0.00    -0.019 C 
ATOM     33  C   UNL     1       4.305   1.818   0.396  0.00  0.00    +0.007 C 
ENDBRANCH  30  32
ENDBRANCH  29  30
ENDBRANCH  27  29
BRANCH  27  34
ATOM     34  C   UNL     1      -0.812   2.222  -1.042  0.00  0.00    -0.078 C 
BRANCH  34  35
ATOM     35  C   UNL     1      -0.886   3.735  -0.822  0.00  0.00    -0.016 C 
BRANCH  35  36
ATOM     36  C   UNL     1      -1.818   4.356  -1.864  0.00  0.00    -0.019 C 
ATOM     37  C   UNL     1      -3.243   3.845  -1.644  0.00  0.00    +0.007 C 
ATOM     38  C   UNL     1      -1.795   5.880  -1.724  0.00  0.00    +0.007 C 
ENDBRANCH  35  36
ENDBRANCH  34  35
ENDBRANCH  27  34
ENDBRANCH  26  27
ENDBRANCH   1  26
TORSDOF 12
