REMARK  Name = ZINC50288854
REMARK  9 active torsions:
REMARK  status: ('A' for Active; 'I' for Inactive)
REMARK    1  A    between atoms: C_1  and  C_2
REMARK    2  A    between atoms: C_3  and  C_17
REMARK    3  A    between atoms: C_4  and  C_16
REMARK    4  A    between atoms: N_5  and  C_9
REMARK    5  A    between atoms: C_9  and  C_11
REMARK    6  A    between atoms: C_9  and  C_12
REMARK    7  A    between atoms: N_14  and  C_15
REMARK    8  A    between atoms: C_17  and  C_19
REMARK    9  A    between atoms: C_17  and  C_20
REMARK                            x       y       z     vdW  Elec       q    Type
REMARK                         _______ _______ _______ _____ _____    ______ ____
ROOT
ATOM      1  C   UNL     1      -0.052   0.465  -1.040  0.00  0.00    +0.066 C 
ATOM      2  C   UNL     1      -0.364  -0.877  -0.431  0.00  0.00    +0.049 A 
ATOM      3  C   UNL     1      -1.576  -1.081   0.235  0.00  0.00    +0.007 A 
ATOM      4  C   UNL     1      -1.837  -2.301   0.776  0.00  0.00    +0.027 A 
ATOM      5  N   UNL     1      -0.913  -3.290   0.657  0.00  0.00    -0.285 N 
ATOM      6  C   UNL     1       0.245  -3.059   0.010  0.00  0.00    +0.350 A 
ATOM      7  O   UNL     1       1.066  -3.954  -0.091  0.00  0.00    -0.244 OA
ATOM      8  N   UNL     1       0.503  -1.865  -0.529  0.00  0.00    -0.198 NA
ATOM      9  C   UNL     1      -3.134  -2.553   1.501  0.00  0.00    +0.064 C 
ENDROOT
BRANCH   5  10
ATOM     10  C   UNL     1      -1.176  -4.611   1.234  0.00  0.00    +0.174 C 
ATOM     11  C   UNL     1      -0.998  -5.683   0.157  0.00  0.00    +0.041 C 
BRANCH  10  12
ATOM     12  C   UNL     1      -0.211  -4.867   2.363  0.00  0.00    +0.236 C 
ATOM     13  O   UNL     1       0.615  -4.029   2.657  0.00  0.00    -0.274 OA
ATOM     14  N   UNL     1      -0.267  -6.027   3.046  0.00  0.00    -0.317 N 
ATOM     15  C   UNL     1       0.671  -6.277   4.144  0.00  0.00    +0.128 C 
ATOM     16  H   UNL     1      -0.928  -6.697   2.812  0.00  0.00    +0.148 HD
ENDBRANCH  10  12
ENDBRANCH   5  10
BRANCH   3  17
ATOM     17  C   UNL     1      -2.581   0.036   0.351  0.00  0.00    +0.132 C 
ATOM     18  C   UNL     1      -3.013   0.481  -1.048  0.00  0.00    +0.024 C 
BRANCH  17  19
ATOM     19  C   UNL     1      -1.956   1.200   1.078  0.00  0.00    +0.363 C 
ATOM     20  O   UNL     1      -0.803   1.128   1.465  0.00  0.00    -0.246 OA
ATOM     21  O   UNL     1      -2.605   2.213   1.278  0.00  0.00    -0.246 OA
ENDBRANCH  17  19
ENDBRANCH   3  17
TORSDOF 4
