REMARK  Name = ZINC56543529
REMARK  3 active torsions:
REMARK  status: ('A' for Active; 'I' for Inactive)
REMARK    1  A    between atoms: C_5  and  N_7
REMARK    2  A    between atoms: C_13  and  C_16
REMARK    3  A    between atoms: N_18  and  C_19
REMARK                            x       y       z     vdW  Elec       q    Type
REMARK                         _______ _______ _______ _____ _____    ______ ____
ROOT
ATOM      1  N   UNL     1       1.237  -2.073  -0.012  0.00  0.00    -0.269 N 
ATOM      2  C   UNL     1       0.085  -2.766   0.086  0.00  0.00    +0.306 C 
ATOM      3  O   UNL     1      -0.979  -2.178   0.091  0.00  0.00    -0.252 OA
ATOM      4  N   UNL     1       0.113  -4.110   0.179  0.00  0.00    -0.285 N 
ATOM      5  C   UNL     1       1.392  -4.827   0.282  0.00  0.00    +0.110 C 
ATOM      6  C   UNL     1       1.448  -5.896  -0.814  0.00  0.00    +0.032 C 
ATOM      7  C   UNL     1       0.213  -6.794  -0.708  0.00  0.00    +0.078 C 
ATOM      8  C   UNL     1      -1.049  -5.955  -0.916  0.00  0.00    +0.032 C 
ATOM      9  C   UNL     1      -1.134  -4.886   0.184  0.00  0.00    +0.110 C 
ATOM     10  H   UNL     1       2.085  -2.544  -0.049  0.00  0.00    +0.156 HD
ENDROOT
BRANCH   1  15
ATOM     11  C   UNL     1       0.054   1.357  -0.569  0.00  0.00    +0.002 A 
ATOM     12  C   UNL     1       1.159   2.078  -0.162  0.00  0.00    +0.004 A 
ATOM     13  C   UNL     1       2.298   1.429   0.299  0.00  0.00    -0.042 A 
ATOM     14  C   UNL     1       2.325   0.055   0.354  0.00  0.00    -0.023 A 
ATOM     15  C   UNL     1       1.211  -0.675  -0.060  0.00  0.00    +0.038 A 
ATOM     16  C   UNL     1       0.077  -0.023  -0.521  0.00  0.00    +0.023 A 
ATOM     17  C   UNL     1       3.519  -0.713   0.858  0.00  0.00    +0.037 C 
ATOM     18  C   UNL     1       4.765   0.170   0.857  0.00  0.00    +0.005 C 
ATOM     19  C   UNL     1       4.433   1.476   1.587  0.00  0.00    +0.005 C 
ATOM     20  C   UNL     1       3.467   2.281   0.719  0.00  0.00    +0.035 C 
ENDBRANCH   1  15
BRANCH   7  21
ATOM     21  C   UNL     1       0.282  -7.868  -1.764  0.00  0.00    +0.216 C 
ATOM     22  O   UNL     1       1.226  -7.910  -2.525  0.00  0.00    -0.276 OA
ATOM     23  N   UNL     1      -0.704  -8.781  -1.861  0.00  0.00    -0.312 N 
ATOM     24  H   UNL     1      -1.459  -8.747  -1.252  0.00  0.00    +0.149 HD
BRANCH  23  25
ATOM     25  C   UNL     1      -0.637  -9.825  -2.887  0.00  0.00    +0.073 C 
ATOM     26  C   UNL     1      -1.918 -10.134  -3.664  0.00  0.00    +0.024 C 
ATOM     27  C   UNL     1      -1.397 -11.126  -2.622  0.00  0.00    +0.024 C 
ENDBRANCH  23  25
ENDBRANCH   7  21
TORSDOF 3
