REMARK  Name = ZINC39226322
REMARK  9 active torsions:
REMARK  status: ('A' for Active; 'I' for Inactive)
REMARK    1  A    between atoms: C_1  and  C_2
REMARK    2  A    between atoms: C_2  and  N_3
REMARK    3  A    between atoms: N_3  and  C_4
REMARK    4  A    between atoms: C_4  and  C_5
REMARK    5  A    between atoms: C_11  and  C_13
REMARK    6  A    between atoms: C_17  and  C_19
REMARK    7  A    between atoms: N_32  and  C_35
REMARK    8  A    between atoms: C_35  and  C_36
REMARK    9  A    between atoms: C_35  and  C_37
REMARK                            x       y       z     vdW  Elec       q    Type
REMARK                         _______ _______ _______ _____ _____    ______ ____
ROOT
ATOM      1  C   UNL     1       6.093   0.127  -1.939  0.00  0.00    -0.017 A 
ATOM      2  C   UNL     1       6.934  -0.302  -0.909  0.00  0.00    +0.012 A 
ATOM      3  C   UNL     1       8.299  -0.339  -1.089  0.00  0.00    +0.047 A 
ATOM      4  C   UNL     1       8.856   0.051  -2.301  0.00  0.00    +0.132 A 
ATOM      5  C   UNL     1       8.014   0.480  -3.341  0.00  0.00    +0.060 A 
ATOM      6  C   UNL     1       6.632   0.514  -3.159  0.00  0.00    +0.023 A 
ATOM      7  C   UNL     1       8.612   0.881  -4.627  0.00  0.00    +0.170 C 
ATOM      8  O   UNL     1       7.936   1.056  -5.618  0.00  0.00    -0.292 OA
ATOM      9  C   UNL     1      10.120   1.065  -4.646  0.00  0.00    +0.127 C 
ATOM     10  C   UNL     1      10.722  -0.061  -3.793  0.00  0.00    +0.114 C 
ATOM     11  O   UNL     1      10.199   0.016  -2.468  0.00  0.00    -0.485 OA
ATOM     12  C   UNL     1      10.359  -1.413  -4.412  0.00  0.00    +0.030 C 
ATOM     13  C   UNL     1      11.033  -2.531  -3.614  0.00  0.00    -0.075 C 
ATOM     14  N   UNL     1      12.489  -2.349  -3.645  0.00  0.00    +0.381 N 
ATOM     15  C   UNL     1      12.848  -1.087  -2.986  0.00  0.00    -0.075 C 
ATOM     16  C   UNL     1      12.244   0.087  -3.759  0.00  0.00    +0.030 C 
ATOM     17  H   UNL     1      12.804  -2.328  -4.604  0.00  0.00    -0.081 HD
ENDROOT
BRANCH   1  22
ATOM     18  C   UNL     1       2.703  -0.188  -0.322  0.00  0.00    +0.037 A 
ATOM     19  C   UNL     1       1.871   0.238  -1.360  0.00  0.00    +0.013 A 
ATOM     20  C   UNL     1       2.415   0.621  -2.569  0.00  0.00    +0.001 A 
ATOM     21  C   UNL     1       3.783   0.587  -2.760  0.00  0.00    +0.008 A 
ATOM     22  C   UNL     1       4.624   0.164  -1.731  0.00  0.00    -0.017 A 
ATOM     23  C   UNL     1       4.083  -0.219  -0.507  0.00  0.00    +0.021 A 
BRANCH  18  25
ATOM     24  N   UNL     1       0.943  -1.256   1.005  0.00  0.00    -0.293 N 
ATOM     25  C   UNL     1       2.119  -0.599   0.974  0.00  0.00    +0.247 C 
ATOM     26  O   UNL     1       2.701  -0.344   2.010  0.00  0.00    -0.270 OA
BRANCH  24  28
ATOM     27  C   UNL     1      -0.874  -0.695  -0.533  0.00  0.00    +0.024 C 
ATOM     28  C   UNL     1       0.289  -1.647  -0.246  0.00  0.00    +0.105 C 
ENDBRANCH  24  28
BRANCH  24  29
ATOM     29  C   UNL     1       0.319  -1.580   2.290  0.00  0.00    +0.143 C 
BRANCH  29  30
ATOM     30  C   UNL     1       0.798  -2.931   2.755  0.00  0.00    -0.030 A 
ATOM     31  C   UNL     1       0.110  -4.072   2.390  0.00  0.00    +0.005 A 
ATOM     32  C   UNL     1       0.549  -5.311   2.816  0.00  0.00    +0.000 A 
ATOM     33  C   UNL     1       1.678  -5.409   3.608  0.00  0.00    +0.000 A 
ATOM     34  C   UNL     1       2.367  -4.267   3.973  0.00  0.00    +0.000 A 
ATOM     35  C   UNL     1       1.930  -3.029   3.543  0.00  0.00    +0.005 A 
ENDBRANCH  29  30
ENDBRANCH  24  29
ENDBRANCH  18  25
ENDBRANCH   1  22
BRANCH  14  36
ATOM     36  C   UNL     1      13.136  -3.467  -2.945  0.00  0.00    -0.075 C 
ATOM     37  C   UNL     1      12.770  -4.782  -3.637  0.00  0.00    -0.014 C 
ATOM     38  C   UNL     1      14.654  -3.279  -2.977  0.00  0.00    -0.014 C 
ENDBRANCH  14  36
TORSDOF 6
