REMARK  Name = ZINC63541279
REMARK  6 active torsions:
REMARK  status: ('A' for Active; 'I' for Inactive)
REMARK    1  A    between atoms: C_5  and  C_7
REMARK    2  A    between atoms: C_7  and  S_8
REMARK    3  A    between atoms: S_8  and  C_9
REMARK    4  A    between atoms: N_20  and  C_21
REMARK    5  A    between atoms: C_21  and  C_22
REMARK    6  A    between atoms: C_22  and  C_23
REMARK                            x       y       z     vdW  Elec       q    Type
REMARK                         _______ _______ _______ _____ _____    ______ ____
ROOT
ATOM      1  C   UNL     1       1.276  -4.605   1.502  0.00  0.00    +0.223 C 
ATOM      2  N   UNL     1       0.072  -5.035   0.783  0.00  0.00    -0.300 N 
ATOM      3  C   UNL     1       0.010  -4.854  -0.588  0.00  0.00    +0.151 A 
ATOM      4  C   UNL     1       1.213  -4.879  -1.318  0.00  0.00    +0.165 A 
ATOM      5  N   UNL     1       1.188  -4.734  -2.636  0.00  0.00    -0.246 NA
ATOM      6  C   UNL     1       0.035  -4.554  -3.251  0.00  0.00    +0.131 A 
ATOM      7  C   UNL     1      -1.149  -4.515  -2.529  0.00  0.00    +0.132 A 
ATOM      8  N   UNL     1      -1.139  -4.665  -1.215  0.00  0.00    -0.237 NA
ATOM      9  C   UNL     1       2.482  -5.053  -0.582  0.00  0.00    +0.270 C 
ATOM     10  O   UNL     1       3.521  -5.239  -1.186  0.00  0.00    -0.268 OA
ATOM     11  N   UNL     1       2.474  -5.001   0.761  0.00  0.00    -0.268 N 
ATOM     12  H   UNL     1      -0.669  -5.440   1.261  0.00  0.00    +0.150 HD
ENDROOT
BRANCH   1  13
ATOM     13  S   UNL     1       1.254  -2.800   1.685  0.00  0.00    -0.114 S 
BRANCH  13  14
ATOM     14  C   UNL     1       1.229  -2.186  -0.022  0.00  0.00    +0.109 C 
BRANCH  14  19
ATOM     15  C   UNL     1      -0.017   1.378   0.010  0.00  0.00    +0.000 A 
ATOM     16  C   UNL     1       1.171   2.086   0.002  0.00  0.00    +0.001 A 
ATOM     17  C   UNL     1       2.377   1.412  -0.013  0.00  0.00    +0.020 A 
ATOM     18  C   UNL     1       2.397   0.029  -0.021  0.00  0.00    +0.045 A 
ATOM     19  C   UNL     1       1.208  -0.679  -0.013  0.00  0.00    -0.019 A 
ATOM     20  C   UNL     1       0.002  -0.004   0.002  0.00  0.00    +0.006 A 
ATOM     21 CL   UNL     1       3.912  -0.818  -0.041  0.00  0.00    -0.083 Cl
ENDBRANCH  14  19
ENDBRANCH  13  14
ENDBRANCH   1  13
BRANCH  11  22
ATOM     22  C   UNL     1       3.693  -5.349   1.496  0.00  0.00    +0.115 C 
BRANCH  22  23
ATOM     23  C   UNL     1       3.693  -6.848   1.803  0.00  0.00    +0.052 C 
BRANCH  23  24
ATOM     24  C   UNL     1       4.947  -7.205   2.559  0.00  0.00    -0.040 C 
ATOM     25  C   UNL     1       5.088  -7.303   3.901  0.00  0.00    -0.001 A 
ATOM     26  C   UNL     1       4.152  -7.111   5.016  0.00  0.00    +0.010 A 
ATOM     27  C   UNL     1       4.596  -7.282   6.282  0.00  0.00    +0.001 A 
ATOM     28  C   UNL     1       5.924  -7.637   6.555  0.00  0.00    +0.002 A 
ATOM     29  C   UNL     1       6.842  -7.831   5.585  0.00  0.00    +0.026 A 
ATOM     30  C   UNL     1       6.485  -7.678   4.217  0.00  0.00    +0.043 A 
ATOM     31  N   UNL     1       7.181  -7.807   3.113  0.00  0.00    -0.380 N 
ATOM     32  C   UNL     1       6.301  -7.534   1.971  0.00  0.00    +0.144 C 
ATOM     33  H   UNL     1       8.119  -8.047   3.061  0.00  0.00    +0.160 HD
ENDBRANCH  23  24
ENDBRANCH  22  23
ENDBRANCH  11  22
TORSDOF 6
