REMARK  Name = ZINC15339551
REMARK  11 active torsions:
REMARK  status: ('A' for Active; 'I' for Inactive)
REMARK    1  A    between atoms: C_1  and  C_2
REMARK    2  A    between atoms: C_8  and  C_10
REMARK    3  A    between atoms: C_10  and  O_11
REMARK    4  A    between atoms: O_11  and  C_12
REMARK    5  A    between atoms: C_12  and  C_14
REMARK    6  A    between atoms: C_14  and  C_16
REMARK    7  A    between atoms: C_14  and  N_19
REMARK    8  A    between atoms: C_16  and  C_17
REMARK    9  A    between atoms: C_16  and  C_18
REMARK   10  A    between atoms: C_20  and  C_22
REMARK   11  A    between atoms: C_25  and  N_29
REMARK                            x       y       z     vdW  Elec       q    Type
REMARK                         _______ _______ _______ _____ _____    ______ ____
ROOT
ATOM      1  C   UNL     1       5.709  -6.335   1.821  0.00  0.00    +0.185 C 
ENDROOT
BRANCH   1   2
ATOM      2  N   UNL     1       6.226  -6.776   3.119  0.00  0.00    -0.298 N 
ATOM      3  C   UNL     1       7.495  -7.219   3.224  0.00  0.00    +0.246 C 
ATOM      4  O   UNL     1       8.210  -7.252   2.242  0.00  0.00    -0.270 OA
ATOM      5  H   UNL     1       5.655  -6.750   3.903  0.00  0.00    +0.150 HD
BRANCH   3   6
ATOM      6  C   UNL     1       8.016  -7.664   4.533  0.00  0.00    +0.055 A 
ATOM      7  C   UNL     1       7.196  -7.633   5.662  0.00  0.00    +0.017 A 
ATOM      8  C   UNL     1       7.688  -8.050   6.881  0.00  0.00    +0.033 A 
ATOM      9  C   UNL     1       8.993  -8.499   6.987  0.00  0.00    +0.128 A 
ATOM     10  C   UNL     1       9.813  -8.533   5.874  0.00  0.00    +0.053 A 
ATOM     11  C   UNL     1       9.331  -8.123   4.645  0.00  0.00    +0.055 A 
ATOM     12 CL   UNL     1      10.358  -8.173   3.247  0.00  0.00    -0.083 Cl
BRANCH   9  13
ATOM     13  N   UNL     1       9.515  -8.944   8.299  0.00  0.00    +0.056 N 
ATOM     14  O   UNL     1       8.801  -8.916   9.274  0.00  0.00    -0.126 OA
ATOM     15  O   UNL     1      10.654  -9.337   8.395  0.00  0.00    -0.126 OA
ENDBRANCH   9  13
ENDBRANCH   3   6
ENDBRANCH   1   2
BRANCH   1  16
ATOM     16  C   UNL     1       5.197  -7.545   1.038  0.00  0.00    +0.014 C 
ATOM     17  C   UNL     1       3.996  -8.153   1.767  0.00  0.00    +0.009 C 
ATOM     18  C   UNL     1       4.772  -7.103  -0.363  0.00  0.00    +0.009 C 
ENDBRANCH   1  16
BRANCH   1  19
ATOM     19  C   UNL     1       4.580  -5.360   2.035  0.00  0.00    +0.328 C 
ATOM     20  O   UNL     1       4.242  -5.064   3.157  0.00  0.00    -0.249 OA
BRANCH  19  21
ATOM     21  O   UNL     1       3.950  -4.820   0.980  0.00  0.00    -0.454 OA
BRANCH  21  22
ATOM     22  C   UNL     1       2.889  -3.904   1.257  0.00  0.00    +0.327 C 
BRANCH  22  30
ATOM     23  C   UNL     1      -0.019   1.526   0.010  0.00  0.00    +0.007 C 
ATOM     24  C   UNL     1       0.002  -0.004   0.002  0.00  0.00    -0.011 C 
ATOM     25  C   UNL     1       0.717  -0.497  -1.258  0.00  0.00    +0.022 C 
ATOM     26  C   UNL     1       0.705  -2.029  -1.280  0.00  0.00    +0.108 C 
ATOM     27  N   UNL     1       1.285  -2.525  -0.025  0.00  0.00    -0.299 N 
ATOM     28  C   UNL     1       0.731  -2.043   1.248  0.00  0.00    +0.108 C 
ATOM     29  C   UNL     1       0.742  -0.511   1.242  0.00  0.00    +0.022 C 
ATOM     30  C   UNL     1       2.305  -3.405  -0.040  0.00  0.00    +0.253 C 
ATOM     31  O   UNL     1       2.754  -3.796  -1.097  0.00  0.00    -0.272 OA
ENDBRANCH  22  30
ENDBRANCH  21  22
ENDBRANCH  19  21
ENDBRANCH   1  19
TORSDOF 8
