REMARK  Name = ZINC33663514
REMARK  8 active torsions:
REMARK  status: ('A' for Active; 'I' for Inactive)
REMARK    1  A    between atoms: C_1  and  C_2
REMARK    2  A    between atoms: C_9  and  C_19
REMARK    3  A    between atoms: C_10  and  N_11
REMARK    4  A    between atoms: N_11  and  C_12
REMARK    5  A    between atoms: C_12  and  C_13
REMARK    6  A    between atoms: C_24  and  O_25
REMARK    7  A    between atoms: O_25  and  S_26
REMARK    8  A    between atoms: S_26  and  C_29
REMARK                            x       y       z     vdW  Elec       q    Type
REMARK                         _______ _______ _______ _____ _____    ______ ____
ROOT
ATOM      1  C   UNL     1       9.590  -3.508  -0.571  0.00  0.00    +0.047 C 
ATOM      2  C   UNL     1       8.296  -2.947  -0.039  0.00  0.00    -0.009 A 
ATOM      3  C   UNL     1       8.058  -2.925   1.300  0.00  0.00    +0.008 A 
ATOM      4  C   UNL     1       6.847  -2.399   1.785  0.00  0.00    +0.018 A 
ATOM      5  C   UNL     1       5.922  -1.918   0.930  0.00  0.00    +0.094 A 
ATOM      6  N   UNL     1       6.146  -1.933  -0.420  0.00  0.00    -0.289 N 
ATOM      7  C   UNL     1       7.322  -2.441  -0.925  0.00  0.00    +0.120 A 
ATOM      8  N   UNL     1       7.292  -2.342  -2.244  0.00  0.00    -0.338 N 
ATOM      9  C   UNL     1       6.126  -1.788  -2.621  0.00  0.00    +0.090 A 
ATOM     10  C   UNL     1       5.393  -1.518  -1.484  0.00  0.00    +0.129 A 
ATOM     11  H   UNL     1       8.147  -2.693  -2.841  0.00  0.00    +0.167 HD
ENDROOT
BRANCH   9  12
ATOM     12  C   UNL     1       5.704  -1.511  -4.014  0.00  0.00    +0.046 A 
ATOM     13  C   UNL     1       4.462  -0.932  -4.267  0.00  0.00    +0.014 A 
ATOM     14  C   UNL     1       4.076  -0.670  -5.567  0.00  0.00    +0.001 A 
ATOM     15  C   UNL     1       4.913  -0.993  -6.620  0.00  0.00    +0.004 A 
ATOM     16  C   UNL     1       6.144  -1.574  -6.380  0.00  0.00    +0.049 A 
ATOM     17  C   UNL     1       6.547  -1.836  -5.082  0.00  0.00    +0.166 A 
BRANCH  17  18
ATOM     18  O   UNL     1       7.758  -2.407  -4.845  0.00  0.00    -0.342 OA
BRANCH  18  19
ATOM     19  S   UNL     1       7.729  -3.928  -4.812  0.00  0.00    +0.151 S 
ATOM     20  O   UNL     1       9.006  -4.349  -4.353  0.00  0.00    -0.131 OA
ATOM     21  O   UNL     1       6.524  -4.298  -4.155  0.00  0.00    -0.131 OA
BRANCH  19  22
ATOM     22  C   UNL     1       7.584  -4.483  -6.478  0.00  0.00    +0.128 A 
ATOM     23  C   UNL     1       6.334  -4.681  -7.034  0.00  0.00    +0.033 A 
ATOM     24  C   UNL     1       6.219  -5.111  -8.342  0.00  0.00    +0.040 A 
ATOM     25  C   UNL     1       7.357  -5.354  -9.093  0.00  0.00    +0.124 A 
ATOM     26  C   UNL     1       8.608  -5.160  -8.533  0.00  0.00    +0.040 A 
ATOM     27  C   UNL     1       8.721  -4.725  -7.227  0.00  0.00    +0.033 A 
ATOM     28  F   UNL     1       7.246  -5.779 -10.370  0.00  0.00    -0.205 F 
ENDBRANCH  19  22
ENDBRANCH  18  19
ENDBRANCH  17  18
ENDBRANCH   9  12
BRANCH  10  29
ATOM     29  N   UNL     1       4.125  -0.939  -1.429  0.00  0.00    -0.324 N 
ATOM     30  H   UNL     1       3.527  -0.502  -2.243  0.00  0.00    +0.148 HD
BRANCH  29  31
ATOM     31  C   UNL     1       3.595  -0.959  -0.059  0.00  0.00    +0.138 C 
BRANCH  31  32
ATOM     32  C   UNL     1       2.175  -0.456  -0.062  0.00  0.00    -0.030 A 
ATOM     33  C   UNL     1       1.127  -1.342  -0.233  0.00  0.00    +0.005 A 
ATOM     34  C   UNL     1      -0.175  -0.880  -0.236  0.00  0.00    +0.000 A 
ATOM     35  C   UNL     1      -0.431   0.468  -0.067  0.00  0.00    +0.000 A 
ATOM     36  C   UNL     1       0.616   1.354   0.104  0.00  0.00    +0.000 A 
ATOM     37  C   UNL     1       1.919   0.892   0.107  0.00  0.00    +0.005 A 
ENDBRANCH  31  32
ENDBRANCH  29  31
ENDBRANCH  10  29
TORSDOF 7
