REMARK  Name = ZINC14033446
REMARK  8 active torsions:
REMARK  status: ('A' for Active; 'I' for Inactive)
REMARK    1  A    between atoms: C_1  and  C_2
REMARK    2  A    between atoms: C_2  and  C_4
REMARK    3  A    between atoms: C_2  and  O_25
REMARK    4  A    between atoms: N_6  and  C_7
REMARK    5  A    between atoms: C_10  and  S_13
REMARK    6  A    between atoms: S_13  and  N_16
REMARK    7  A    between atoms: O_25  and  C_26
REMARK    8  A    between atoms: C_31  and  N_32
REMARK                            x       y       z     vdW  Elec       q    Type
REMARK                         _______ _______ _______ _____ _____    ______ ____
ROOT
ATOM      1  C   UNL     1       4.198   3.489   0.201  0.00  0.00    +0.034 A 
ATOM      2  C   UNL     1       3.433   3.270  -0.937  0.00  0.00    +0.025 A 
ATOM      3  C   UNL     1       2.076   3.043  -0.823  0.00  0.00    +0.030 A 
ATOM      4  C   UNL     1       1.477   3.034   0.423  0.00  0.00    +0.109 A 
ATOM      5  C   UNL     1       2.235   3.258   1.559  0.00  0.00    +0.030 A 
ATOM      6  C   UNL     1       3.594   3.480   1.452  0.00  0.00    +0.025 A 
ENDROOT
BRANCH   1   9
ATOM      7  C   UNL     1       6.061   4.375  -0.983  0.00  0.00    +0.258 C 
ATOM      8  O   UNL     1       5.302   4.844  -1.805  0.00  0.00    -0.271 OA
ATOM      9  N   UNL     1       5.573   3.720   0.089  0.00  0.00    -0.282 N 
ATOM     10  H   UNL     1       6.175   3.409   0.783  0.00  0.00    +0.155 HD
BRANCH   7  12
ATOM     11  C   UNL     1       8.133   5.283   0.032  0.00  0.00    +0.062 C 
ATOM     12  C   UNL     1       7.550   4.524  -1.162  0.00  0.00    +0.256 C 
BRANCH  12  13
ATOM     13  O   UNL     1       7.816   5.249  -2.364  0.00  0.00    -0.478 OA
BRANCH  13  14
ATOM     14  C   UNL     1       9.020   5.041  -2.957  0.00  0.00    +0.152 A 
ATOM     15  C   UNL     1       9.974   4.248  -2.334  0.00  0.00    +0.048 A 
ATOM     16  C   UNL     1      11.197   4.037  -2.940  0.00  0.00    +0.004 A 
ATOM     17  C   UNL     1      11.472   4.615  -4.165  0.00  0.00    +0.002 A 
ATOM     18  C   UNL     1      10.524   5.406  -4.788  0.00  0.00    +0.036 A 
ATOM     19  C   UNL     1       9.297   5.616  -4.189  0.00  0.00    +0.168 A 
BRANCH  19  20
ATOM     20  N   UNL     1       8.280   6.458  -4.858  0.00  0.00    +0.060 N 
ATOM     21  O   UNL     1       8.524   6.962  -5.939  0.00  0.00    -0.126 OA
ATOM     22  O   UNL     1       7.200   6.646  -4.327  0.00  0.00    -0.126 OA
ENDBRANCH  19  20
ENDBRANCH  13  14
ENDBRANCH  12  13
ENDBRANCH   7  12
ENDBRANCH   1   9
BRANCH   4  23
ATOM     23  S   UNL     1      -0.255   2.745   0.565  0.00  0.00    +0.075 S 
ATOM     24  O   UNL     1      -0.831   3.111  -0.681  0.00  0.00    -0.150 OA
ATOM     25  O   UNL     1      -0.665   3.328   1.794  0.00  0.00    -0.150 OA
BRANCH  23  26
ATOM     26  N   UNL     1      -0.467   1.110   0.723  0.00  0.00    -0.202 N 
ATOM     27  C   UNL     1      -0.495   0.386   1.996  0.00  0.00    +0.136 C 
ATOM     28  C   UNL     1      -0.715  -1.088   1.618  0.00  0.00    +0.058 C 
ATOM     29  C   UNL     1      -0.797  -1.083   0.108  0.00  0.00    -0.023 A 
ATOM     30  C   UNL     1      -0.651   0.221  -0.338  0.00  0.00    +0.054 A 
ATOM     31  C   UNL     1      -0.687   0.477  -1.710  0.00  0.00    +0.025 A 
ATOM     32  C   UNL     1      -0.875  -0.555  -2.605  0.00  0.00    +0.002 A 
ATOM     33  C   UNL     1      -1.025  -1.852  -2.150  0.00  0.00    +0.000 A 
ATOM     34  C   UNL     1      -0.986  -2.114  -0.792  0.00  0.00    +0.005 A 
ENDBRANCH  23  26
ENDBRANCH   4  23
TORSDOF 7
