REMARK  Name = ZINC01195431
REMARK  4 active torsions:
REMARK  status: ('A' for Active; 'I' for Inactive)
REMARK    1  A    between atoms: C_4  and  C_7
REMARK    2  A    between atoms: N_9  and  N_10
REMARK    3  A    between atoms: N_10  and  C_11
REMARK    4  A    between atoms: C_22  and  C_24
REMARK                            x       y       z     vdW  Elec       q    Type
REMARK                         _______ _______ _______ _____ _____    ______ ____
ROOT
ATOM      1  C   UNL     1       1.060   3.740  -0.102  0.00  0.00    +0.193 C 
ATOM      2  C   UNL     1       2.462   4.114  -0.599  0.00  0.00    +0.073 C 
ATOM      3  C   UNL     1       3.258   4.890   0.452  0.00  0.00    +0.013 C 
ATOM      4  C   UNL     1       4.721   4.953  -0.000  0.00  0.00    +0.001 C 
ATOM      5  C   UNL     1       5.349   3.562  -0.034  0.00  0.00    +0.006 C 
ATOM      6  C   UNL     1       4.634   2.680  -1.072  0.00  0.00    +0.053 C 
ATOM      7  C   UNL     1       3.154   2.768  -0.765  0.00  0.00    +0.043 C 
ATOM      8  N   UNL     1       2.320   1.839  -0.589  0.00  0.00    -0.184 NA
ATOM      9  N   UNL     1       1.047   2.269  -0.212  0.00  0.00    -0.170 N 
ATOM     10  C   UNL     1      -0.018   1.474   0.010  0.00  0.00    +0.267 C 
ATOM     11  O   UNL     1      -1.108   1.965   0.229  0.00  0.00    -0.268 OA
ENDROOT
BRANCH  10  12
ATOM     12  C   UNL     1       0.138   0.004  -0.019  0.00  0.00    +0.039 A 
ATOM     13  C   UNL     1       1.407  -0.564  -0.142  0.00  0.00    +0.013 A 
ATOM     14  C   UNL     1       1.547  -1.936  -0.162  0.00  0.00    +0.001 A 
ATOM     15  C   UNL     1       0.431  -2.749  -0.073  0.00  0.00    +0.000 A 
ATOM     16  C   UNL     1      -0.831  -2.193   0.044  0.00  0.00    +0.001 A 
ATOM     17  C   UNL     1      -0.983  -0.822   0.072  0.00  0.00    +0.013 A 
ENDBRANCH  10  12
BRANCH   1  18
ATOM     18  N   UNL     1       0.027   4.334  -0.961  0.00  0.00    -0.217 NA
ATOM     19  H   UNL     1       0.342   5.208  -1.353  0.00  0.00    +0.146 HD
BRANCH  18  22
ATOM     20  C   UNL     1      -2.217   5.029  -0.895  0.00  0.00    +0.258 C 
ATOM     21  O   UNL     1      -2.143   5.364  -2.061  0.00  0.00    -0.269 OA
ATOM     22  N   UNL     1      -1.144   4.497  -0.277  0.00  0.00    -0.245 N 
ATOM     23  H   UNL     1      -1.203   4.230   0.654  0.00  0.00    +0.169 HD
BRANCH  20  27
ATOM     24  C   UNL     1      -5.858   5.536   1.233  0.00  0.00    +0.000 A 
ATOM     25  C   UNL     1      -5.777   5.919  -0.094  0.00  0.00    +0.001 A 
ATOM     26  C   UNL     1      -4.597   5.757  -0.791  0.00  0.00    +0.013 A 
ATOM     27  C   UNL     1      -3.484   5.206  -0.154  0.00  0.00    +0.038 A 
ATOM     28  C   UNL     1      -3.574   4.817   1.183  0.00  0.00    +0.013 A 
ATOM     29  C   UNL     1      -4.759   4.989   1.870  0.00  0.00    +0.001 A 
ENDBRANCH  20  27
ENDBRANCH  18  22
ENDBRANCH   1  18
TORSDOF 4
