REMARK  Name = ZINC65196232
REMARK  4 active torsions:
REMARK  status: ('A' for Active; 'I' for Inactive)
REMARK    1  A    between atoms: C_6  and  N_7
REMARK    2  A    between atoms: N_10  and  S_13
REMARK    3  A    between atoms: S_13  and  C_16
REMARK    4  A    between atoms: C_25  and  C_27
REMARK                            x       y       z     vdW  Elec       q    Type
REMARK                         _______ _______ _______ _____ _____    ______ ____
ROOT
ATOM      1  S   UNL     1      -4.794  -2.738  -1.156  0.00  0.00    +0.067 S 
ATOM      2  O   UNL     1      -4.479  -4.053  -0.720  0.00  0.00    -0.152 OA
ATOM      3  O   UNL     1      -5.749  -1.923  -0.490  0.00  0.00    -0.152 OA
ENDROOT
BRANCH   1   4
ATOM      4  C   UNL     1      -5.329  -2.877  -2.829  0.00  0.00    +0.143 A 
ATOM      5  C   UNL     1      -5.057  -3.845  -3.733  0.00  0.00    +0.041 A 
ATOM      6  C   UNL     1      -5.586  -3.765  -5.021  0.00  0.00    -0.018 A 
ATOM      7  C   UNL     1      -6.369  -2.686  -5.293  0.00  0.00    -0.002 A 
ATOM      8  S   UNL     1      -6.379  -1.779  -3.769  0.00  0.00    -0.073 S 
ATOM      9  C   UNL     1      -7.064  -2.356  -6.574  0.00  0.00    +0.062 C 
ATOM     10  C   UNL     1      -6.450  -3.202  -7.700  0.00  0.00    +0.113 C 
ATOM     11  N   UNL     1      -6.266  -4.573  -7.199  0.00  0.00    -0.297 N 
ATOM     12  C   UNL     1      -5.320  -4.811  -6.101  0.00  0.00    +0.143 C 
ATOM     13  C   UNL     1      -6.957  -5.596  -7.741  0.00  0.00    +0.219 C 
ATOM     14  O   UNL     1      -7.736  -5.390  -8.647  0.00  0.00    -0.275 OA
BRANCH  13  15
ATOM     15  C   UNL     1      -6.761  -6.997  -7.220  0.00  0.00    +0.075 C 
ATOM     16  C   UNL     1      -6.071  -8.004  -8.142  0.00  0.00    +0.013 C 
ATOM     17  C   UNL     1      -7.573  -8.115  -7.875  0.00  0.00    +0.013 C 
ENDBRANCH  13  15
ENDBRANCH   1   4
BRANCH   1  21
ATOM     18  N   UNL     1      -1.198  -0.721   0.010  0.00  0.00    -0.327 N 
ATOM     19  C   UNL     1      -2.486  -0.022   0.131  0.00  0.00    +0.122 C 
ATOM     20  C   UNL     1      -3.375  -0.424  -1.053  0.00  0.00    +0.128 C 
ATOM     21  N   UNL     1      -3.372  -1.889  -1.165  0.00  0.00    -0.173 NA
ATOM     22  C   UNL     1      -2.085  -2.588  -1.286  0.00  0.00    +0.128 C 
ATOM     23  C   UNL     1      -1.196  -2.186  -0.108  0.00  0.00    +0.122 C 
BRANCH  18  29
ATOM     24  C   UNL     1       1.215  -0.680   0.003  0.00  0.00    +0.026 A 
ATOM     25  C   UNL     1       2.400   0.030  -0.005  0.00  0.00    +0.040 A 
ATOM     26  C   UNL     1       2.379   1.414  -0.015  0.00  0.00    +0.124 A 
ATOM     27  C   UNL     1       1.170   2.090  -0.016  0.00  0.00    +0.040 A 
ATOM     28  C   UNL     1      -0.017   1.385  -0.007  0.00  0.00    +0.026 A 
ATOM     29  C   UNL     1       0.002  -0.004   0.002  0.00  0.00    +0.030 A 
ATOM     30  F   UNL     1       3.539   2.107  -0.023  0.00  0.00    -0.205 F 
ENDBRANCH  18  29
ENDBRANCH   1  21
TORSDOF 4
