REMARK  Name = ZINC16569875
REMARK  6 active torsions:
REMARK  status: ('A' for Active; 'I' for Inactive)
REMARK    1  A    between atoms: C_1  and  C_2
REMARK    2  A    between atoms: C_5  and  C_8
REMARK    3  A    between atoms: C_22  and  C_24
REMARK    4  A    between atoms: C_24  and  N_25
REMARK    5  A    between atoms: N_25  and  C_26
REMARK    6  A    between atoms: N_31  and  C_32
REMARK                            x       y       z     vdW  Elec       q    Type
REMARK                         _______ _______ _______ _____ _____    ______ ____
ROOT
ATOM      1  C   UNL     1      -1.551   3.438  -8.472  0.00  0.00    +0.159 C 
ATOM      2  C   UNL     1      -2.916   3.881  -8.929  0.00  0.00    +0.049 A 
ATOM      3  C   UNL     1      -3.352   5.106  -9.241  0.00  0.00    +0.025 A 
ATOM      4  C   UNL     1      -4.710   4.988  -9.613  0.00  0.00    +0.020 A 
ATOM      5  C   UNL     1      -5.049   3.683  -9.510  0.00  0.00    +0.092 A 
ATOM      6  N   UNL     1      -3.960   2.996  -9.089  0.00  0.00    -0.316 N 
ATOM      7  C   UNL     1      -3.799   1.628  -8.826  0.00  0.00    +0.068 A 
ATOM      8  C   UNL     1      -4.732   0.693  -9.232  0.00  0.00    +0.028 A 
ATOM      9  C   UNL     1      -4.518  -0.648  -8.970  0.00  0.00    +0.002 A 
ATOM     10  C   UNL     1      -3.375  -1.052  -8.304  0.00  0.00    +0.002 A 
ATOM     11  C   UNL     1      -2.440  -0.122  -7.892  0.00  0.00    +0.025 A 
ATOM     12  C   UNL     1      -2.646   1.225  -8.145  0.00  0.00    +0.061 A 
ATOM     13  N   UNL     1      -1.710   2.180  -7.724  0.00  0.00    -0.255 N 
ATOM     14  C   UNL     1      -0.960   1.949  -6.628  0.00  0.00    +0.238 C 
ATOM     15  O   UNL     1      -1.035   0.882  -6.056  0.00  0.00    -0.273 OA
ENDROOT
BRANCH   1  20
ATOM     16  C   UNL     1       1.845   2.564 -13.065  0.00  0.00    +0.044 C 
ATOM     17  C   UNL     1       0.959   2.792 -11.868  0.00  0.00    -0.050 A 
ATOM     18  C   UNL     1       1.083   3.953 -11.128  0.00  0.00    +0.004 A 
ATOM     19  C   UNL     1       0.270   4.162 -10.029  0.00  0.00    +0.006 A 
ATOM     20  C   UNL     1      -0.666   3.210  -9.670  0.00  0.00    -0.021 A 
ATOM     21  C   UNL     1      -0.785   2.047 -10.407  0.00  0.00    +0.006 A 
ATOM     22  C   UNL     1       0.023   1.840 -11.509  0.00  0.00    +0.004 A 
ENDBRANCH   1  20
BRANCH  14  23
ATOM     23  C   UNL     1      -0.029   3.017  -6.114  0.00  0.00    +0.205 C 
BRANCH  23  24
ATOM     24  N   UNL     1       0.579   2.571  -4.858  0.00  0.00    -0.274 N 
ATOM     25  C   UNL     1       1.739   1.884  -4.877  0.00  0.00    +0.303 C 
ATOM     26  O   UNL     1       2.188   1.420  -3.847  0.00  0.00    -0.253 OA
ATOM     27  N   UNL     1       2.402   1.713  -6.038  0.00  0.00    -0.296 N 
ATOM     28  H   UNL     1       2.009   2.019  -6.871  0.00  0.00    +0.151 HD
BRANCH  27  29
ATOM     29  C   UNL     1       3.716   1.065  -6.043  0.00  0.00    +0.074 C 
ATOM     30  C   UNL     1       3.971   0.439  -7.415  0.00  0.00    +0.022 C 
ATOM     31  C   UNL     1       5.343  -0.238  -7.420  0.00  0.00    +0.002 C 
ATOM     32  C   UNL     1       6.425   0.802  -7.125  0.00  0.00    +0.000 C 
ATOM     33  C   UNL     1       6.171   1.429  -5.753  0.00  0.00    +0.002 C 
ATOM     34  C   UNL     1       4.798   2.105  -5.748  0.00  0.00    +0.022 C 
ENDBRANCH  27  29
BRANCH  24  35
ATOM     35  C   UNL     1      -0.073   2.871  -3.581  0.00  0.00    +0.078 C 
ATOM     36  C   UNL     1       0.766   2.734  -2.309  0.00  0.00    +0.024 C 
ATOM     37  C   UNL     1      -0.321   1.704  -2.623  0.00  0.00    +0.024 C 
ENDBRANCH  24  35
ENDBRANCH  23  24
ENDBRANCH  14  23
TORSDOF 5
