REMARK  Name = ZINC35786351
REMARK  10 active torsions:
REMARK  status: ('A' for Active; 'I' for Inactive)
REMARK    1  A    between atoms: C_1  and  C_2
REMARK    2  A    between atoms: C_2  and  O_3
REMARK    3  A    between atoms: O_3  and  C_4
REMARK    4  A    between atoms: C_7  and  C_10
REMARK    5  A    between atoms: C_13  and  C_27
REMARK    6  A    between atoms: C_16  and  C_18
REMARK    7  A    between atoms: C_18  and  N_19
REMARK    8  A    between atoms: N_19  and  C_20
REMARK    9  A    between atoms: N_19  and  C_21
REMARK   10  A    between atoms: C_30  and  C_33
REMARK                            x       y       z     vdW  Elec       q    Type
REMARK                         _______ _______ _______ _____ _____    ______ ____
ROOT
ATOM      1  C   UNL     1      -2.001  -6.092  -0.011  0.00  0.00    +0.137 C 
ATOM      2  C   UNL     1      -2.373  -6.588  -1.422  0.00  0.00    +0.087 C 
ATOM      3  C   UNL     1      -3.736  -7.217  -1.240  0.00  0.00    +0.069 C 
ATOM      4  N   UNL     1      -4.093  -7.119  -0.006  0.00  0.00    -0.181 NA
ATOM      5  N   UNL     1      -3.158  -6.480   0.811  0.00  0.00    -0.187 N 
ATOM      6  C   UNL     1      -3.291  -6.254   2.133  0.00  0.00    +0.219 C 
ATOM      7  O   UNL     1      -2.410  -5.686   2.743  0.00  0.00    -0.276 OA
ENDROOT
BRANCH   3   8
ATOM      8  C   UNL     1      -4.533  -7.846  -2.309  0.00  0.00    -0.002 A 
ATOM      9  C   UNL     1      -4.038  -7.899  -3.615  0.00  0.00    +0.010 A 
ATOM     10  C   UNL     1      -4.789  -8.489  -4.610  0.00  0.00    +0.004 A 
ATOM     11  C   UNL     1      -6.030  -9.026  -4.318  0.00  0.00    -0.050 A 
ATOM     12  C   UNL     1      -6.527  -8.977  -3.027  0.00  0.00    +0.004 A 
ATOM     13  C   UNL     1      -5.784  -8.396  -2.021  0.00  0.00    +0.010 A 
ATOM     14  C   UNL     1      -6.845  -9.668  -5.411  0.00  0.00    +0.044 C 
ENDBRANCH   3   8
BRANCH   1  18
ATOM     15  C   UNL     1      -1.498  -1.848   0.006  0.00  0.00    +0.121 A 
ATOM     16  C   UNL     1      -0.388  -2.679  -0.003  0.00  0.00    +0.046 A 
ATOM     17  C   UNL     1      -0.553  -4.051  -0.008  0.00  0.00    +0.009 A 
ATOM     18  C   UNL     1      -1.823  -4.596  -0.005  0.00  0.00    -0.024 A 
ATOM     19  C   UNL     1      -2.932  -3.769   0.004  0.00  0.00    +0.009 A 
ATOM     20  C   UNL     1      -2.772  -2.397   0.016  0.00  0.00    +0.046 A 
BRANCH  15  21
ATOM     21  O   UNL     1      -1.339  -0.499   0.012  0.00  0.00    -0.492 OA
BRANCH  21  23
ATOM     22  C   UNL     1      -0.019   1.526   0.010  0.00  0.00    +0.048 C 
ATOM     23  C   UNL     1       0.002  -0.004   0.002  0.00  0.00    +0.225 C 
ENDBRANCH  21  23
ENDBRANCH  15  21
ENDBRANCH   1  18
BRANCH   6  24
ATOM     24  C   UNL     1      -4.535  -6.707   2.853  0.00  0.00    +0.021 C 
BRANCH  24  25
ATOM     25  N   UNL     1      -4.438  -6.346   4.274  0.00  0.00    +0.385 N 
ATOM     26  C   UNL     1      -4.423  -4.884   4.407  0.00  0.00    -0.095 C 
ATOM     27  H   UNL     1      -3.587  -6.728   4.660  0.00  0.00    -0.081 HD
BRANCH  25  28
ATOM     28  C   UNL     1      -5.593  -6.892   4.998  0.00  0.00    -0.068 C 
ATOM     29  C   UNL     1      -5.492  -6.516   6.478  0.00  0.00    -0.015 C 
ATOM     30  C   UNL     1      -6.695  -7.085   7.232  0.00  0.00    -0.002 C 
ATOM     31  C   UNL     1      -6.711  -8.608   7.093  0.00  0.00    -0.000 C 
ATOM     32  C   UNL     1      -6.813  -8.984   5.613  0.00  0.00    -0.002 C 
ATOM     33  C   UNL     1      -5.609  -8.416   4.859  0.00  0.00    -0.015 C 
ENDBRANCH  25  28
ENDBRANCH  24  25
ENDBRANCH   6  24
TORSDOF 7
