REMARK  Name = ZINC63780795
REMARK  7 active torsions:
REMARK  status: ('A' for Active; 'I' for Inactive)
REMARK    1  A    between atoms: C_1  and  C_2
REMARK    2  A    between atoms: C_2  and  C_3
REMARK    3  A    between atoms: C_2  and  C_4
REMARK    4  A    between atoms: C_17  and  C_20
REMARK    5  A    between atoms: N_22  and  C_23
REMARK    6  A    between atoms: C_23  and  C_24
REMARK    7  A    between atoms: C_24  and  C_25
REMARK                            x       y       z     vdW  Elec       q    Type
REMARK                         _______ _______ _______ _____ _____    ______ ____
ROOT
ATOM      1  C   UNL     1      -3.150  -2.308  -3.843  0.00  0.00    +0.202 C 
ATOM      2  N   UNL     1      -2.670  -3.277  -2.842  0.00  0.00    -0.245 N 
ATOM      3  N   UNL     1      -2.324  -2.530  -1.711  0.00  0.00    -0.168 NA
ATOM      4  C   UNL     1      -2.529  -1.254  -1.897  0.00  0.00    +0.160 C 
ATOM      5  N   UNL     1      -3.032  -1.007  -3.169  0.00  0.00    -0.182 N 
ATOM      6  N   UNL     1      -3.325   0.294  -3.586  0.00  0.00    -0.161 NA
ATOM      7  C   UNL     1      -3.136   1.318  -2.800  0.00  0.00    +0.140 C 
ATOM      8  C   UNL     1      -2.610   1.138  -1.449  0.00  0.00    +0.048 C 
ATOM      9  C   UNL     1      -2.312  -0.111  -0.999  0.00  0.00    +0.050 C 
ATOM     10  N   UNL     1      -3.442   2.600  -3.254  0.00  0.00    -0.314 N 
ATOM     11  C   UNL     1      -3.121   3.780  -2.438  0.00  0.00    +0.107 C 
ATOM     12  C   UNL     1      -2.295   4.754  -3.284  0.00  0.00    +0.031 C 
ATOM     13  C   UNL     1      -3.053   5.070  -4.576  0.00  0.00    +0.078 C 
ATOM     14  C   UNL     1      -3.254   3.784  -5.380  0.00  0.00    +0.031 C 
ATOM     15  C   UNL     1      -4.085   2.798  -4.560  0.00  0.00    +0.107 C 
ATOM     16  H   UNL     1      -2.608  -4.239  -2.947  0.00  0.00    +0.170 HD
ENDROOT
BRANCH  13  17
ATOM     17  C   UNL     1      -2.260   6.056  -5.395  0.00  0.00    +0.216 C 
ATOM     18  O   UNL     1      -1.194   6.465  -4.987  0.00  0.00    -0.276 OA
ATOM     19  N   UNL     1      -2.735   6.482  -6.582  0.00  0.00    -0.315 N 
ATOM     20  H   UNL     1      -3.588   6.155  -6.909  0.00  0.00    +0.149 HD
BRANCH  19  21
ATOM     21  C   UNL     1      -1.964   7.440  -7.378  0.00  0.00    +0.108 C 
BRANCH  21  22
ATOM     22  C   UNL     1      -2.722   7.756  -8.669  0.00  0.00    +0.052 C 
BRANCH  22  23
ATOM     23  C   UNL     1      -1.929   8.742  -9.489  0.00  0.00    -0.040 C 
ATOM     24  C   UNL     1      -1.070   8.458 -10.495  0.00  0.00    -0.001 A 
ATOM     25  C   UNL     1      -0.633   7.195 -11.103  0.00  0.00    +0.010 A 
ATOM     26  C   UNL     1       0.259   7.230 -12.118  0.00  0.00    +0.001 A 
ATOM     27  C   UNL     1       0.777   8.439 -12.603  0.00  0.00    +0.002 A 
ATOM     28  C   UNL     1       0.424   9.639 -12.096  0.00  0.00    +0.026 A 
ATOM     29  C   UNL     1      -0.509   9.721 -11.025  0.00  0.00    +0.043 A 
ATOM     30  N   UNL     1      -1.001  10.745 -10.373  0.00  0.00    -0.380 N 
ATOM     31  C   UNL     1      -1.936  10.248  -9.357  0.00  0.00    +0.144 C 
ATOM     32  H   UNL     1      -0.786  11.677 -10.536  0.00  0.00    +0.160 HD
ENDBRANCH  22  23
ENDBRANCH  21  22
ENDBRANCH  19  21
ENDBRANCH  13  17
BRANCH   1  34
ATOM     33  C   UNL     1      -5.106  -1.526  -5.185  0.00  0.00    +0.011 C 
ATOM     34  C   UNL     1      -4.608  -2.593  -4.209  0.00  0.00    +0.024 C 
ATOM     35  C   UNL     1      -4.709  -3.972  -4.864  0.00  0.00    +0.011 C 
ENDBRANCH   1  34
TORSDOF 5
