REMARK  Name = ZINC01278985
REMARK  11 active torsions:
REMARK  status: ('A' for Active; 'I' for Inactive)
REMARK    1  A    between atoms: C_1  and  C_2
REMARK    2  A    between atoms: C_2  and  C_3
REMARK    3  A    between atoms: C_2  and  C_4
REMARK    4  A    between atoms: N_14  and  C_32
REMARK    5  A    between atoms: C_17  and  S_20
REMARK    6  A    between atoms: S_20  and  C_21
REMARK    7  A    between atoms: C_21  and  C_22
REMARK    8  A    between atoms: N_24  and  C_25
REMARK    9  A    between atoms: C_25  and  C_26
REMARK   10  A    between atoms: C_32  and  C_33
REMARK   11  A    between atoms: C_33  and  C_34
REMARK                            x       y       z     vdW  Elec       q    Type
REMARK                         _______ _______ _______ _____ _____    ______ ____
ROOT
ATOM      1  C   UNL     1      -1.433  -0.534   0.013  0.00  0.00    +0.126 C 
ATOM      2  C   UNL     1      -1.409  -2.066   0.012  0.00  0.00    +0.068 C 
ATOM      3  C   UNL     1      -2.831  -2.555  -0.229  0.00  0.00    -0.018 A 
ATOM      4  C   UNL     1      -3.761  -1.717  -0.734  0.00  0.00    +0.021 A 
ATOM      5  S   UNL     1      -5.229  -2.692  -0.840  0.00  0.00    -0.072 S 
ATOM      6  C   UNL     1      -4.645  -4.143  -0.245  0.00  0.00    +0.102 A 
ATOM      7  C   UNL     1      -3.306  -3.909   0.048  0.00  0.00    +0.074 A 
ATOM      8  C   UNL     1      -2.542  -5.052   0.599  0.00  0.00    +0.264 A 
ATOM      9  O   UNL     1      -1.365  -4.922   0.879  0.00  0.00    -0.267 OA
ATOM     10  N   UNL     1      -3.154  -6.232   0.788  0.00  0.00    -0.276 N 
ATOM     11  C   UNL     1      -4.492  -6.409   0.478  0.00  0.00    +0.240 A 
ATOM     12  N   UNL     1      -5.229  -5.374  -0.034  0.00  0.00    -0.249 N 
ATOM     13  C   UNL     1      -6.504  -5.830  -0.243  0.00  0.00    +0.198 A 
ATOM     14  N   UNL     1      -6.551  -7.087   0.124  0.00  0.00    -0.120 NA
ATOM     15  N   UNL     1      -5.279  -7.455   0.580  0.00  0.00    -0.109 NA
ATOM     16  C   UNL     1      -3.543  -0.283  -1.106  0.00  0.00    +0.203 C 
ATOM     17  O   UNL     1      -2.124  -0.053  -1.143  0.00  0.00    -0.371 OA
ENDROOT
BRANCH   1  19
ATOM     18  C   UNL     1      -0.019   1.526   0.010  0.00  0.00    +0.010 C 
ATOM     19  C   UNL     1       0.002  -0.004   0.002  0.00  0.00    +0.012 C 
ATOM     20  C   UNL     1       0.742  -0.511   1.242  0.00  0.00    +0.010 C 
ENDBRANCH   1  19
BRANCH  13  21
ATOM     21  S   UNL     1      -7.846  -4.890  -0.889  0.00  0.00    -0.076 S 
BRANCH  21  22
ATOM     22  C   UNL     1      -9.231  -6.061  -0.913  0.00  0.00    +0.173 C 
BRANCH  22  23
ATOM     23  C   UNL     1     -10.460  -5.375  -1.452  0.00  0.00    +0.224 C 
ATOM     24  O   UNL     1     -10.407  -4.211  -1.788  0.00  0.00    -0.275 OA
ATOM     25  N   UNL     1     -11.618  -6.056  -1.562  0.00  0.00    -0.311 N 
ATOM     26  H   UNL     1     -11.661  -6.987  -1.293  0.00  0.00    +0.149 HD
BRANCH  25  27
ATOM     27  C   UNL     1     -12.813  -5.389  -2.086  0.00  0.00    +0.139 C 
BRANCH  27  28
ATOM     28  C   UNL     1     -13.963  -6.362  -2.105  0.00  0.00    -0.030 A 
ATOM     29  C   UNL     1     -14.187  -7.146  -3.221  0.00  0.00    +0.005 A 
ATOM     30  C   UNL     1     -15.242  -8.039  -3.239  0.00  0.00    +0.000 A 
ATOM     31  C   UNL     1     -16.074  -8.147  -2.140  0.00  0.00    +0.000 A 
ATOM     32  C   UNL     1     -15.850  -7.364  -1.024  0.00  0.00    +0.000 A 
ATOM     33  C   UNL     1     -14.792  -6.474  -1.004  0.00  0.00    +0.005 A 
ENDBRANCH  27  28
ENDBRANCH  25  27
ENDBRANCH  22  23
ENDBRANCH  21  22
ENDBRANCH  13  21
BRANCH  10  34
ATOM     34  C   UNL     1      -2.390  -7.357   1.334  0.00  0.00    +0.133 C 
BRANCH  34  35
ATOM     35  C   UNL     1      -2.486  -7.346   2.861  0.00  0.00    +0.057 C 
BRANCH  35  36
ATOM     36  C   UNL     1      -1.700  -8.502   3.423  0.00  0.00    -0.046 A 
ATOM     37  C   UNL     1      -2.314  -9.725   3.618  0.00  0.00    +0.004 A 
ATOM     38  C   UNL     1      -1.593 -10.786   4.133  0.00  0.00    +0.000 A 
ATOM     39  C   UNL     1      -0.258 -10.624   4.452  0.00  0.00    +0.000 A 
ATOM     40  C   UNL     1       0.357  -9.401   4.256  0.00  0.00    +0.000 A 
ATOM     41  C   UNL     1      -0.363  -8.341   3.737  0.00  0.00    +0.004 A 
ENDBRANCH  35  36
ENDBRANCH  34  35
ENDBRANCH  10  34
TORSDOF 9
