REMARK  Name = ZINC40030299
REMARK  9 active torsions:
REMARK  status: ('A' for Active; 'I' for Inactive)
REMARK    1  A    between atoms: C_1  and  C_2
REMARK    2  A    between atoms: C_5  and  C_8
REMARK    3  A    between atoms: C_8  and  O_9
REMARK    4  A    between atoms: O_9  and  C_10
REMARK    5  A    between atoms: C_14  and  C_16
REMARK    6  A    between atoms: C_16  and  C_18
REMARK    7  A    between atoms: N_22  and  C_32
REMARK    8  A    between atoms: C_23  and  C_25
REMARK    9  A    between atoms: C_32  and  C_33
REMARK                            x       y       z     vdW  Elec       q    Type
REMARK                         _______ _______ _______ _____ _____    ______ ____
ROOT
ATOM      1  C   UNL     1       4.522  -8.547  -0.076  0.00  0.00    +0.195 C 
ATOM      2  O   UNL     1       5.482  -7.810   0.043  0.00  0.00    -0.287 OA
ENDROOT
BRANCH   1   3
ATOM      3  C   UNL     1       4.693  -9.998   0.042  0.00  0.00    +0.076 C 
ATOM      4  C   UNL     1       5.381 -10.801  -0.804  0.00  0.00    +0.249 C 
ATOM      5  C   UNL     1       5.305 -12.196  -0.319  0.00  0.00    +0.288 C 
ATOM      6  O   UNL     1       5.822 -13.152  -0.862  0.00  0.00    -0.266 OA
ATOM      7  N   UNL     1       4.577 -12.249   0.811  0.00  0.00    -0.280 N 
ATOM      8  C   UNL     1       4.142 -10.886   1.133  0.00  0.00    +0.145 C 
ATOM      9  O   UNL     1       6.035 -10.392  -1.915  0.00  0.00    -0.282 OA
BRANCH   8  10
ATOM     10  C   UNL     1       4.693 -10.465   2.471  0.00  0.00    -0.022 A 
ATOM     11  C   UNL     1       6.017 -10.713   2.782  0.00  0.00    +0.007 A 
ATOM     12  C   UNL     1       6.523 -10.326   4.009  0.00  0.00    +0.015 A 
ATOM     13  C   UNL     1       5.704  -9.691   4.926  0.00  0.00    +0.018 A 
ATOM     14  C   UNL     1       4.379  -9.444   4.614  0.00  0.00    +0.015 A 
ATOM     15  C   UNL     1       3.876  -9.825   3.385  0.00  0.00    +0.007 A 
ATOM     16 BR   UNL     1       6.396  -9.163   6.605  0.00  0.00    -0.050 Br
ENDBRANCH   8  10
BRANCH   7  17
ATOM     17  C   UNL     1       4.278 -13.456   1.587  0.00  0.00    +0.136 C 
BRANCH  17  18
ATOM     18  C   UNL     1       5.354 -13.668   2.621  0.00  0.00    -0.016 C 
ATOM     19  C   UNL     1       5.032 -13.786   3.885  0.00  0.00    +0.005 C 
ENDBRANCH  17  18
ENDBRANCH   7  17
ENDBRANCH   1   3
BRANCH   1  24
ATOM     20  C   UNL     1       1.746  -6.072  -0.627  0.00  0.00    +0.122 A 
ATOM     21  C   UNL     1       0.666  -6.922  -0.831  0.00  0.00    +0.046 A 
ATOM     22  C   UNL     1       0.842  -8.293  -0.789  0.00  0.00    +0.004 A 
ATOM     23  C   UNL     1       2.091  -8.826  -0.544  0.00  0.00    +0.012 A 
ATOM     24  C   UNL     1       3.182  -7.980  -0.338  0.00  0.00    +0.026 A 
ATOM     25  C   UNL     1       3.004  -6.596  -0.386  0.00  0.00    +0.057 A 
BRANCH  20  26
ATOM     26  O   UNL     1       1.567  -4.726  -0.669  0.00  0.00    -0.487 OA
BRANCH  26  27
ATOM     27  C   UNL     1       0.242  -4.255  -0.921  0.00  0.00    +0.264 C 
BRANCH  27  32
ATOM     28  C   UNL     1       0.224   1.524  -0.960  0.00  0.00    +0.044 C 
ATOM     29  C   UNL     1       0.229   0.017  -0.950  0.00  0.00    -0.050 A 
ATOM     30  C   UNL     1       0.453  -0.681  -2.121  0.00  0.00    +0.004 A 
ATOM     31  C   UNL     1       0.458  -2.064  -2.112  0.00  0.00    +0.007 A 
ATOM     32  C   UNL     1       0.238  -2.748  -0.931  0.00  0.00    -0.010 A 
ATOM     33  C   UNL     1       0.014  -2.049   0.241  0.00  0.00    +0.007 A 
ATOM     34  C   UNL     1       0.014  -0.667   0.232  0.00  0.00    +0.004 A 
ENDBRANCH  27  32
ENDBRANCH  26  27
ENDBRANCH  20  26
ENDBRANCH   1  24
TORSDOF 8
