REMARK  Name = ZINC20206657
REMARK  9 active torsions:
REMARK  status: ('A' for Active; 'I' for Inactive)
REMARK    1  A    between atoms: C_1  and  C_2
REMARK    2  A    between atoms: C_2  and  C_3
REMARK    3  A    between atoms: C_3  and  C_4
REMARK    4  A    between atoms: C_4  and  C_5
REMARK    5  A    between atoms: C_9  and  C_11
REMARK    6  A    between atoms: C_11  and  N_12
REMARK    7  A    between atoms: C_15  and  C_18
REMARK    8  A    between atoms: C_18  and  C_25
REMARK    9  A    between atoms: C_25  and  C_26
REMARK                            x       y       z     vdW  Elec       q    Type
REMARK                         _______ _______ _______ _____ _____    ______ ____
ROOT
ATOM      1  N   UNL     1       1.313   7.128  -2.401  0.00  0.00    -0.297 NA
ATOM      2  C   UNL     1       1.694   5.921  -3.144  0.00  0.00    +0.085 C 
ATOM      3  C   UNL     1       2.731   6.282  -4.210  0.00  0.00    +0.021 C 
ATOM      4  C   UNL     1       2.136   7.324  -5.161  0.00  0.00    +0.024 C 
ATOM      5  C   UNL     1       1.704   8.552  -4.355  0.00  0.00    +0.021 C 
ATOM      6  C   UNL     1       0.697   8.125  -3.285  0.00  0.00    +0.085 C 
ENDROOT
BRANCH   4   7
ATOM      7  C   UNL     1       3.188   7.735  -6.194  0.00  0.00    +0.119 C 
ATOM      8  C   UNL     1       2.631   8.786  -7.134  0.00  0.00    +0.245 C 
ATOM      9  O   UNL     1       1.685   8.669  -7.884  0.00  0.00    -0.273 OA
ATOM     10  N   UNL     1       3.404   9.876  -6.962  0.00  0.00    -0.238 N 
ATOM     11  C   UNL     1       4.363   9.662  -6.053  0.00  0.00    +0.307 C 
ATOM     12  O   UNL     1       5.183  10.498  -5.728  0.00  0.00    -0.252 OA
ATOM     13  N   UNL     1       4.317   8.420  -5.540  0.00  0.00    -0.284 N 
ATOM     14  H   UNL     1       3.202  10.790  -7.540  0.00  0.00    +0.159 HD
ATOM     15  H   UNL     1       4.922   7.889  -4.790  0.00  0.00    +0.151 HD
BRANCH   7  16
ATOM     16  C   UNL     1       3.675   6.515  -6.978  0.00  0.00    +0.073 C 
BRANCH  16  17
ATOM     17  C   UNL     1       4.795   6.925  -7.900  0.00  0.00    -0.010 A 
ATOM     18  C   UNL     1       4.524   7.245  -9.217  0.00  0.00    +0.006 A 
ATOM     19  C   UNL     1       5.550   7.626 -10.062  0.00  0.00    +0.000 A 
ATOM     20  C   UNL     1       6.849   7.678  -9.593  0.00  0.00    +0.003 A 
ATOM     21  C   UNL     1       7.123   7.353  -8.278  0.00  0.00    +0.038 A 
ATOM     22  C   UNL     1       6.096   6.977  -7.429  0.00  0.00    +0.127 A 
ATOM     23  F   UNL     1       6.363   6.660  -6.144  0.00  0.00    -0.205 F 
ENDBRANCH  16  17
ENDBRANCH   7  16
ENDBRANCH   4   7
BRANCH   1  24
ATOM     24  C   UNL     1       0.424   6.798  -1.279  0.00  0.00    +0.139 C 
BRANCH  24  29
ATOM     25  C   UNL     1       1.396   3.562   0.008  0.00  0.00    +0.084 A 
ATOM     26  N   UNL     1       2.023   4.353   0.905  0.00  0.00    -0.350 N 
ATOM     27  H   UNL     1       2.612   3.903   1.718  0.00  0.00    +0.166 HD
ATOM     28  C   UNL     1       1.755   5.650   0.559  0.00  0.00    +0.106 A 
ATOM     29  C   UNL     1       0.973   5.607  -0.536  0.00  0.00    +0.047 A 
ATOM     30  N   UNL     1       0.774   4.319  -0.854  0.00  0.00    -0.346 N 
ATOM     31  H   UNL     1       0.204   3.862  -1.676  0.00  0.00    +0.167 HD
BRANCH  25  32
ATOM     32  C   UNL     1       1.417   2.055  -0.000  0.00  0.00    +0.072 C 
BRANCH  32  33
ATOM     33  C   UNL     1      -0.019   1.526   0.010  0.00  0.00    +0.007 C 
BRANCH  33  35
ATOM     34  C   UNL     1      -1.433  -0.534   0.013  0.00  0.00    +0.004 C 
ATOM     35  C   UNL     1       0.002  -0.004   0.002  0.00  0.00    -0.003 C 
ENDBRANCH  33  35
ENDBRANCH  32  33
ENDBRANCH  25  32
ENDBRANCH  24  29
ENDBRANCH   1  24
TORSDOF 8
