REMARK  Name = ZINC23459132
REMARK  8 active torsions:
REMARK  status: ('A' for Active; 'I' for Inactive)
REMARK    1  A    between atoms: C_1  and  C_2
REMARK    2  A    between atoms: C_2  and  O_3
REMARK    3  A    between atoms: O_3  and  C_4
REMARK    4  A    between atoms: C_4  and  C_6
REMARK    5  A    between atoms: C_10  and  N_11
REMARK    6  A    between atoms: C_12  and  C_14
REMARK    7  A    between atoms: C_23  and  C_26
REMARK    8  A    between atoms: C_23  and  C_28
REMARK                            x       y       z     vdW  Elec       q    Type
REMARK                         _______ _______ _______ _____ _____    ______ ____
ROOT
ATOM      1  C   UNL     1       1.242   2.094   0.001  0.00  0.00    +0.091 A 
ATOM      2  C   UNL     1       1.901   2.473   1.240  0.00  0.00    -0.021 A 
ATOM      3  C   UNL     1       3.054   3.160   1.090  0.00  0.00    -0.003 A 
ATOM      4  S   UNL     1       3.270   3.308  -0.661  0.00  0.00    -0.077 S 
ATOM      5  C   UNL     1       1.853   2.464  -1.190  0.00  0.00    +0.087 A 
ATOM      6  C   UNL     1       3.945   3.678   2.178  0.00  0.00    +0.069 C 
ATOM      7  C   UNL     1       3.552   2.990   3.493  0.00  0.00    +0.087 C 
ATOM      8  C   UNL     1       2.030   3.056   3.649  0.00  0.00    +0.031 C 
ATOM      9  C   UNL     1       1.362   2.138   2.625  0.00  0.00    +0.039 C 
ENDROOT
BRANCH   7  10
ATOM     10  C   UNL     1       4.210   3.698   4.649  0.00  0.00    -0.027 A 
ATOM     11  C   UNL     1       3.435   4.282   5.633  0.00  0.00    +0.005 A 
ATOM     12  C   UNL     1       4.038   4.928   6.696  0.00  0.00    +0.000 A 
ATOM     13  C   UNL     1       5.417   4.997   6.771  0.00  0.00    +0.000 A 
ATOM     14  C   UNL     1       6.192   4.417   5.784  0.00  0.00    +0.000 A 
ATOM     15  C   UNL     1       5.589   3.767   4.723  0.00  0.00    +0.005 A 
ENDBRANCH   7  10
BRANCH   5  16
ATOM     16  N   UNL     1       1.430   2.219  -2.486  0.00  0.00    -0.275 N 
ATOM     17  C   UNL     1       2.162   2.661  -3.528  0.00  0.00    +0.249 C 
ATOM     18  O   UNL     1       3.193   3.274  -3.330  0.00  0.00    -0.270 OA
ATOM     19  H   UNL     1       0.497   1.665  -2.665  0.00  0.00    +0.156 HD
BRANCH  17  20
ATOM     20  C   UNL     1       1.712   2.400  -4.910  0.00  0.00    +0.040 A 
ATOM     21  C   UNL     1       2.469   2.856  -5.992  0.00  0.00    +0.016 A 
ATOM     22  C   UNL     1       2.045   2.611  -7.280  0.00  0.00    +0.042 A 
ATOM     23  C   UNL     1       0.869   1.912  -7.505  0.00  0.00    +0.158 A 
ATOM     24  C   UNL     1       0.112   1.455  -6.434  0.00  0.00    +0.159 A 
ATOM     25  C   UNL     1       0.531   1.691  -5.140  0.00  0.00    +0.054 A 
ATOM     26  F   UNL     1      -1.033   0.775  -6.659  0.00  0.00    -0.202 F 
ATOM     27  F   UNL     1       0.458   1.675  -8.769  0.00  0.00    -0.202 F 
ENDBRANCH  17  20
ENDBRANCH   5  16
BRANCH   1  28
ATOM     28  C   UNL     1      -0.016   1.345   0.009  0.00  0.00    +0.342 C 
ATOM     29  O   UNL     1      -1.078   1.938   0.018  0.00  0.00    -0.245 OA
BRANCH  28  30
ATOM     30  O   UNL     1       0.002  -0.004   0.002  0.00  0.00    -0.461 OA
BRANCH  30  32
ATOM     31  C   UNL     1      -1.062  -2.195   0.000  0.00  0.00    +0.048 C 
ATOM     32  C   UNL     1      -1.282  -0.681   0.011  0.00  0.00    +0.229 C 
ENDBRANCH  30  32
ENDBRANCH  28  30
ENDBRANCH   1  28
BRANCH   7  33
ATOM     33  C   UNL     1       3.984   1.583   3.465  0.00  0.00    +0.074 C 
ATOM     34  N   UNL     1       4.318   0.497   3.444  0.00  0.00    -0.196 NA
ENDBRANCH   7  33
TORSDOF 7
