REMARK  Name = ZINC12566764
REMARK  8 active torsions:
REMARK  status: ('A' for Active; 'I' for Inactive)
REMARK    1  A    between atoms: C_1  and  C_2
REMARK    2  A    between atoms: C_2  and  C_3
REMARK    3  A    between atoms: C_6  and  N_9
REMARK    4  A    between atoms: C_19  and  S_20
REMARK    5  A    between atoms: S_20  and  C_21
REMARK    6  A    between atoms: C_27  and  N_29
REMARK    7  A    between atoms: N_29  and  S_30
REMARK    8  A    between atoms: S_30  and  C_33
REMARK                            x       y       z     vdW  Elec       q    Type
REMARK                         _______ _______ _______ _____ _____    ______ ____
ROOT
ATOM      1  N   UNL     1       3.585   2.124  -0.020  0.00  0.00    -0.255 N 
ATOM      2  C   UNL     1       4.761   1.461   0.074  0.00  0.00    +0.267 A 
ATOM      3  O   UNL     1       4.795   0.247   0.166  0.00  0.00    -0.267 OA
ATOM      4  C   UNL     1       5.994   2.258   0.056  0.00  0.00    +0.065 A 
ATOM      5  C   UNL     1       7.254   1.667   0.143  0.00  0.00    +0.015 A 
ATOM      6  C   UNL     1       8.371   2.457   0.129  0.00  0.00    +0.001 A 
ATOM      7  C   UNL     1       8.263   3.838   0.029  0.00  0.00    +0.002 A 
ATOM      8  C   UNL     1       7.041   4.443  -0.058  0.00  0.00    +0.028 A 
ATOM      9  C   UNL     1       5.880   3.663  -0.046  0.00  0.00    +0.079 A 
ATOM     10  N   UNL     1       4.650   4.221  -0.129  0.00  0.00    -0.223 NA
ATOM     11  C   UNL     1       3.563   3.489  -0.117  0.00  0.00    +0.177 A 
ENDROOT
BRANCH   1  15
ATOM     12  C   UNL     1       0.003  -0.005   0.001  0.00  0.00    -0.047 A 
ATOM     13  C   UNL     1       0.552   0.433   1.192  0.00  0.00    +0.005 A 
ATOM     14  C   UNL     1       1.739   1.139   1.188  0.00  0.00    +0.026 A 
ATOM     15  C   UNL     1       2.381   1.409  -0.013  0.00  0.00    +0.052 A 
ATOM     16  C   UNL     1       1.827   0.968  -1.207  0.00  0.00    +0.026 A 
ATOM     17  C   UNL     1       0.639   0.262  -1.197  0.00  0.00    +0.005 A 
BRANCH  12  19
ATOM     18  C   UNL     1      -2.466   0.200  -0.103  0.00  0.00    +0.009 C 
ATOM     19  C   UNL     1      -1.293  -0.775   0.009  0.00  0.00    +0.032 C 
ENDBRANCH  12  19
ENDBRANCH   1  15
BRANCH  11  20
ATOM     20  S   UNL     1       2.003   4.298  -0.229  0.00  0.00    -0.082 S 
BRANCH  20  21
ATOM     21  C   UNL     1       2.549   6.021  -0.331  0.00  0.00    +0.073 C 
ATOM     22  C   UNL     1       3.330   6.233  -1.629  0.00  0.00    +0.016 C 
ATOM     23  C   UNL     1       3.792   7.689  -1.714  0.00  0.00    +0.001 C 
ATOM     24  C   UNL     1       2.572   8.613  -1.697  0.00  0.00    +0.002 C 
ATOM     25  C   UNL     1       1.791   8.401  -0.398  0.00  0.00    +0.021 C 
ATOM     26  C   UNL     1       1.329   6.945  -0.313  0.00  0.00    +0.090 C 
BRANCH  26  27
ATOM     27  N   UNL     1       0.468   6.638  -1.457  0.00  0.00    -0.186 NA
ATOM     28  H   UNL     1       0.861   6.366  -2.301  0.00  0.00    +0.148 HD
BRANCH  27  29
ATOM     29  S   UNL     1      -1.178   6.754  -1.309  0.00  0.00    +0.059 S 
ATOM     30  O   UNL     1      -1.724   6.424  -2.579  0.00  0.00    -0.153 OA
ATOM     31  O   UNL     1      -1.530   6.055  -0.123  0.00  0.00    -0.153 OA
BRANCH  29  32
ATOM     32  C   UNL     1      -1.556   8.451  -1.024  0.00  0.00    +0.105 A 
ATOM     33  C   UNL     1      -1.617   8.938   0.268  0.00  0.00    +0.028 A 
ATOM     34  C   UNL     1      -1.910  10.271   0.491  0.00  0.00    +0.002 A 
ATOM     35  C   UNL     1      -2.151  11.114  -0.577  0.00  0.00    +0.000 A 
ATOM     36  C   UNL     1      -2.095  10.626  -1.869  0.00  0.00    +0.002 A 
ATOM     37  C   UNL     1      -1.798   9.294  -2.093  0.00  0.00    +0.028 A 
ENDBRANCH  29  32
ENDBRANCH  27  29
ENDBRANCH  26  27
ENDBRANCH  20  21
ENDBRANCH  11  20
TORSDOF 7
