REMARK  Name = ZINC28514617
REMARK  6 active torsions:
REMARK  status: ('A' for Active; 'I' for Inactive)
REMARK    1  A    between atoms: C_3  and  C_6
REMARK    2  A    between atoms: C_6  and  N_7
REMARK    3  A    between atoms: C_9  and  C_14
REMARK    4  A    between atoms: N_16  and  C_17
REMARK    5  A    between atoms: C_20  and  N_23
REMARK    6  A    between atoms: N_26  and  C_27
REMARK                            x       y       z     vdW  Elec       q    Type
REMARK                         _______ _______ _______ _____ _____    ______ ____
ROOT
ATOM      1  C   UNL     1       4.971   2.117   4.548  0.00  0.00    +0.222 C 
ATOM      2  O   UNL     1       4.131   2.992   4.544  0.00  0.00    -0.275 OA
ATOM      3  N   UNL     1       5.636   1.826   5.684  0.00  0.00    -0.285 N 
ATOM      4  H   UNL     1       6.259   1.083   5.705  0.00  0.00    +0.155 HD
ENDROOT
BRANCH   1   7
ATOM      5  N   UNL     1       4.075   0.661   1.325  0.00  0.00    -0.293 N 
ATOM      6  C   UNL     1       4.395   1.857   2.115  0.00  0.00    +0.121 C 
ATOM      7  C   UNL     1       5.272   1.355   3.283  0.00  0.00    +0.101 C 
ATOM      8  C   UNL     1       4.824  -0.119   3.405  0.00  0.00    +0.110 C 
ATOM      9  C   UNL     1       4.295  -0.462   2.029  0.00  0.00    +0.217 C 
ATOM     10  O   UNL     1       4.102  -1.587   1.620  0.00  0.00    -0.276 OA
BRANCH   5  11
ATOM     11  C   UNL     1       3.573   0.690  -0.051  0.00  0.00    +0.182 C 
BRANCH  11  14
ATOM     12  C   UNL     1      -0.033   1.448  -0.010  0.00  0.00    +0.041 A 
ATOM     13  C   UNL     1       1.319   1.860  -0.019  0.00  0.00    +0.046 A 
ATOM     14  C   UNL     1       2.067   0.742  -0.036  0.00  0.00    +0.122 A 
ATOM     15  O   UNL     1       1.244  -0.319  -0.037  0.00  0.00    -0.466 OA
ATOM     16  C   UNL     1      -0.030   0.103  -0.021  0.00  0.00    +0.195 A 
ENDBRANCH  11  14
ENDBRANCH   5  11
ENDBRANCH   1   7
BRANCH   3  17
ATOM     17  C   UNL     1       5.427   2.597   6.835  0.00  0.00    +0.034 A 
ATOM     18  C   UNL     1       6.481   2.850   7.703  0.00  0.00    +0.025 A 
ATOM     19  C   UNL     1       6.275   3.609   8.837  0.00  0.00    +0.025 A 
ATOM     20  C   UNL     1       5.013   4.120   9.111  0.00  0.00    +0.035 A 
ATOM     21  C   UNL     1       3.959   3.867   8.243  0.00  0.00    +0.025 A 
ATOM     22  C   UNL     1       4.166   3.113   7.106  0.00  0.00    +0.025 A 
BRANCH  20  23
ATOM     23  N   UNL     1       4.804   4.891  10.262  0.00  0.00    -0.269 N 
ATOM     24  C   UNL     1       3.633   4.808  10.924  0.00  0.00    +0.304 C 
ATOM     25  O   UNL     1       2.728   4.130  10.478  0.00  0.00    -0.253 OA
ATOM     26  N   UNL     1       3.465   5.478  12.082  0.00  0.00    -0.296 N 
ATOM     27  H   UNL     1       5.502   5.484  10.582  0.00  0.00    +0.156 HD
ATOM     28  H   UNL     1       4.187   6.019  12.439  0.00  0.00    +0.151 HD
BRANCH  26  29
ATOM     29  C   UNL     1       2.193   5.388  12.802  0.00  0.00    +0.075 C 
ATOM     30  C   UNL     1       1.610   6.683  13.371  0.00  0.00    +0.024 C 
ATOM     31  C   UNL     1       2.216   5.639  14.311  0.00  0.00    +0.024 C 
ENDBRANCH  26  29
ENDBRANCH  20  23
ENDBRANCH   3  17
TORSDOF 6
