REMARK  Name = ZINC32634554
REMARK  5 active torsions:
REMARK  status: ('A' for Active; 'I' for Inactive)
REMARK    1  A    between atoms: C_4  and  O_7
REMARK    2  A    between atoms: O_7  and  C_8
REMARK    3  A    between atoms: C_8  and  C_9
REMARK    4  A    between atoms: C_9  and  N_11
REMARK    5  A    between atoms: N_13  and  C_24
REMARK                            x       y       z     vdW  Elec       q    Type
REMARK                         _______ _______ _______ _____ _____    ______ ____
ROOT
ATOM      1  N   UNL     1       5.148  -3.819   0.204  0.00  0.00    -0.156 NA
ATOM      2  C   UNL     1       6.331  -4.364  -0.057  0.00  0.00    +0.154 C 
ATOM      3  N   UNL     1       7.552  -3.700  -0.204  0.00  0.00    -0.276 N 
ATOM      4  C   UNL     1       8.622  -4.520   0.278  0.00  0.00    +0.116 C 
ATOM      5  C   UNL     1      10.101  -4.184   0.230  0.00  0.00    +0.190 C 
ATOM      6  S   UNL     1      10.749  -5.834   0.786  0.00  0.00    -0.028 S 
ATOM      7  O   UNL     1      11.868  -6.187  -0.015  0.00  0.00    -0.174 OA
ATOM      8  O   UNL     1      10.874  -5.830   2.202  0.00  0.00    -0.174 OA
ATOM      9  C   UNL     1       9.306  -6.891   0.309  0.00  0.00    +0.182 C 
ATOM     10  C   UNL     1       8.480  -5.879  -0.509  0.00  0.00    +0.097 C 
ATOM     11  S   UNL     1       6.672  -6.010  -0.273  0.00  0.00    -0.086 S 
ENDROOT
BRANCH   3  12
ATOM     12  C   UNL     1       7.707  -2.418  -0.744  0.00  0.00    +0.037 A 
ATOM     13  C   UNL     1       8.231  -1.394   0.035  0.00  0.00    +0.023 A 
ATOM     14  C   UNL     1       8.382  -0.130  -0.501  0.00  0.00    +0.003 A 
ATOM     15  C   UNL     1       8.012   0.117  -1.810  0.00  0.00    +0.015 A 
ATOM     16  C   UNL     1       7.490  -0.901  -2.588  0.00  0.00    +0.020 A 
ATOM     17  C   UNL     1       7.342  -2.170  -2.060  0.00  0.00    +0.038 A 
ATOM     18 BR   UNL     1       6.986  -0.558  -4.378  0.00  0.00    -0.050 Br
ENDBRANCH   3  12
BRANCH   1  19
ATOM     19  C   UNL     1       5.059  -2.517   0.465  0.00  0.00    +0.276 C 
ATOM     20  O   UNL     1       5.686  -2.038   1.390  0.00  0.00    -0.270 OA
BRANCH  19  21
ATOM     21  C   UNL     1       4.180  -1.637  -0.385  0.00  0.00    +0.326 C 
BRANCH  21  22
ATOM     22  O   UNL     1       4.252  -0.291   0.090  0.00  0.00    -0.483 OA
BRANCH  22  26
ATOM     23  C   UNL     1       2.008   2.527  -1.920  0.00  0.00    +0.000 A 
ATOM     24  C   UNL     1       2.782   2.905  -0.839  0.00  0.00    +0.004 A 
ATOM     25  C   UNL     1       3.534   1.963  -0.164  0.00  0.00    +0.045 A 
ATOM     26  C   UNL     1       3.512   0.637  -0.572  0.00  0.00    +0.121 A 
ATOM     27  C   UNL     1       2.734   0.261  -1.657  0.00  0.00    +0.045 A 
ATOM     28  C   UNL     1       1.984   1.206  -2.329  0.00  0.00    +0.004 A 
ENDBRANCH  22  26
ENDBRANCH  21  22
ENDBRANCH  19  21
ENDBRANCH   1  19
TORSDOF 5
