REMARK  Name = ZINC13073965
REMARK  10 active torsions:
REMARK  status: ('A' for Active; 'I' for Inactive)
REMARK    1  A    between atoms: C_1  and  C_2
REMARK    2  A    between atoms: C_2  and  C_3
REMARK    3  A    between atoms: C_2  and  C_4
REMARK    4  A    between atoms: C_7  and  C_10
REMARK    5  A    between atoms: C_13  and  C_15
REMARK    6  A    between atoms: N_19  and  C_23
REMARK    7  A    between atoms: C_23  and  C_25
REMARK    8  A    between atoms: C_23  and  C_29
REMARK    9  A    between atoms: C_25  and  C_26
REMARK   10  A    between atoms: C_26  and  C_27
REMARK                            x       y       z     vdW  Elec       q    Type
REMARK                         _______ _______ _______ _____ _____    ______ ____
ROOT
ATOM      1  C   UNL     1      -0.013   1.076   0.008  0.00  0.00    +0.066 C 
ATOM      2  C   UNL     1      -1.204   1.742   0.017  0.00  0.00    +0.080 C 
ATOM      3  C   UNL     1      -2.576   1.210   0.021  0.00  0.00    +0.259 C 
ATOM      4  O   UNL     1      -2.797   0.012   0.015  0.00  0.00    -0.269 OA
ATOM      5  N   UNL     1      -3.558   2.096   0.031  0.00  0.00    -0.241 N 
ATOM      6  C   UNL     1      -3.309   3.422   0.037  0.00  0.00    +0.121 C 
ATOM      7  S   UNL     1      -4.432   4.715   0.050  0.00  0.00    -0.027 S 
ATOM      8  S   UNL     1      -1.526   3.501   0.036  0.00  0.00    -0.061 S 
ENDROOT
BRANCH   1  12
ATOM      9  C   UNL     1       2.627   3.471  -0.005  0.00  0.00    +0.136 A 
ATOM     10  C   UNL     1       3.369   2.323  -0.018  0.00  0.00    +0.050 A 
ATOM     11  C   UNL     1       2.471   1.252  -0.015  0.00  0.00    +0.050 A 
ATOM     12  C   UNL     1       1.200   1.798   0.000  0.00  0.00    +0.130 A 
ATOM     13  O   UNL     1       1.323   3.142   0.000  0.00  0.00    -0.455 OA
BRANCH   9  17
ATOM     14  C   UNL     1       4.183   7.421   0.000  0.00  0.00    -0.045 A 
ATOM     15  C   UNL     1       2.814   7.220   0.012  0.00  0.00    +0.004 A 
ATOM     16  C   UNL     1       2.301   5.939   0.010  0.00  0.00    +0.012 A 
ATOM     17  C   UNL     1       3.168   4.844  -0.004  0.00  0.00    +0.017 A 
ATOM     18  C   UNL     1       4.550   5.054  -0.010  0.00  0.00    +0.012 A 
ATOM     19  C   UNL     1       5.048   6.340  -0.013  0.00  0.00    +0.004 A 
BRANCH  14  21
ATOM     20  C   UNL     1       5.606   9.027   1.244  0.00  0.00    +0.012 C 
ATOM     21  C   UNL     1       4.736   8.823   0.002  0.00  0.00    +0.013 C 
ATOM     22  C   UNL     1       5.581   9.039  -1.255  0.00  0.00    +0.012 C 
ENDBRANCH  14  21
ENDBRANCH   9  17
ENDBRANCH   1  12
BRANCH   5  23
ATOM     23  C   UNL     1      -4.946   1.627   0.035  0.00  0.00    +0.196 C 
BRANCH  23  24
ATOM     24  C   UNL     1      -5.643   2.133   1.272  0.00  0.00    +0.376 C 
ATOM     25  O   UNL     1      -5.042   2.815   2.068  0.00  0.00    -0.244 OA
ATOM     26  O   UNL     1      -6.931   1.826   1.490  0.00  0.00    -0.244 OA
ENDBRANCH  23  24
BRANCH  23  27
ATOM     27  C   UNL     1      -5.666   2.155  -1.207  0.00  0.00    +0.046 C 
BRANCH  27  28
ATOM     28  C   UNL     1      -5.037   1.542  -2.460  0.00  0.00    +0.127 C 
BRANCH  28  29
ATOM     29  C   UNL     1      -5.746   2.061  -3.684  0.00  0.00    +0.356 C 
ATOM     30  O   UNL     1      -6.662   2.841  -3.567  0.00  0.00    -0.246 OA
ATOM     31  O   UNL     1      -5.361   1.658  -4.905  0.00  0.00    -0.246 OA
ENDBRANCH  28  29
ENDBRANCH  27  28
ENDBRANCH  23  27
ENDBRANCH   5  23
TORSDOF 8
