REMARK  Name = ZINC11369601
REMARK  7 active torsions:
REMARK  status: ('A' for Active; 'I' for Inactive)
REMARK    1  A    between atoms: C_1  and  C_2
REMARK    2  A    between atoms: C_2  and  C_4
REMARK    3  A    between atoms: C_2  and  N_10
REMARK    4  A    between atoms: C_11  and  C_13
REMARK    5  A    between atoms: C_18  and  N_19
REMARK    6  A    between atoms: C_20  and  C_22
REMARK    7  A    between atoms: C_22  and  N_23
REMARK                            x       y       z     vdW  Elec       q    Type
REMARK                         _______ _______ _______ _____ _____    ______ ____
ROOT
ATOM      1  N   UNL     1      -1.173  -0.713   0.011  0.00  0.00    -0.284 N 
ATOM      2  C   UNL     1      -2.346  -0.059   0.124  0.00  0.00    +0.235 C 
ATOM      3  O   UNL     1      -2.365   1.154   0.126  0.00  0.00    -0.274 OA
ATOM      4  H   UNL     1      -1.162  -1.681  -0.056  0.00  0.00    +0.155 HD
ENDROOT
BRANCH   1  10
ATOM      5  C   UNL     1       1.172  -0.535   0.593  0.00  0.00    +0.058 A 
ATOM      6  C   UNL     1       2.366   0.190   0.567  0.00  0.00    +0.015 A 
ATOM      7  C   UNL     1       2.408   1.423  -0.048  0.00  0.00    +0.001 A 
ATOM      8  C   UNL     1       1.271   1.948  -0.641  0.00  0.00    +0.002 A 
ATOM      9  C   UNL     1       0.085   1.243  -0.623  0.00  0.00    +0.024 A 
ATOM     10  C   UNL     1       0.024  -0.001  -0.009  0.00  0.00    +0.046 A 
BRANCH   5  12
ATOM     11  N   UNL     1       2.198  -2.321   1.912  0.00  0.00    -0.305 N 
ATOM     12  C   UNL     1       1.121  -1.855   1.249  0.00  0.00    +0.246 C 
ATOM     13  O   UNL     1       0.106  -2.523   1.192  0.00  0.00    -0.270 OA
ATOM     14  H   UNL     1       3.007  -1.788   1.958  0.00  0.00    +0.150 HD
BRANCH  11  16
ATOM     15  C   UNL     1       1.534  -3.485   3.958  0.00  0.00    +0.033 C 
ATOM     16  C   UNL     1       2.146  -3.632   2.564  0.00  0.00    +0.100 C 
BRANCH  16  17
ATOM     17  C   UNL     1       3.542  -4.189   2.684  0.00  0.00    -0.027 A 
ATOM     18  C   UNL     1       4.593  -3.353   3.013  0.00  0.00    +0.005 A 
ATOM     19  C   UNL     1       5.872  -3.865   3.127  0.00  0.00    +0.000 A 
ATOM     20  C   UNL     1       6.102  -5.209   2.903  0.00  0.00    +0.000 A 
ATOM     21  C   UNL     1       5.051  -6.043   2.569  0.00  0.00    +0.000 A 
ATOM     22  C   UNL     1       3.771  -5.533   2.459  0.00  0.00    +0.005 A 
ENDBRANCH  16  17
ENDBRANCH  11  16
ENDBRANCH   5  12
ENDBRANCH   1  10
BRANCH   2  23
ATOM     23  C   UNL     1      -3.632  -0.834   0.247  0.00  0.00    +0.214 C 
BRANCH  23  24
ATOM     24  N   UNL     1      -4.756   0.100   0.355  0.00  0.00    -0.215 N 
ATOM     25  C   UNL     1      -5.234   0.579   1.522  0.00  0.00    +0.251 C 
ATOM     26  O   UNL     1      -4.832   0.329   2.638  0.00  0.00    -0.272 OA
ATOM     27  C   UNL     1      -6.377   1.497   1.145  0.00  0.00    +0.138 C 
ATOM     28  C   UNL     1      -7.679   0.985   1.748  0.00  0.00    +0.040 C 
ATOM     29  C   UNL     1      -8.772   2.033   1.506  0.00  0.00    +0.008 C 
ATOM     30  C   UNL     1      -8.463   3.260   2.361  0.00  0.00    +0.035 C 
ATOM     31  C   UNL     1      -7.046   3.720   2.137  0.00  0.00    -0.042 A 
ATOM     32  C   UNL     1      -6.083   2.904   1.583  0.00  0.00    -0.012 A 
ATOM     33  C   UNL     1      -4.791   3.383   1.415  0.00  0.00    +0.006 A 
ATOM     34  C   UNL     1      -4.465   4.669   1.793  0.00  0.00    +0.000 A 
ATOM     35  C   UNL     1      -5.431   5.488   2.346  0.00  0.00    +0.000 A 
ATOM     36  C   UNL     1      -6.716   5.014   2.517  0.00  0.00    +0.004 A 
ATOM     37  N   UNL     1      -6.425   1.418  -0.321  0.00  0.00    -0.281 N 
ATOM     38  C   UNL     1      -5.439   0.579  -0.692  0.00  0.00    +0.310 C 
ATOM     39  O   UNL     1      -5.197   0.289  -1.847  0.00  0.00    -0.252 OA
ATOM     40  H   UNL     1      -7.045   1.880  -0.907  0.00  0.00    +0.152 HD
ENDBRANCH  23  24
ENDBRANCH   2  23
TORSDOF 6
