REMARK  Name = ZINC58251972
REMARK  6 active torsions:
REMARK  status: ('A' for Active; 'I' for Inactive)
REMARK    1  A    between atoms: C_1  and  C_2
REMARK    2  A    between atoms: C_1  and  C_6
REMARK    3  A    between atoms: C_2  and  C_3
REMARK    4  A    between atoms: C_6  and  S_7
REMARK    5  A    between atoms: S_7  and  C_8
REMARK    6  A    between atoms: C_8  and  C_9
REMARK                            x       y       z     vdW  Elec       q    Type
REMARK                         _______ _______ _______ _____ _____    ______ ____
ROOT
ATOM      1  C   UNL     1       1.417   2.055  -0.000  0.00  0.00    +0.070 C 
ENDROOT
BRANCH   1   2
ATOM      2  C   UNL     1      -0.019   1.526   0.010  0.00  0.00    +0.022 C 
BRANCH   2   3
ATOM      3  C   UNL     1       0.002  -0.004   0.002  0.00  0.00    +0.126 C 
BRANCH   3   4
ATOM      4  C   UNL     1      -1.412  -0.526   0.013  0.00  0.00    +0.356 C 
ATOM      5  O   UNL     1      -2.349   0.254   0.026  0.00  0.00    -0.246 OA
ATOM      6  O   UNL     1      -1.618  -1.727   0.008  0.00  0.00    -0.246 OA
ENDBRANCH   3   4
ENDBRANCH   2   3
ENDBRANCH   1   2
BRANCH   1   7
ATOM      7  S   UNL     1       1.392   3.869   0.009  0.00  0.00    -0.149 S 
BRANCH   7   8
ATOM      8  C   UNL     1       3.146   4.332  -0.005  0.00  0.00    +0.194 C 
BRANCH   8   9
ATOM      9  C   UNL     1       3.269   5.834   0.002  0.00  0.00    +0.366 C 
ATOM     10  O   UNL     1       2.267   6.528   0.015  0.00  0.00    -0.245 OA
ATOM     11  O   UNL     1       4.372   6.355  -0.006  0.00  0.00    -0.245 OA
ENDBRANCH   8   9
ENDBRANCH   7   8
ENDBRANCH   1   7
TORSDOF 6
