REMARK  Name = ZINC02642498
REMARK  14 active torsions:
REMARK  status: ('A' for Active; 'I' for Inactive)
REMARK    1  A    between atoms: C_1  and  C_2
REMARK    2  A    between atoms: C_2  and  O_3
REMARK    3  A    between atoms: O_3  and  C_4
REMARK    4  A    between atoms: C_4  and  C_6
REMARK    5  A    between atoms: C_7  and  C_37
REMARK    6  A    between atoms: C_8  and  C_32
REMARK    7  A    between atoms: C_10  and  N_11
REMARK    8  A    between atoms: C_12  and  C_14
REMARK    9  A    between atoms: C_14  and  O_15
REMARK   10  A    between atoms: O_15  and  C_16
REMARK   11  A    between atoms: C_16  and  C_18
REMARK   12  A    between atoms: C_19  and  C_31
REMARK   13  A    between atoms: N_34  and  C_35
REMARK   14  A    between atoms: N_34  and  C_36
REMARK                            x       y       z     vdW  Elec       q    Type
REMARK                         _______ _______ _______ _____ _____    ______ ____
ROOT
ATOM      1  N   UNL     1       4.815   1.773   1.357  0.00  0.00    -0.277 N 
ATOM      2  C   UNL     1       3.572   2.292   1.391  0.00  0.00    +0.255 C 
ATOM      3  O   UNL     1       3.402   3.474   1.177  0.00  0.00    -0.272 OA
ATOM      4  H   UNL     1       4.950   0.828   1.528  0.00  0.00    +0.155 HD
ENDROOT
BRANCH   1   9
ATOM      5  C   UNL     1       7.249   2.240   0.996  0.00  0.00    +0.091 A 
ATOM      6  C   UNL     1       8.155   3.247   0.696  0.00  0.00    -0.015 A 
ATOM      7  C   UNL     1       7.662   4.508   0.501  0.00  0.00    +0.079 A 
ATOM      8  S   UNL     1       5.909   4.285   0.732  0.00  0.00    -0.068 S 
ATOM      9  C   UNL     1       5.896   2.586   1.077  0.00  0.00    +0.087 A 
ATOM     10  C   UNL     1       9.631   2.961   0.590  0.00  0.00    +0.046 C 
BRANCH   7  11
ATOM     11  C   UNL     1       8.393   5.735   0.176  0.00  0.00    +0.253 C 
ATOM     12  O   UNL     1       9.610   5.741   0.192  0.00  0.00    -0.269 OA
ATOM     13  N   UNL     1       7.718   6.858  -0.140  0.00  0.00    -0.303 N 
ATOM     14  C   UNL     1       8.448   8.076  -0.498  0.00  0.00    +0.132 C 
ATOM     15  C   UNL     1       6.253   6.860  -0.125  0.00  0.00    +0.132 C 
ENDBRANCH   7  11
BRANCH   5  16
ATOM     16  C   UNL     1       7.694   0.861   1.220  0.00  0.00    +0.342 C 
ATOM     17  O   UNL     1       7.765   0.085   0.286  0.00  0.00    -0.245 OA
BRANCH  16  18
ATOM     18  O   UNL     1       8.024   0.452   2.462  0.00  0.00    -0.461 OA
BRANCH  18  20
ATOM     19  C   UNL     1       8.786  -1.203   4.078  0.00  0.00    +0.048 C 
ATOM     20  C   UNL     1       8.456  -0.926   2.610  0.00  0.00    +0.229 C 
ENDBRANCH  18  20
ENDBRANCH  16  18
ENDBRANCH   5  16
ENDBRANCH   1   9
BRANCH   2  21
ATOM     21  C   UNL     1       2.393   1.405   1.697  0.00  0.00    +0.328 C 
BRANCH  21  22
ATOM     22  O   UNL     1       1.174   2.195   1.676  0.00  0.00    -0.450 OA
BRANCH  22  23
ATOM     23  C   UNL     1       0.020   1.547   1.931  0.00  0.00    +0.376 C 
ATOM     24  O   UNL     1       0.031   0.353   2.166  0.00  0.00    -0.241 OA
BRANCH  23  25
ATOM     25  C   UNL     1      -1.251   2.280   1.921  0.00  0.00    +0.216 A 
ATOM     26  C   UNL     1      -2.475   1.737   2.157  0.00  0.00    +0.010 A 
ATOM     27  C   UNL     1      -3.419   2.788   2.049  0.00  0.00    +0.025 A 
ATOM     28  C   UNL     1      -4.822   2.845   2.186  0.00  0.00    +0.012 A 
ATOM     29  C   UNL     1      -5.486   4.013   2.027  0.00  0.00    +0.009 A 
ATOM     30  C   UNL     1      -4.783   5.197   1.718  0.00  0.00    -0.014 A 
ATOM     31  C   UNL     1      -5.462   6.414   1.550  0.00  0.00    +0.008 A 
ATOM     32  C   UNL     1      -4.760   7.545   1.254  0.00  0.00    +0.001 A 
ATOM     33  C   UNL     1      -3.376   7.512   1.114  0.00  0.00    +0.001 A 
ATOM     34  C   UNL     1      -2.685   6.347   1.270  0.00  0.00    +0.012 A 
ATOM     35  C   UNL     1      -3.376   5.165   1.576  0.00  0.00    +0.025 A 
ATOM     36  C   UNL     1      -2.689   3.942   1.744  0.00  0.00    +0.144 A 
ATOM     37  O   UNL     1      -1.390   3.601   1.680  0.00  0.00    -0.447 OA
ATOM     38  C   UNL     1      -2.771   0.293   2.474  0.00  0.00    +0.048 C 
ENDBRANCH  23  25
ENDBRANCH  22  23
ENDBRANCH  21  22
ENDBRANCH   2  21
TORSDOF 9
