REMARK  Name = ZINC53734886
REMARK  4 active torsions:
REMARK  status: ('A' for Active; 'I' for Inactive)
REMARK    1  A    between atoms: C_1  and  C_2
REMARK    2  A    between atoms: C_5  and  N_19
REMARK    3  A    between atoms: C_7  and  N_8
REMARK    4  A    between atoms: C_16  and  N_17
REMARK                            x       y       z     vdW  Elec       q    Type
REMARK                         _______ _______ _______ _____ _____    ______ ____
ROOT
ATOM      1  N   UNL     1       0.025  -0.016   2.415  0.00  0.00    -0.325 N 
ATOM      2  C   UNL     1      -1.231   0.339   3.096  0.00  0.00    +0.110 C 
ATOM      3  C   UNL     1      -1.274  -0.413   4.425  0.00  0.00    +0.056 C 
ATOM      4  C   UNL     1       0.032  -0.277   5.162  0.00  0.00    -0.021 A 
ATOM      5  C   UNL     1       1.208   0.074   4.539  0.00  0.00    -0.025 A 
ATOM      6  C   UNL     1       2.381   0.166   5.276  0.00  0.00    +0.005 A 
ATOM      7  C   UNL     1       2.380  -0.080   6.635  0.00  0.00    +0.002 A 
ATOM      8  C   UNL     1       1.202  -0.422   7.269  0.00  0.00    +0.023 A 
ATOM      9  C   UNL     1       0.030  -0.522   6.536  0.00  0.00    +0.028 A 
ATOM     10  C   UNL     1       1.279   0.377   3.067  0.00  0.00    +0.140 C 
ENDROOT
BRANCH   1  17
ATOM     11  C   UNL     1      -0.018   1.503   0.010  0.00  0.00    +0.045 C 
ATOM     12  C   UNL     1       0.002  -0.004   0.002  0.00  0.00    -0.029 A 
ATOM     13  C   UNL     1       0.006  -0.689  -1.198  0.00  0.00    +0.007 A 
ATOM     14  C   UNL     1       0.025  -2.071  -1.206  0.00  0.00    +0.033 A 
ATOM     15  C   UNL     1       0.040  -2.773  -0.014  0.00  0.00    +0.128 A 
ATOM     16  C   UNL     1       0.036  -2.095   1.188  0.00  0.00    +0.056 A 
ATOM     17  C   UNL     1       0.023  -0.706   1.200  0.00  0.00    +0.035 A 
BRANCH  15  18
ATOM     18  N   UNL     1       0.059  -4.253  -0.028  0.00  0.00    +0.056 N 
ATOM     19  O   UNL     1       0.062  -4.848  -1.081  0.00  0.00    -0.126 OA
ATOM     20  O   UNL     1       0.072  -4.867   1.013  0.00  0.00    -0.126 OA
ENDBRANCH  15  18
ENDBRANCH   1  17
BRANCH   9  21
ATOM     21  N   UNL     1      -1.162  -0.870   7.176  0.00  0.00    -0.358 N 
ATOM     22  H   UNL     1      -1.984  -0.941   6.666  0.00  0.00    +0.142 HD
ATOM     23  H   UNL     1      -1.167  -1.042   8.131  0.00  0.00    +0.142 HD
ENDBRANCH   9  21
TORSDOF 3
