REMARK  Name = ZINC01913189
REMARK  16 active torsions:
REMARK  status: ('A' for Active; 'I' for Inactive)
REMARK    1  A    between atoms: C_1  and  C_2
REMARK    2  A    between atoms: C_2  and  C_3
REMARK    3  A    between atoms: C_3  and  C_4
REMARK    4  A    between atoms: C_4  and  N_67
REMARK    5  A    between atoms: C_5  and  C_6
REMARK    6  A    between atoms: C_5  and  N_67
REMARK    7  A    between atoms: C_6  and  C_7
REMARK    8  A    between atoms: C_7  and  C_8
REMARK    9  A    between atoms: C_9  and  C_10
REMARK   10  A    between atoms: C_9  and  N_67
REMARK   11  A    between atoms: C_11  and  O_34
REMARK   12  A    between atoms: C_17  and  C_30
REMARK   13  A    between atoms: C_18  and  O_21
REMARK   14  A    between atoms: O_21  and  C_22
REMARK   15  A    between atoms: C_25  and  C_28
REMARK   16  A    between atoms: C_28  and  C_29
REMARK                            x       y       z     vdW  Elec       q    Type
REMARK                         _______ _______ _______ _____ _____    ______ ____
ROOT
ATOM      1  C   UNL     1      -1.547   7.389   0.251  0.00  0.00    +0.020 A 
ATOM      2  C   UNL     1      -1.681   8.161   1.393  0.00  0.00    +0.122 A 
ATOM      3  C   UNL     1      -2.045   7.577   2.604  0.00  0.00    +0.046 A 
ATOM      4  C   UNL     1      -2.276   6.233   2.682  0.00  0.00    +0.019 A 
ATOM      5  C   UNL     1      -2.146   5.442   1.540  0.00  0.00    +0.068 A 
ATOM      6  C   UNL     1      -1.778   6.022   0.313  0.00  0.00    +0.144 A 
ATOM      7  O   UNL     1      -1.655   5.247  -0.783  0.00  0.00    -0.447 OA
ATOM      8  C   UNL     1      -1.872   3.925  -0.757  0.00  0.00    +0.254 A 
ATOM      9  C   UNL     1      -2.228   3.268   0.364  0.00  0.00    +0.222 A 
ATOM     10  C   UNL     1      -2.391   3.990   1.581  0.00  0.00    +0.235 A 
ATOM     11  O   UNL     1      -2.717   3.429   2.614  0.00  0.00    -0.283 OA
ENDROOT
BRANCH   8  12
ATOM     12  C   UNL     1      -1.710   3.142  -2.034  0.00  0.00    +0.454 C 
ATOM     13  F   UNL     1      -2.932   3.101  -2.714  0.00  0.00    -0.163 F 
ATOM     14  F   UNL     1      -0.748   3.757  -2.841  0.00  0.00    -0.163 F 
ATOM     15  F   UNL     1      -1.301   1.838  -1.732  0.00  0.00    -0.163 F 
ENDBRANCH   8  12
BRANCH   2  16
ATOM     16  O   UNL     1      -1.454   9.498   1.332  0.00  0.00    -0.506 OA
ATOM     17  H   UNL     1      -2.240  10.021   1.123  0.00  0.00    +0.292 HD
ENDBRANCH   2  16
BRANCH   1  18
ATOM     18  C   UNL     1      -1.153   8.031  -1.054  0.00  0.00    -0.036 C 
BRANCH  18  19
ATOM     19  N   UNL     1      -2.376   8.467  -1.759  0.00  0.00    +0.383 N 
ATOM     20  H   UNL     1      -2.946   9.033  -1.120  0.00  0.00    -0.081 HD
BRANCH  19  21
ATOM     21  C   UNL     1      -2.016   9.288  -2.935  0.00  0.00    -0.078 C 
BRANCH  21  22
ATOM     22  C   UNL     1      -1.633  10.690  -2.455  0.00  0.00    -0.019 C 
BRANCH  22  24
ATOM     23  C   UNL     1      -1.011  12.997  -3.185  0.00  0.00    +0.004 C 
ATOM     24  C   UNL     1      -1.394  11.595  -3.665  0.00  0.00    -0.005 C 
ENDBRANCH  22  24
ENDBRANCH  21  22
ENDBRANCH  19  21
BRANCH  19  25
ATOM     25  C   UNL     1      -3.160   7.290  -2.187  0.00  0.00    -0.078 C 
BRANCH  25  26
ATOM     26  C   UNL     1      -4.561   7.752  -2.591  0.00  0.00    -0.019 C 
BRANCH  26  27
ATOM     27  C   UNL     1      -5.391   6.543  -3.029  0.00  0.00    -0.005 C 
ATOM     28  C   UNL     1      -6.792   7.006  -3.433  0.00  0.00    +0.004 C 
ENDBRANCH  26  27
ENDBRANCH  25  26
ENDBRANCH  19  25
ENDBRANCH  18  19
ENDBRANCH   1  18
BRANCH   9  29
ATOM     29  O   UNL     1      -2.435   1.923   0.333  0.00  0.00    -0.448 OA
BRANCH  29  30
ATOM     30  C   UNL     1      -1.375   1.108   0.577  0.00  0.00    +0.129 A 
ATOM     31  C   UNL     1      -0.127   1.653   0.843  0.00  0.00    +0.046 A 
ATOM     32  C   UNL     1       0.950   0.822   1.085  0.00  0.00    +0.007 A 
ATOM     33  C   UNL     1       0.785  -0.551   1.063  0.00  0.00    -0.047 A 
ATOM     34  C   UNL     1      -0.458  -1.096   0.799  0.00  0.00    +0.007 A 
ATOM     35  C   UNL     1      -1.538  -0.270   0.556  0.00  0.00    +0.046 A 
BRANCH  33  36
ATOM     36  C   UNL     1       1.962  -1.454   1.328  0.00  0.00    +0.032 C 
ATOM     37  C   UNL     1       2.666  -1.774   0.008  0.00  0.00    +0.009 C 
ENDBRANCH  33  36
ENDBRANCH  29  30
ENDBRANCH   9  29
TORSDOF 13
