REMARK  Name = ZINC20821114
REMARK  7 active torsions:
REMARK  status: ('A' for Active; 'I' for Inactive)
REMARK    1  A    between atoms: C_1  and  N_2
REMARK    2  A    between atoms: N_2  and  C_3
REMARK    3  A    between atoms: C_4  and  C_6
REMARK    4  A    between atoms: C_7  and  C_16
REMARK    5  A    between atoms: C_16  and  N_17
REMARK    6  A    between atoms: N_17  and  C_18
REMARK    7  A    between atoms: N_21  and  C_24
REMARK                            x       y       z     vdW  Elec       q    Type
REMARK                         _______ _______ _______ _____ _____    ______ ____
ROOT
ATOM      1  C   UNL     1       7.956  -2.998   2.812  0.00  0.00    -0.025 C 
ENDROOT
BRANCH   1   3
ATOM      2  C   UNL     1       9.274  -5.075   2.083  0.00  0.00    +0.146 A 
ATOM      3  C   UNL     1       9.209  -3.800   2.568  0.00  0.00    +0.039 A 
ATOM      4  N   UNL     1      10.488  -3.392   2.794  0.00  0.00    -0.303 N 
ATOM      5  C   UNL     1      11.009  -2.223   3.275  0.00  0.00    +0.113 A 
ATOM      6  C   UNL     1      12.343  -2.068   3.408  0.00  0.00    +0.058 A 
ATOM      7  C   UNL     1      13.217  -3.110   3.051  0.00  0.00    +0.025 A 
ATOM      8  C   UNL     1      12.714  -4.277   2.571  0.00  0.00    +0.048 A 
ATOM      9  C   UNL     1      11.317  -4.426   2.438  0.00  0.00    +0.139 A 
ATOM     10  N   UNL     1      10.570  -5.430   2.010  0.00  0.00    -0.223 NA
ATOM     11 CL   UNL     1      12.982  -0.575   4.021  0.00  0.00    -0.082 Cl
BRANCH   2  15
ATOM     12  C   UNL     1       7.186  -7.938   0.716  0.00  0.00    +0.132 C 
ATOM     13  N   UNL     1       8.328  -7.126   1.144  0.00  0.00    -0.302 N 
ATOM     14  C   UNL     1       9.692  -7.628   0.963  0.00  0.00    +0.132 C 
ATOM     15  C   UNL     1       8.123  -5.917   1.703  0.00  0.00    +0.266 C 
ATOM     16  O   UNL     1       6.990  -5.520   1.895  0.00  0.00    -0.268 OA
ENDBRANCH   2  15
ENDBRANCH   1   3
BRANCH   1  17
ATOM     17  N   UNL     1       7.618  -2.237   1.601  0.00  0.00    +0.385 N 
ATOM     18  H   UNL     1       8.446  -1.557   1.352  0.00  0.00    -0.085 HD
ATOM     19  H   UNL     1       7.451  -2.933   0.766  0.00  0.00    -0.085 HD
BRANCH  17  20
ATOM     20  C   UNL     1       6.400  -1.441   1.803  0.00  0.00    -0.068 C 
ATOM     21  C   UNL     1       6.407  -0.244   0.849  0.00  0.00    +0.003 C 
ATOM     22  C   UNL     1       5.109   0.548   1.021  0.00  0.00    +0.103 C 
ATOM     23  N   UNL     1       3.962  -0.323   0.734  0.00  0.00    -0.330 N 
ATOM     24  C   UNL     1       3.907  -1.454   1.668  0.00  0.00    +0.103 C 
ATOM     25  C   UNL     1       5.169  -2.306   1.515  0.00  0.00    +0.003 C 
BRANCH  23  26
ATOM     26  C   UNL     1       2.767   0.401   0.754  0.00  0.00    +0.030 A 
ATOM     27  C   UNL     1       1.561  -0.240   0.505  0.00  0.00    +0.023 A 
ATOM     28  C   UNL     1       0.381   0.478   0.525  0.00  0.00    +0.002 A 
ATOM     29  C   UNL     1       0.401   1.835   0.792  0.00  0.00    +0.000 A 
ATOM     30  C   UNL     1       1.601   2.477   1.040  0.00  0.00    +0.002 A 
ATOM     31  C   UNL     1       2.783   1.764   1.021  0.00  0.00    +0.023 A 
ENDBRANCH  23  26
ENDBRANCH  17  20
ENDBRANCH   1  17
TORSDOF 5
