REMARK  Name = ZINC38706018
REMARK  15 active torsions:
REMARK  status: ('A' for Active; 'I' for Inactive)
REMARK    1  A    between atoms: C_1  and  C_2
REMARK    2  A    between atoms: C_4  and  C_41
REMARK    3  A    between atoms: C_5  and  C_9
REMARK    4  A    between atoms: C_6  and  O_8
REMARK    5  A    between atoms: N_17  and  C_29
REMARK    6  A    between atoms: C_18  and  C_20
REMARK    7  A    between atoms: C_23  and  C_26
REMARK    8  A    between atoms: C_26  and  C_27
REMARK    9  A    between atoms: C_26  and  C_28
REMARK   10  A    between atoms: C_29  and  C_30
REMARK   11  A    between atoms: C_30  and  C_31
REMARK   12  A    between atoms: C_34  and  O_39
REMARK   13  A    between atoms: C_35  and  O_37
REMARK   14  A    between atoms: O_37  and  C_38
REMARK   15  A    between atoms: O_39  and  C_40
REMARK                            x       y       z     vdW  Elec       q    Type
REMARK                         _______ _______ _______ _____ _____    ______ ____
ROOT
ATOM      1  C   UNL     1      -0.183  -4.635  -0.106  0.00  0.00    +0.102 A 
ATOM      2  C   UNL     1       0.064  -5.306   1.096  0.00  0.00    +0.035 A 
ATOM      3  C   UNL     1       0.109  -6.649   0.775  0.00  0.00    +0.126 A 
ATOM      4  N   UNL     1      -0.108  -6.725  -0.571  0.00  0.00    -0.272 N 
ATOM      5  H   UNL     1      -0.133  -7.547  -1.086  0.00  0.00    +0.189 HD
ATOM      6  N   UNL     1      -0.279  -5.546  -1.054  0.00  0.00    -0.173 NA
ATOM      7  C   UNL     1       0.366  -7.414   2.001  0.00  0.00    +0.265 C 
ATOM      8  O   UNL     1       0.463  -8.625   2.057  0.00  0.00    -0.268 OA
ATOM      9  N   UNL     1       0.479  -6.585   3.055  0.00  0.00    -0.285 N 
ATOM     10  C   UNL     1       0.301  -5.207   2.578  0.00  0.00    +0.141 C 
ENDROOT
BRANCH   1  15
ATOM     11  C   UNL     1      -0.714   1.063  -0.788  0.00  0.00    +0.044 C 
ATOM     12  C   UNL     1      -0.573  -0.427  -0.608  0.00  0.00    -0.047 A 
ATOM     13  C   UNL     1      -1.514  -1.279  -1.158  0.00  0.00    +0.007 A 
ATOM     14  C   UNL     1      -1.392  -2.645  -0.998  0.00  0.00    -0.037 A 
ATOM     15  C   UNL     1      -0.318  -3.168  -0.281  0.00  0.00    +0.047 A 
ATOM     16  C   UNL     1       0.631  -2.304   0.273  0.00  0.00    +0.127 A 
ATOM     17  C   UNL     1       0.499  -0.935   0.100  0.00  0.00    +0.049 A 
ATOM     18  C   UNL     1      -2.420  -3.569  -1.598  0.00  0.00    +0.044 C 
BRANCH  16  19
ATOM     19  O   UNL     1       1.681  -2.805   0.973  0.00  0.00    -0.506 OA
ATOM     20  H   UNL     1       2.484  -2.923   0.447  0.00  0.00    +0.292 HD
ENDBRANCH  16  19
ENDBRANCH   1  15
BRANCH  10  21
ATOM     21  C   UNL     1      -0.889  -4.575   3.253  0.00  0.00    -0.022 A 
ATOM     22  C   UNL     1      -2.054  -5.300   3.421  0.00  0.00    +0.006 A 
ATOM     23  C   UNL     1      -3.146  -4.721   4.040  0.00  0.00    +0.004 A 
ATOM     24  C   UNL     1      -3.072  -3.416   4.491  0.00  0.00    -0.045 A 
ATOM     25  C   UNL     1      -1.907  -2.692   4.324  0.00  0.00    +0.004 A 
ATOM     26  C   UNL     1      -0.814  -3.272   3.709  0.00  0.00    +0.006 A 
BRANCH  24  27
ATOM     27  C   UNL     1      -4.263  -2.784   5.165  0.00  0.00    +0.013 C 
ATOM     28  C   UNL     1      -3.882  -2.365   6.586  0.00  0.00    +0.012 C 
ATOM     29  C   UNL     1      -4.704  -1.552   4.371  0.00  0.00    +0.012 C 
ENDBRANCH  24  27
ENDBRANCH  10  21
BRANCH   9  30
ATOM     30  C   UNL     1       0.735  -6.988   4.440  0.00  0.00    +0.114 C 
BRANCH  30  31
ATOM     31  C   UNL     1       2.244  -7.025   4.689  0.00  0.00    +0.054 C 
BRANCH  31  32
ATOM     32  C   UNL     1       2.507  -7.440   6.114  0.00  0.00    -0.042 A 
ATOM     33  C   UNL     1       2.594  -6.481   7.106  0.00  0.00    +0.007 A 
ATOM     34  C   UNL     1       2.836  -6.856   8.415  0.00  0.00    +0.049 A 
ATOM     35  C   UNL     1       2.990  -8.195   8.735  0.00  0.00    +0.161 A 
ATOM     36  C   UNL     1       2.902  -9.161   7.736  0.00  0.00    +0.162 A 
ATOM     37  C   UNL     1       2.655  -8.778   6.427  0.00  0.00    +0.053 A 
BRANCH  36  38
ATOM     38  O   UNL     1       3.053 -10.476   8.045  0.00  0.00    -0.491 OA
ATOM     39  C   UNL     1       2.949 -11.411   6.969  0.00  0.00    +0.277 C 
ENDBRANCH  36  38
BRANCH  35  40
ATOM     40  O   UNL     1       3.228  -8.566  10.021  0.00  0.00    -0.491 OA
ATOM     41  C   UNL     1       3.306  -7.521  10.993  0.00  0.00    +0.277 C 
ENDBRANCH  35  40
ENDBRANCH  31  32
ENDBRANCH  30  31
ENDBRANCH   9  30
TORSDOF 9
