REMARK  Name = ZINC36313365
REMARK  12 active torsions:
REMARK  status: ('A' for Active; 'I' for Inactive)
REMARK    1  A    between atoms: C_1  and  C_2
REMARK    2  A    between atoms: C_5  and  S_8
REMARK    3  A    between atoms: S_8  and  N_11
REMARK    4  A    between atoms: N_11  and  C_12
REMARK    5  A    between atoms: N_11  and  C_17
REMARK    6  A    between atoms: C_12  and  C_13
REMARK    7  A    between atoms: C_13  and  C_14
REMARK    8  A    between atoms: C_14  and  C_15
REMARK    9  A    between atoms: C_14  and  C_16
REMARK   10  A    between atoms: C_17  and  C_18
REMARK   11  A    between atoms: C_19  and  C_29
REMARK   12  A    between atoms: C_22  and  N_23
REMARK                            x       y       z     vdW  Elec       q    Type
REMARK                         _______ _______ _______ _____ _____    ______ ____
ROOT
ATOM      1  C   UNL     1       3.226  -3.686  -2.344  0.00  0.00    +0.057 A 
ATOM      2  C   UNL     1       2.530  -2.800  -3.193  0.00  0.00    +0.122 A 
ATOM      3  N   UNL     1       2.828  -1.574  -2.832  0.00  0.00    -0.076 NA
ATOM      4  O   UNL     1       3.726  -1.646  -1.739  0.00  0.00    -0.339 OA
ATOM      5  C   UNL     1       3.943  -2.943  -1.463  0.00  0.00    +0.225 A 
ENDROOT
BRANCH   2   6
ATOM      6  C   UNL     1       1.621  -3.187  -4.301  0.00  0.00    +0.039 A 
ATOM      7  C   UNL     1       1.003  -4.436  -4.295  0.00  0.00    +0.013 A 
ATOM      8  C   UNL     1       0.158  -4.790  -5.327  0.00  0.00    +0.001 A 
ATOM      9  C   UNL     1      -0.077  -3.908  -6.368  0.00  0.00    +0.003 A 
ATOM     10  C   UNL     1       0.532  -2.668  -6.381  0.00  0.00    +0.039 A 
ATOM     11  C   UNL     1       1.376  -2.299  -5.349  0.00  0.00    +0.133 A 
ATOM     12  F   UNL     1       1.967  -1.084  -5.359  0.00  0.00    -0.205 F 
ENDBRANCH   2   6
BRANCH   5  13
ATOM     13  N   UNL     1       4.758  -3.436  -0.460  0.00  0.00    -0.295 N 
ATOM     14  C   UNL     1       6.149  -3.828  -0.737  0.00  0.00    +0.136 C 
ATOM     15  C   UNL     1       7.057  -3.148   0.294  0.00  0.00    +0.179 C 
ATOM     16  O   UNL     1       6.569  -3.428   1.608  0.00  0.00    -0.377 OA
ATOM     17  C   UNL     1       5.260  -2.915   1.867  0.00  0.00    +0.179 C 
ATOM     18  C   UNL     1       4.261  -3.577   0.918  0.00  0.00    +0.136 C 
ENDBRANCH   5  13
BRANCH   1  19
ATOM     19  C   UNL     1       3.178  -5.191  -2.402  0.00  0.00    +0.152 C 
BRANCH  19  20
ATOM     20  N   UNL     1       2.749  -5.715  -1.103  0.00  0.00    -0.172 NA
BRANCH  20  21
ATOM     21  S   UNL     1       1.136  -5.804  -0.737  0.00  0.00    +0.061 S 
ATOM     22  O   UNL     1       1.020  -6.681   0.375  0.00  0.00    -0.153 OA
ATOM     23  O   UNL     1       0.454  -6.034  -1.963  0.00  0.00    -0.153 OA
BRANCH  21  28
ATOM     24  C   UNL     1      -0.565  -0.344   1.184  0.00  0.00    +0.044 C 
ATOM     25  C   UNL     1      -0.140  -1.707   0.704  0.00  0.00    -0.050 A 
ATOM     26  C   UNL     1      -0.221  -2.024  -0.639  0.00  0.00    +0.005 A 
ATOM     27  C   UNL     1       0.169  -3.275  -1.079  0.00  0.00    +0.029 A 
ATOM     28  C   UNL     1       0.640  -4.209  -0.176  0.00  0.00    +0.106 A 
ATOM     29  C   UNL     1       0.722  -3.893   1.167  0.00  0.00    +0.029 A 
ATOM     30  C   UNL     1       0.337  -2.640   1.606  0.00  0.00    +0.005 A 
ENDBRANCH  21  28
ENDBRANCH  20  21
BRANCH  20  31
ATOM     31  C   UNL     1       3.747  -6.161  -0.127  0.00  0.00    +0.110 C 
BRANCH  31  32
ATOM     32  C   UNL     1       4.271  -7.542  -0.529  0.00  0.00    +0.020 C 
BRANCH  32  33
ATOM     33  C   UNL     1       5.219  -8.062   0.554  0.00  0.00    -0.016 C 
ATOM     34  C   UNL     1       5.627  -9.499   0.227  0.00  0.00    +0.007 C 
ATOM     35  C   UNL     1       6.466  -7.177   0.608  0.00  0.00    +0.007 C 
ENDBRANCH  32  33
ENDBRANCH  31  32
ENDBRANCH  20  31
ENDBRANCH  19  20
ENDBRANCH   1  19
TORSDOF 9
