REMARK  Name = ZINC35026249
REMARK  9 active torsions:
REMARK  status: ('A' for Active; 'I' for Inactive)
REMARK    1  A    between atoms: C_1  and  C_2
REMARK    2  A    between atoms: C_2  and  C_3
REMARK    3  A    between atoms: C_3  and  C_5
REMARK    4  A    between atoms: C_3  and  N_18
REMARK    5  A    between atoms: N_18  and  C_19
REMARK    6  A    between atoms: C_19  and  C_20
REMARK    7  A    between atoms: C_26  and  C_28
REMARK    8  A    between atoms: C_31  and  C_37
REMARK    9  A    between atoms: C_32  and  N_34
REMARK                            x       y       z     vdW  Elec       q    Type
REMARK                         _______ _______ _______ _____ _____    ______ ____
ROOT
ATOM      1  N   UNL     1       0.068  -0.113  -3.399  0.00  0.00    -0.283 N 
ATOM      2  C   UNL     1      -0.358   0.003  -4.672  0.00  0.00    +0.248 C 
ATOM      3  O   UNL     1      -0.083   0.996  -5.317  0.00  0.00    -0.270 OA
ENDROOT
BRANCH   2   4
ATOM      4  C   UNL     1      -1.162  -1.077  -5.284  0.00  0.00    +0.039 A 
ATOM      5  C   UNL     1      -2.053  -1.816  -4.504  0.00  0.00    +0.013 A 
ATOM      6  C   UNL     1      -2.800  -2.822  -5.081  0.00  0.00    +0.006 A 
ATOM      7  C   UNL     1      -2.667  -3.099  -6.430  0.00  0.00    -0.020 A 
ATOM      8  C   UNL     1      -1.785  -2.370  -7.209  0.00  0.00    +0.130 A 
ATOM      9  C   UNL     1      -1.037  -1.358  -6.645  0.00  0.00    +0.046 A 
ATOM     10  C   UNL     1      -3.486  -4.199  -7.054  0.00  0.00    +0.046 C 
BRANCH   8  11
ATOM     11  N   UNL     1      -1.649  -2.674  -8.651  0.00  0.00    +0.057 N 
ATOM     12  O   UNL     1      -0.567  -2.603  -9.184  0.00  0.00    -0.126 OA
ATOM     13  O   UNL     1      -2.621  -2.993  -9.296  0.00  0.00    -0.126 OA
ENDBRANCH   8  11
ENDBRANCH   2   4
BRANCH   1  14
ATOM     14  C   UNL     1       0.993   0.878  -2.842  0.00  0.00    +0.142 C 
BRANCH  14  15
ATOM     15  C   UNL     1       2.186   0.174  -2.248  0.00  0.00    +0.131 A 
ATOM     16  N   UNL     1       3.108   0.918  -1.584  0.00  0.00    -0.309 N 
ATOM     17  H   UNL     1       2.985   1.877  -1.504  0.00  0.00    +0.170 HD
ATOM     18  C   UNL     1       4.197   0.334  -1.033  0.00  0.00    +0.259 A 
ATOM     19  O   UNL     1       5.031   0.989  -0.434  0.00  0.00    -0.267 OA
ATOM     20  C   UNL     1       4.334  -1.122  -1.183  0.00  0.00    +0.065 A 
ATOM     21  C   UNL     1       5.418  -1.819  -0.653  0.00  0.00    +0.017 A 
ATOM     22  C   UNL     1       5.497  -3.174  -0.821  0.00  0.00    +0.021 A 
ATOM     23  C   UNL     1       4.510  -3.862  -1.516  0.00  0.00    +0.043 A 
ATOM     24  C   UNL     1       3.428  -3.195  -2.050  0.00  0.00    +0.048 A 
ATOM     25  C   UNL     1       3.325  -1.812  -1.891  0.00  0.00    +0.080 A 
ATOM     26  N   UNL     1       2.277  -1.113  -2.393  0.00  0.00    -0.232 NA
ATOM     27 CL   UNL     1       4.639  -5.582  -1.713  0.00  0.00    -0.083 Cl
ENDBRANCH  14  15
BRANCH  14  29
ATOM     28  C   UNL     1      -0.844   2.507  -2.382  0.00  0.00    +0.006 C 
ATOM     29  C   UNL     1       0.282   1.684  -1.753  0.00  0.00    +0.027 C 
ENDBRANCH  14  29
ENDBRANCH   1  14
BRANCH   1  30
ATOM     30  C   UNL     1      -0.393  -1.231  -2.571  0.00  0.00    +0.144 C 
BRANCH  30  31
ATOM     31  C   UNL     1      -1.262  -0.706  -1.458  0.00  0.00    -0.030 A 
ATOM     32  C   UNL     1      -0.945  -0.987  -0.142  0.00  0.00    +0.005 A 
ATOM     33  C   UNL     1      -1.743  -0.506   0.879  0.00  0.00    +0.000 A 
ATOM     34  C   UNL     1      -2.857   0.257   0.585  0.00  0.00    +0.000 A 
ATOM     35  C   UNL     1      -3.174   0.538  -0.731  0.00  0.00    +0.000 A 
ATOM     36  C   UNL     1      -2.374   0.061  -1.752  0.00  0.00    +0.005 A 
ENDBRANCH  30  31
ENDBRANCH   1  30
TORSDOF 7
