REMARK  Name = ZINC63447973
REMARK  9 active torsions:
REMARK  status: ('A' for Active; 'I' for Inactive)
REMARK    1  A    between atoms: C_1  and  C_2
REMARK    2  A    between atoms: C_5  and  C_8
REMARK    3  A    between atoms: C_14  and  S_18
REMARK    4  A    between atoms: S_18  and  C_19
REMARK    5  A    between atoms: C_19  and  C_20
REMARK    6  A    between atoms: N_22  and  C_23
REMARK    7  A    between atoms: C_23  and  C_24
REMARK    8  A    between atoms: C_36  and  C_38
REMARK    9  A    between atoms: C_36  and  C_39
REMARK                            x       y       z     vdW  Elec       q    Type
REMARK                         _______ _______ _______ _____ _____    ______ ____
ROOT
ATOM      1  C   UNL     1       0.059  -4.275  -0.021  0.00  0.00    +0.073 C 
ATOM      2  C   UNL     1       1.306  -4.778   0.700  0.00  0.00    +0.156 C 
ATOM      3  C   UNL     1       1.171  -4.525   2.176  0.00  0.00    +0.145 C 
ATOM      4  N   UNL     1       2.179  -4.034   2.867  0.00  0.00    -0.208 NA
ATOM      5  C   UNL     1       3.310  -3.638   2.285  0.00  0.00    +0.183 C 
ATOM      6  N   UNL     1       3.476  -3.656   0.967  0.00  0.00    -0.154 NA
ATOM      7  C   UNL     1       2.553  -4.144   0.168  0.00  0.00    +0.250 C 
ATOM      8  O   UNL     1       2.728  -4.085  -1.033  0.00  0.00    -0.273 OA
ATOM      9  N   UNL     1       0.002  -4.741   2.771  0.00  0.00    -0.236 NA
ATOM     10  C   UNL     1      -1.102  -4.991   2.095  0.00  0.00    +0.051 C 
ATOM     11  C   UNL     1      -1.157  -4.806   0.708  0.00  0.00    +0.025 C 
ATOM     12  C   UNL     1      -2.272  -5.091  -0.001  0.00  0.00    +0.162 C 
ATOM     13  O   UNL     1      -2.259  -4.922  -1.335  0.00  0.00    -0.292 OA
ATOM     14  C   UNL     1      -3.527  -5.592   0.658  0.00  0.00    +0.086 C 
ATOM     15  C   UNL     1      -3.171  -6.344   1.943  0.00  0.00    -0.023 C 
ATOM     16  C   UNL     1      -2.341  -5.420   2.843  0.00  0.00    +0.062 C 
ATOM     17  C   UNL     1      -4.454  -6.752   2.670  0.00  0.00    +0.011 C 
ATOM     18  C   UNL     1      -2.355  -7.591   1.598  0.00  0.00    +0.011 C 
ENDROOT
BRANCH   1  23
ATOM     19  C   UNL     1      -0.018   1.503   0.010  0.00  0.00    +0.044 C 
ATOM     20  C   UNL     1       0.002  -0.004   0.002  0.00  0.00    -0.050 A 
ATOM     21  C   UNL     1       0.006  -0.689  -1.199  0.00  0.00    +0.003 A 
ATOM     22  C   UNL     1       0.025  -2.071  -1.206  0.00  0.00    +0.004 A 
ATOM     23  C   UNL     1       0.040  -2.768  -0.013  0.00  0.00    -0.039 A 
ATOM     24  C   UNL     1       0.037  -2.084   1.188  0.00  0.00    +0.004 A 
ATOM     25  C   UNL     1       0.023  -0.702   1.195  0.00  0.00    +0.003 A 
ENDBRANCH   1  23
BRANCH   5  26
ATOM     26  S   UNL     1       4.634  -3.070   3.299  0.00  0.00    -0.079 S 
BRANCH  26  27
ATOM     27  C   UNL     1       5.942  -2.643   2.117  0.00  0.00    +0.172 C 
BRANCH  27  28
ATOM     28  C   UNL     1       7.148  -2.136   2.863  0.00  0.00    +0.224 C 
ATOM     29  O   UNL     1       7.128  -2.068   4.074  0.00  0.00    -0.275 OA
ATOM     30  N   UNL     1       8.250  -1.757   2.186  0.00  0.00    -0.311 N 
ATOM     31  H   UNL     1       8.266  -1.810   1.217  0.00  0.00    +0.149 HD
BRANCH  30  32
ATOM     32  C   UNL     1       9.423  -1.264   2.911  0.00  0.00    +0.139 C 
BRANCH  32  33
ATOM     33  C   UNL     1      10.509  -0.909   1.929  0.00  0.00    -0.030 A 
ATOM     34  C   UNL     1      11.431  -1.865   1.543  0.00  0.00    +0.005 A 
ATOM     35  C   UNL     1      12.427  -1.540   0.642  0.00  0.00    +0.000 A 
ATOM     36  C   UNL     1      12.502  -0.259   0.126  0.00  0.00    +0.000 A 
ATOM     37  C   UNL     1      11.580   0.696   0.511  0.00  0.00    +0.000 A 
ATOM     38  C   UNL     1      10.581   0.370   1.409  0.00  0.00    +0.005 A 
ENDBRANCH  32  33
ENDBRANCH  30  32
ENDBRANCH  27  28
ENDBRANCH  26  27
ENDBRANCH   5  26
TORSDOF 6
