REMARK  Name = ZINC40051557
REMARK  6 active torsions:
REMARK  status: ('A' for Active; 'I' for Inactive)
REMARK    1  A    between atoms: C_1  and  C_2
REMARK    2  A    between atoms: C_5  and  N_9
REMARK    3  A    between atoms: C_7  and  C_8
REMARK    4  A    between atoms: C_19  and  N_20
REMARK    5  A    between atoms: N_20  and  C_21
REMARK    6  A    between atoms: C_26  and  C_27
REMARK                            x       y       z     vdW  Elec       q    Type
REMARK                         _______ _______ _______ _____ _____    ______ ____
ROOT
ATOM      1  N   UNL     1      -0.028  -4.173  -0.014  0.00  0.00    -0.202 N 
ATOM      2  C   UNL     1       0.142  -4.817   1.152  0.00  0.00    +0.258 C 
ATOM      3  O   UNL     1       0.215  -4.177   2.184  0.00  0.00    -0.269 OA
ATOM      4  C   UNL     1       0.242  -6.282   1.203  0.00  0.00    +0.046 A 
ATOM      5  C   UNL     1       0.418  -6.957   2.411  0.00  0.00    +0.014 A 
ATOM      6  C   UNL     1       0.506  -8.332   2.416  0.00  0.00    +0.001 A 
ATOM      7  C   UNL     1       0.422  -9.053   1.234  0.00  0.00    +0.001 A 
ATOM      8  C   UNL     1       0.248  -8.404   0.028  0.00  0.00    +0.009 A 
ATOM      9  C   UNL     1       0.157  -7.018   0.002  0.00  0.00    +0.000 A 
ATOM     10  C   UNL     1      -0.030  -6.274  -1.261  0.00  0.00    +0.059 C 
ATOM     11  C   UNL     1      -0.120  -6.934  -2.466  0.00  0.00    +0.085 C 
ATOM     12  C   UNL     1      -0.122  -4.811  -1.192  0.00  0.00    +0.259 C 
ATOM     13  O   UNL     1      -0.281  -4.168  -2.214  0.00  0.00    -0.269 OA
ENDROOT
BRANCH   1  18
ATOM     14  C   UNL     1      -0.388   1.490   0.041  0.00  0.00    +0.044 C 
ATOM     15  C   UNL     1      -0.292  -0.014   0.026  0.00  0.00    -0.047 A 
ATOM     16  C   UNL     1       0.837  -0.639   0.523  0.00  0.00    +0.005 A 
ATOM     17  C   UNL     1       0.928  -2.017   0.511  0.00  0.00    +0.024 A 
ATOM     18  C   UNL     1      -0.117  -2.775  -0.000  0.00  0.00    +0.045 A 
ATOM     19  C   UNL     1      -1.250  -2.146  -0.498  0.00  0.00    +0.027 A 
ATOM     20  C   UNL     1      -1.337  -0.767  -0.479  0.00  0.00    -0.046 A 
ATOM     21  C   UNL     1      -2.568  -0.083  -1.014  0.00  0.00    +0.044 C 
ENDBRANCH   1  18
BRANCH  11  22
ATOM     22  N   UNL     1      -0.129  -6.229  -3.629  0.00  0.00    -0.320 N 
ATOM     23  H   UNL     1       0.007  -5.269  -3.615  0.00  0.00    +0.152 HD
BRANCH  22  24
ATOM     24  C   UNL     1      -0.332  -6.888  -4.844  0.00  0.00    +0.037 A 
ATOM     25  C   UNL     1      -0.532  -8.263  -4.866  0.00  0.00    +0.023 A 
ATOM     26  C   UNL     1      -0.734  -8.911  -6.068  0.00  0.00    +0.002 A 
ATOM     27  C   UNL     1      -0.736  -8.193  -7.250  0.00  0.00    +0.000 A 
ATOM     28  C   UNL     1      -0.538  -6.825  -7.233  0.00  0.00    +0.008 A 
ATOM     29  C   UNL     1      -0.341  -6.170  -6.033  0.00  0.00    +0.006 A 
BRANCH  29  30
ATOM     30  C   UNL     1      -0.131  -4.678  -6.014  0.00  0.00    +0.214 C 
ATOM     31  C   UNL     1      -1.421  -4.027  -5.547  0.00  0.00    +0.247 C 
ATOM     32  O   UNL     1      -1.917  -4.292  -4.473  0.00  0.00    -0.273 OA
ATOM     33  N   UNL     1      -1.987  -3.135  -6.394  0.00  0.00    -0.263 N 
ATOM     34  C   UNL     1      -1.404  -2.870  -7.574  0.00  0.00    +0.178 C 
ATOM     35  N   UNL     1      -0.269  -3.438  -7.992  0.00  0.00    -0.123 NA
ATOM     36  N   UNL     1       0.368  -4.271  -7.338  0.00  0.00    -0.299 N 
ATOM     37  S   UNL     1      -2.162  -1.734  -8.607  0.00  0.00    -0.015 S 
ATOM     38  H   UNL     1       1.187  -4.651  -7.692  0.00  0.00    +0.181 HD
ATOM     39  H   UNL     1      -2.813  -2.688  -6.149  0.00  0.00    +0.157 HD
ENDBRANCH  29  30
ENDBRANCH  22  24
ENDBRANCH  11  22
TORSDOF 4
