REMARK  Name = ZINC35745965
REMARK  14 active torsions:
REMARK  status: ('A' for Active; 'I' for Inactive)
REMARK    1  A    between atoms: C_1  and  C_2
REMARK    2  A    between atoms: C_2  and  C_3
REMARK    3  A    between atoms: C_2  and  C_4
REMARK    4  A    between atoms: C_4  and  N_5
REMARK    5  A    between atoms: N_5  and  C_6
REMARK    6  A    between atoms: N_5  and  C_25
REMARK    7  A    between atoms: C_6  and  C_7
REMARK    8  A    between atoms: C_13  and  C_18
REMARK    9  A    between atoms: C_25  and  C_26
REMARK   10  A    between atoms: C_26  and  C_28
REMARK   11  A    between atoms: C_26  and  O_37
REMARK   12  A    between atoms: C_28  and  O_29
REMARK   13  A    between atoms: O_29  and  C_30
REMARK   14  A    between atoms: C_30  and  C_31
REMARK                            x       y       z     vdW  Elec       q    Type
REMARK                         _______ _______ _______ _____ _____    ______ ____
ROOT
ATOM      1  N   UNL     1       0.158  -0.259   2.446  0.00  0.00    +0.386 N 
ATOM      2  H   UNL     1      -0.111   0.704   2.585  0.00  0.00    -0.081 HD
ENDROOT
BRANCH   1   3
ATOM      3  C   UNL     1       0.771  -0.409   1.119  0.00  0.00    -0.075 C 
BRANCH   3   5
ATOM      4  C   UNL     1      -0.386   1.633   0.261  0.00  0.00    +0.005 C 
ATOM      5  C   UNL     1      -0.183   0.130   0.052  0.00  0.00    -0.034 C 
ATOM      6  C   UNL     1       0.411  -0.116  -1.335  0.00  0.00    +0.005 C 
ENDBRANCH   3   5
ENDBRANCH   1   3
BRANCH   1   7
ATOM      7  C   UNL     1      -1.030  -1.117   2.536  0.00  0.00    -0.003 C 
BRANCH   7   8
ATOM      8  C   UNL     1      -1.751  -0.844   3.831  0.00  0.00    +0.094 A 
ATOM      9  N   UNL     1      -2.810  -1.618   4.182  0.00  0.00    -0.312 N 
ATOM     10  H   UNL     1      -3.088  -2.337   3.594  0.00  0.00    +0.170 HD
ATOM     11  C   UNL     1      -3.480  -1.407   5.330  0.00  0.00    +0.260 A 
ATOM     12  O   UNL     1      -4.429  -2.111   5.631  0.00  0.00    -0.267 OA
ATOM     13  C   UNL     1      -3.062  -0.343   6.192  0.00  0.00    +0.080 A 
ATOM     14  C   UNL     1      -3.618   0.080   7.472  0.00  0.00    +0.004 A 
ATOM     15  C   UNL     1      -3.048   1.127   8.116  0.00  0.00    +0.056 A 
ATOM     16  S   UNL     1      -1.720   1.607   7.027  0.00  0.00    -0.076 S 
ATOM     17  C   UNL     1      -1.959   0.403   5.746  0.00  0.00    +0.116 A 
ATOM     18  N   UNL     1      -1.343   0.131   4.599  0.00  0.00    -0.229 NA
BRANCH  14  19
ATOM     19  C   UNL     1      -4.785  -0.623   8.057  0.00  0.00    -0.016 A 
ATOM     20  C   UNL     1      -5.921  -0.857   7.283  0.00  0.00    +0.010 A 
ATOM     21  C   UNL     1      -7.004  -1.512   7.833  0.00  0.00    +0.020 A 
ATOM     22  C   UNL     1      -6.965  -1.935   9.150  0.00  0.00    +0.041 A 
ATOM     23  C   UNL     1      -5.840  -1.704   9.923  0.00  0.00    +0.020 A 
ATOM     24  C   UNL     1      -4.749  -1.056   9.382  0.00  0.00    +0.010 A 
ATOM     25 CL   UNL     1      -8.331  -2.757   9.836  0.00  0.00    -0.084 Cl
ENDBRANCH  14  19
ENDBRANCH   7   8
ENDBRANCH   1   7
BRANCH   1  26
ATOM     26  C   UNL     1       1.125  -0.651   3.480  0.00  0.00    -0.044 C 
BRANCH  26  27
ATOM     27  C   UNL     1       2.307   0.320   3.468  0.00  0.00    +0.124 C 
BRANCH  27  28
ATOM     28  O   UNL     1       1.857   1.623   3.846  0.00  0.00    -0.391 OA
ATOM     29  H   UNL     1       1.464   1.662   4.729  0.00  0.00    +0.210 HD
ENDBRANCH  27  28
BRANCH  27  30
ATOM     30  C   UNL     1       3.371  -0.159   4.457  0.00  0.00    +0.189 C 
BRANCH  30  31
ATOM     31  O   UNL     1       4.523   0.682   4.362  0.00  0.00    -0.373 OA
BRANCH  31  32
ATOM     32  C   UNL     1       5.583   0.318   5.249  0.00  0.00    +0.195 C 
BRANCH  32  33
ATOM     33  C   UNL     1       6.739   1.266   5.065  0.00  0.00    -0.022 A 
ATOM     34  C   UNL     1       7.724   0.984   4.136  0.00  0.00    +0.006 A 
ATOM     35  C   UNL     1       8.785   1.853   3.967  0.00  0.00    +0.000 A 
ATOM     36  C   UNL     1       8.861   3.006   4.727  0.00  0.00    +0.000 A 
ATOM     37  C   UNL     1       7.877   3.289   5.655  0.00  0.00    +0.000 A 
ATOM     38  C   UNL     1       6.814   2.422   5.821  0.00  0.00    +0.006 A 
ENDBRANCH  32  33
ENDBRANCH  31  32
ENDBRANCH  30  31
ENDBRANCH  27  30
ENDBRANCH  26  27
ENDBRANCH   1  26
TORSDOF 12
