REMARK  Name = ZINC36704412
REMARK  12 active torsions:
REMARK  status: ('A' for Active; 'I' for Inactive)
REMARK    1  A    between atoms: C_1  and  C_2
REMARK    2  A    between atoms: C_2  and  N_3
REMARK    3  A    between atoms: N_3  and  C_4
REMARK    4  A    between atoms: N_3  and  C_6
REMARK    5  A    between atoms: C_4  and  C_5
REMARK    6  A    between atoms: C_6  and  C_7
REMARK    7  A    between atoms: C_7  and  N_8
REMARK    8  A    between atoms: C_12  and  C_19
REMARK    9  A    between atoms: C_13  and  C_18
REMARK   10  A    between atoms: C_20  and  C_22
REMARK   11  A    between atoms: N_27  and  S_28
REMARK   12  A    between atoms: S_28  and  C_31
REMARK                            x       y       z     vdW  Elec       q    Type
REMARK                         _______ _______ _______ _____ _____    ______ ____
ROOT
ATOM      1  N   UNL     1      -0.366  -3.797  -0.755  0.00  0.00    -0.251 N 
ATOM      2  C   UNL     1      -1.014  -4.766  -0.007  0.00  0.00    +0.168 A 
ATOM      3  N   UNL     1      -1.892  -5.659  -0.400  0.00  0.00    -0.224 NA
ATOM      4  C   UNL     1      -2.449  -6.552   0.447  0.00  0.00    +0.083 A 
ATOM      5  C   UNL     1      -3.399  -7.558   0.155  0.00  0.00    -0.021 A 
ATOM      6  C   UNL     1      -3.865  -8.388   1.141  0.00  0.00    -0.045 A 
ATOM      7  C   UNL     1      -3.426  -8.274   2.453  0.00  0.00    +0.005 A 
ATOM      8  C   UNL     1      -2.498  -7.301   2.774  0.00  0.00    +0.017 A 
ATOM      9  C   UNL     1      -2.025  -6.465   1.793  0.00  0.00    +0.041 A 
ATOM     10  S   UNL     1      -0.862  -5.123   1.738  0.00  0.00    -0.052 S 
ATOM     11  C   UNL     1      -4.878  -9.448   0.793  0.00  0.00    +0.044 C 
ATOM     12  C   UNL     1      -3.904  -7.719  -1.255  0.00  0.00    +0.046 C 
ATOM     13  C   UNL     1      -0.618  -3.684  -2.075  0.00  0.00    +0.240 C 
ATOM     14  O   UNL     1      -1.476  -4.369  -2.589  0.00  0.00    -0.273 OA
ENDROOT
BRANCH  13  15
ATOM     15  C   UNL     1       0.166  -2.705  -2.910  0.00  0.00    +0.166 C 
ATOM     16  C   UNL     1      -0.599  -1.369  -3.011  0.00  0.00    +0.031 C 
ATOM     17  C   UNL     1      -0.340  -0.930  -4.477  0.00  0.00    +0.019 C 
ATOM     18  C   UNL     1      -0.334  -2.293  -5.213  0.00  0.00    +0.110 C 
ATOM     19  N   UNL     1       0.322  -3.227  -4.276  0.00  0.00    -0.164 NA
BRANCH  19  20
ATOM     20  S   UNL     1       1.103  -4.627  -4.691  0.00  0.00    +0.068 S 
ATOM     21  O   UNL     1       1.508  -4.480  -6.045  0.00  0.00    -0.152 OA
ATOM     22  O   UNL     1       2.026  -4.903  -3.646  0.00  0.00    -0.152 OA
BRANCH  20  23
ATOM     23  C   UNL     1      -0.093  -5.920  -4.661  0.00  0.00    +0.143 A 
ATOM     24  C   UNL     1      -0.888  -6.371  -5.662  0.00  0.00    +0.036 A 
ATOM     25  C   UNL     1      -1.763  -7.411  -5.407  0.00  0.00    +0.010 A 
ATOM     26  C   UNL     1      -1.800  -7.948  -4.163  0.00  0.00    +0.047 A 
ATOM     27  S   UNL     1      -0.568  -6.981  -3.306  0.00  0.00    -0.077 S 
ENDBRANCH  20  23
ENDBRANCH  19  20
ENDBRANCH  13  15
BRANCH   1  28
ATOM     28  C   UNL     1       0.593  -2.895  -0.113  0.00  0.00    +0.097 C 
BRANCH  28  29
ATOM     29  C   UNL     1       1.979  -3.542  -0.111  0.00  0.00    -0.059 C 
BRANCH  29  30
ATOM     30  N   UNL     1       2.941  -2.637   0.533  0.00  0.00    +0.380 N 
ATOM     31  H   UNL     1       2.917  -1.739   0.075  0.00  0.00    -0.082 HD
BRANCH  30  33
ATOM     32  C   UNL     1       3.510  -1.436   2.590  0.00  0.00    -0.017 C 
ATOM     33  C   UNL     1       2.586  -2.474   1.950  0.00  0.00    -0.082 C 
ENDBRANCH  30  33
BRANCH  30  34
ATOM     34  C   UNL     1       4.292  -3.204   0.429  0.00  0.00    -0.082 C 
ATOM     35  C   UNL     1       4.712  -3.253  -1.041  0.00  0.00    -0.017 C 
ENDBRANCH  30  34
ENDBRANCH  29  30
ENDBRANCH  28  29
ENDBRANCH   1  28
TORSDOF 8
