REMARK  Name = ZINC36304240
REMARK  15 active torsions:
REMARK  status: ('A' for Active; 'I' for Inactive)
REMARK    1  A    between atoms: C_1  and  C_2
REMARK    2  A    between atoms: C_3  and  C_22
REMARK    3  A    between atoms: C_4  and  O_13
REMARK    4  A    between atoms: N_5  and  C_7
REMARK    5  A    between atoms: O_13  and  C_14
REMARK    6  A    between atoms: C_22  and  N_23
REMARK    7  A    between atoms: N_23  and  C_24
REMARK    8  A    between atoms: N_23  and  C_31
REMARK    9  A    between atoms: C_24  and  C_25
REMARK   10  A    between atoms: C_31  and  C_32
REMARK   11  A    between atoms: C_32  and  C_34
REMARK   12  A    between atoms: C_32  and  O_39
REMARK   13  A    between atoms: C_34  and  O_35
REMARK   14  A    between atoms: O_35  and  C_36
REMARK   15  A    between atoms: C_36  and  C_37
REMARK                            x       y       z     vdW  Elec       q    Type
REMARK                         _______ _______ _______ _____ _____    ______ ____
ROOT
ATOM      1  C   UNL     1       0.416  -3.719  -2.026  0.00  0.00    +0.068 C 
ATOM      2  C   UNL     1      -0.687  -2.946  -2.701  0.00  0.00    +0.065 A 
ATOM      3  C   UNL     1      -0.822  -1.555  -2.712  0.00  0.00    +0.021 A 
ATOM      4  C   UNL     1      -1.940  -1.249  -3.423  0.00  0.00    +0.225 A 
ATOM      5  N   UNL     1      -2.489  -2.420  -3.845  0.00  0.00    -0.200 N 
ATOM      6  N   UNL     1      -1.678  -3.464  -3.382  0.00  0.00    -0.168 NA
ENDROOT
BRANCH   5   7
ATOM      7  C   UNL     1      -3.654  -2.557  -4.612  0.00  0.00    +0.069 A 
ATOM      8  C   UNL     1      -4.771  -1.785  -4.324  0.00  0.00    +0.028 A 
ATOM      9  C   UNL     1      -5.918  -1.922  -5.082  0.00  0.00    +0.002 A 
ATOM     10  C   UNL     1      -5.953  -2.826  -6.127  0.00  0.00    +0.000 A 
ATOM     11  C   UNL     1      -4.842  -3.596  -6.417  0.00  0.00    +0.002 A 
ATOM     12  C   UNL     1      -3.691  -3.460  -5.666  0.00  0.00    +0.028 A 
ENDBRANCH   5   7
BRANCH   4  13
ATOM     13  O   UNL     1      -2.421  -0.003  -3.666  0.00  0.00    -0.435 OA
BRANCH  13  14
ATOM     14  C   UNL     1      -3.240   0.558  -2.737  0.00  0.00    +0.166 A 
ATOM     15  C   UNL     1      -3.474  -0.092  -1.535  0.00  0.00    +0.052 A 
ATOM     16  C   UNL     1      -4.307   0.479  -0.592  0.00  0.00    +0.042 A 
ATOM     17  C   UNL     1      -4.908   1.700  -0.846  0.00  0.00    +0.126 A 
ATOM     18  C   UNL     1      -4.677   2.352  -2.045  0.00  0.00    +0.080 A 
ATOM     19  C   UNL     1      -3.839   1.786  -2.990  0.00  0.00    +0.168 A 
ATOM     20  F   UNL     1      -3.609   2.424  -4.158  0.00  0.00    -0.202 F 
ATOM     21  F   UNL     1      -5.723   2.256   0.078  0.00  0.00    -0.205 F 
ENDBRANCH  13  14
ENDBRANCH   4  13
BRANCH   3  22
ATOM     22  C   UNL     1       0.106  -0.568  -2.051  0.00  0.00    -0.036 C 
BRANCH  22  23
ATOM     23  N   UNL     1       1.245  -0.298  -2.938  0.00  0.00    +0.386 N 
ATOM     24  H   UNL     1       1.665  -1.170  -3.222  0.00  0.00    -0.081 HD
BRANCH  23  25
ATOM     25  C   UNL     1       2.239   0.515  -2.225  0.00  0.00    -0.046 C 
BRANCH  25  26
ATOM     26  C   UNL     1       1.656   1.901  -1.942  0.00  0.00    +0.102 C 
ATOM     27  C   UNL     1       2.730   2.799  -1.291  0.00  0.00    +0.032 C 
ATOM     28  C   UNL     1       1.908   3.582  -0.232  0.00  0.00    +0.030 C 
ATOM     29  C   UNL     1       0.871   2.510   0.187  0.00  0.00    +0.160 C 
ATOM     30  O   UNL     1       0.566   1.790  -1.020  0.00  0.00    -0.378 OA
ENDBRANCH  25  26
ENDBRANCH  23  25
BRANCH  23  31
ATOM     31  C   UNL     1       0.778   0.430  -4.126  0.00  0.00    -0.044 C 
BRANCH  31  32
ATOM     32  C   UNL     1       1.930   0.571  -5.123  0.00  0.00    +0.124 C 
BRANCH  32  33
ATOM     33  O   UNL     1       2.895   1.491  -4.609  0.00  0.00    -0.391 OA
ATOM     34  H   UNL     1       2.546   2.378  -4.449  0.00  0.00    +0.210 HD
ENDBRANCH  32  33
BRANCH  32  35
ATOM     35  C   UNL     1       1.389   1.091  -6.457  0.00  0.00    +0.189 C 
BRANCH  35  36
ATOM     36  O   UNL     1       2.443   1.113  -7.422  0.00  0.00    -0.373 OA
BRANCH  36  37
ATOM     37  C   UNL     1       2.042   1.585  -8.710  0.00  0.00    +0.186 C 
BRANCH  37  38
ATOM     38  C   UNL     1       3.225   1.566  -9.643  0.00  0.00    -0.007 C 
ATOM     39  C   UNL     1       3.094   1.093 -10.857  0.00  0.00    +0.006 C 
ENDBRANCH  37  38
ENDBRANCH  36  37
ENDBRANCH  35  36
ENDBRANCH  32  35
ENDBRANCH  31  32
ENDBRANCH  23  31
ENDBRANCH  22  23
ENDBRANCH   3  22
TORSDOF 14
