REMARK  Name = ZINC40321709
REMARK  8 active torsions:
REMARK  status: ('A' for Active; 'I' for Inactive)
REMARK    1  A    between atoms: C_1  and  C_2
REMARK    2  A    between atoms: C_5  and  C_8
REMARK    3  A    between atoms: C_8  and  C_10
REMARK    4  A    between atoms: C_8  and  N_28
REMARK    5  A    between atoms: C_10  and  N_11
REMARK    6  A    between atoms: C_12  and  C_14
REMARK    7  A    between atoms: C_17  and  S_19
REMARK    8  A    between atoms: S_19  and  C_22
REMARK                            x       y       z     vdW  Elec       q    Type
REMARK                         _______ _______ _______ _____ _____    ______ ____
ROOT
ATOM      1  N   UNL     1       1.871  -3.923   1.574  0.00  0.00    -0.310 N 
ATOM      2  C   UNL     1       3.143  -3.964   2.020  0.00  0.00    +0.279 C 
ATOM      3  O   UNL     1       3.996  -4.542   1.373  0.00  0.00    -0.267 OA
ATOM      4  H   UNL     1       1.191  -3.462   2.090  0.00  0.00    +0.149 HD
ENDROOT
BRANCH   2   5
ATOM      5  C   UNL     1       3.497  -3.312   3.285  0.00  0.00    +0.192 A 
ATOM      6  C   UNL     1       4.741  -3.273   3.846  0.00  0.00    +0.056 A 
ATOM      7  C   UNL     1       4.622  -2.551   5.043  0.00  0.00    +0.070 A 
ATOM      8  C   UNL     1       3.326  -2.185   5.159  0.00  0.00    +0.246 A 
ATOM      9  O   UNL     1       2.653  -2.641   4.095  0.00  0.00    -0.433 OA
BRANCH   8  10
ATOM     10  S   UNL     1       2.637  -1.256   6.488  0.00  0.00    +0.058 S 
ATOM     11  O   UNL     1       1.250  -1.565   6.524  0.00  0.00    -0.161 OA
ATOM     12  O   UNL     1       3.490  -1.453   7.607  0.00  0.00    -0.161 OA
BRANCH  10  13
ATOM     13  C   UNL     1       2.763   0.447   6.053  0.00  0.00    +0.097 A 
ATOM     14  C   UNL     1       3.891   1.167   6.399  0.00  0.00    +0.027 A 
ATOM     15  C   UNL     1       3.989   2.503   6.057  0.00  0.00    +0.002 A 
ATOM     16  C   UNL     1       2.960   3.119   5.371  0.00  0.00    +0.000 A 
ATOM     17  C   UNL     1       1.832   2.399   5.025  0.00  0.00    +0.002 A 
ATOM     18  C   UNL     1       1.735   1.062   5.362  0.00  0.00    +0.027 A 
ENDBRANCH  10  13
ENDBRANCH   8  10
ENDBRANCH   2   5
BRANCH   1  19
ATOM     19  C   UNL     1       1.517  -4.574   0.310  0.00  0.00    +0.094 C 
BRANCH  19  20
ATOM     20  C   UNL     1       0.056  -4.269  -0.028  0.00  0.00    -0.020 C 
BRANCH  20  21
ATOM     21  N   UNL     1      -0.799  -4.650   1.104  0.00  0.00    +0.385 N 
ATOM     22  C   UNL     1      -0.637  -6.096   1.353  0.00  0.00    -0.078 C 
ATOM     23  C   UNL     1      -0.989  -6.370   2.793  0.00  0.00    -0.019 C 
ATOM     24  C   UNL     1      -2.450  -6.833   2.939  0.00  0.00    -0.002 C 
ATOM     25  C   UNL     1      -3.398  -6.032   2.023  0.00  0.00    -0.002 C 
ATOM     26  C   UNL     1      -3.065  -4.562   1.998  0.00  0.00    -0.019 C 
ATOM     27  C   UNL     1      -2.114  -4.282   0.816  0.00  0.00    -0.078 C 
ATOM     28  H   UNL     1      -0.493  -4.147   1.923  0.00  0.00    -0.081 HD
ENDBRANCH  20  21
BRANCH  20  33
ATOM     29  C   UNL     1      -0.543   1.383  -1.074  0.00  0.00    +0.044 C 
ATOM     30  C   UNL     1      -0.387  -0.091  -0.802  0.00  0.00    -0.050 A 
ATOM     31  C   UNL     1      -0.291  -0.983  -1.854  0.00  0.00    +0.003 A 
ATOM     32  C   UNL     1      -0.148  -2.335  -1.604  0.00  0.00    +0.002 A 
ATOM     33  C   UNL     1      -0.099  -2.795  -0.301  0.00  0.00    -0.059 A 
ATOM     34  C   UNL     1      -0.194  -1.904   0.751  0.00  0.00    +0.002 A 
ATOM     35  C   UNL     1      -0.333  -0.551   0.501  0.00  0.00    +0.003 A 
ENDBRANCH  20  33
ENDBRANCH  19  20
ENDBRANCH   1  19
TORSDOF 7
