REMARK  Name = ZINC01831616
REMARK  10 active torsions:
REMARK  status: ('A' for Active; 'I' for Inactive)
REMARK    1  A    between atoms: C_1  and  C_2
REMARK    2  A    between atoms: C_2  and  O_3
REMARK    3  A    between atoms: O_3  and  C_4
REMARK    4  A    between atoms: C_7  and  N_10
REMARK    5  A    between atoms: C_11  and  C_32
REMARK    6  A    between atoms: C_14  and  S_15
REMARK    7  A    between atoms: S_15  and  C_16
REMARK    8  A    between atoms: C_16  and  C_17
REMARK    9  A    between atoms: N_19  and  C_20
REMARK   10  A    between atoms: C_25  and  C_26
REMARK                            x       y       z     vdW  Elec       q    Type
REMARK                         _______ _______ _______ _____ _____    ______ ____
ROOT
ATOM      1  N   UNL     1      -1.182   1.860   0.019  0.00  0.00    -0.270 N 
ATOM      2  C   UNL     1      -1.589   2.787  -0.914  0.00  0.00    +0.171 A 
ATOM      3  N   UNL     1      -2.748   3.255  -0.512  0.00  0.00    -0.128 NA
ATOM      4  N   UNL     1      -3.086   2.700   0.597  0.00  0.00    -0.122 NA
ATOM      5  C   UNL     1      -2.166   1.838   0.969  0.00  0.00    +0.197 A 
ENDROOT
BRANCH   1   9
ATOM      6  C   UNL     1       2.327  -0.396  -0.042  0.00  0.00    +0.121 A 
ATOM      7  C   UNL     1       1.099  -1.020  -0.205  0.00  0.00    +0.047 A 
ATOM      8  C   UNL     1      -0.063  -0.274  -0.183  0.00  0.00    +0.030 A 
ATOM      9  C   UNL     1      -0.002   1.101   0.003  0.00  0.00    +0.051 A 
ATOM     10  C   UNL     1       1.227   1.725   0.166  0.00  0.00    +0.030 A 
ATOM     11  C   UNL     1       2.388   0.978   0.143  0.00  0.00    +0.047 A 
BRANCH   6  12
ATOM     12  O   UNL     1       3.470  -1.130  -0.064  0.00  0.00    -0.492 OA
BRANCH  12  14
ATOM     13  C   UNL     1       5.868  -1.409   0.056  0.00  0.00    +0.048 C 
ATOM     14  C   UNL     1       4.700  -0.422   0.110  0.00  0.00    +0.225 C 
ENDBRANCH  12  14
ENDBRANCH   6  12
ENDBRANCH   1   9
BRANCH   2  15
ATOM     15  C   UNL     1      -0.861   3.179  -2.139  0.00  0.00    +0.038 A 
ATOM     16  C   UNL     1       0.158   2.367  -2.652  0.00  0.00    +0.014 A 
ATOM     17  C   UNL     1       0.808   2.778  -3.801  0.00  0.00    +0.020 A 
ATOM     18  C   UNL     1       0.435   3.967  -4.402  0.00  0.00    +0.111 A 
ATOM     19  N   UNL     1      -0.529   4.713  -3.896  0.00  0.00    -0.263 NA
ATOM     20  C   UNL     1      -1.181   4.361  -2.808  0.00  0.00    +0.122 A 
ENDBRANCH   2  15
BRANCH   5  21
ATOM     21  S   UNL     1      -2.196   0.839   2.421  0.00  0.00    -0.076 S 
BRANCH  21  22
ATOM     22  C   UNL     1      -3.772   1.370   3.135  0.00  0.00    +0.173 C 
BRANCH  22  23
ATOM     23  C   UNL     1      -4.015   0.627   4.423  0.00  0.00    +0.228 C 
ATOM     24  O   UNL     1      -3.203  -0.182   4.819  0.00  0.00    -0.275 OA
ATOM     25  N   UNL     1      -5.135   0.861   5.135  0.00  0.00    -0.284 N 
ATOM     26  H   UNL     1      -5.816   1.456   4.786  0.00  0.00    +0.155 HD
BRANCH  25  27
ATOM     27  C   UNL     1      -5.316   0.245   6.377  0.00  0.00    +0.041 A 
ATOM     28  C   UNL     1      -4.821  -1.032   6.599  0.00  0.00    +0.024 A 
ATOM     29  C   UNL     1      -5.000  -1.639   7.827  0.00  0.00    +0.002 A 
ATOM     30  C   UNL     1      -5.673  -0.979   8.841  0.00  0.00    +0.001 A 
ATOM     31  C   UNL     1      -6.170   0.291   8.634  0.00  0.00    +0.010 A 
ATOM     32  C   UNL     1      -5.992   0.916   7.402  0.00  0.00    +0.003 A 
BRANCH  32  33
ATOM     33  C   UNL     1      -6.520   2.283   7.176  0.00  0.00    -0.016 A 
ATOM     34  C   UNL     1      -5.695   3.272   6.643  0.00  0.00    +0.008 A 
ATOM     35  C   UNL     1      -6.193   4.542   6.431  0.00  0.00    +0.001 A 
ATOM     36  C   UNL     1      -7.505   4.836   6.756  0.00  0.00    +0.000 A 
ATOM     37  C   UNL     1      -8.326   3.860   7.289  0.00  0.00    +0.001 A 
ATOM     38  C   UNL     1      -7.841   2.586   7.501  0.00  0.00    +0.008 A 
ENDBRANCH  32  33
ENDBRANCH  25  27
ENDBRANCH  22  23
ENDBRANCH  21  22
ENDBRANCH   5  21
TORSDOF 9
