REMARK  Name = ZINC64540937
REMARK  5 active torsions:
REMARK  status: ('A' for Active; 'I' for Inactive)
REMARK    1  A    between atoms: C_6  and  C_7
REMARK    2  A    between atoms: C_7  and  N_8
REMARK    3  A    between atoms: C_9  and  C_11
REMARK    4  A    between atoms: C_11  and  C_12
REMARK    5  A    between atoms: C_18  and  C_20
REMARK                            x       y       z     vdW  Elec       q    Type
REMARK                         _______ _______ _______ _____ _____    ______ ____
ROOT
ATOM      1  C   UNL     1      -4.629  -2.721  -3.017  0.00  0.00    +0.001 C 
ATOM      2  C   UNL     1      -4.394  -4.109  -2.415  0.00  0.00    +0.023 C 
ATOM      3  C   UNL     1      -5.720  -4.875  -2.377  0.00  0.00    +0.108 C 
ATOM      4  N   UNL     1      -6.295  -4.893  -3.728  0.00  0.00    -0.300 N 
ATOM      5  C   UNL     1      -6.480  -3.618  -4.435  0.00  0.00    +0.108 C 
ATOM      6  C   UNL     1      -5.145  -2.866  -4.450  0.00  0.00    +0.023 C 
ATOM      7  C   UNL     1      -6.647  -6.057  -4.310  0.00  0.00    +0.242 C 
ATOM      8  O   UNL     1      -6.489  -7.103  -3.716  0.00  0.00    -0.273 OA
ENDROOT
BRANCH   7   9
ATOM      9  C   UNL     1      -7.236  -6.059  -5.697  0.00  0.00    +0.190 C 
ATOM     10  C   UNL     1      -8.544  -5.301  -5.709  0.00  0.00    +0.016 C 
ATOM     11  C   UNL     1      -9.489  -6.190  -6.091  0.00  0.00    -0.002 A 
ATOM     12  C   UNL     1     -10.938  -6.074  -6.293  0.00  0.00    +0.029 A 
ATOM     13  C   UNL     1     -11.634  -7.165  -6.689  0.00  0.00    +0.042 A 
ATOM     14  C   UNL     1     -11.007  -8.400  -6.910  0.00  0.00    +0.022 A 
ATOM     15  C   UNL     1      -9.680  -8.583  -6.745  0.00  0.00    +0.027 A 
ATOM     16  C   UNL     1      -8.851  -7.504  -6.331  0.00  0.00    +0.043 A 
ATOM     17  N   UNL     1      -7.560  -7.430  -6.107  0.00  0.00    -0.370 N 
ATOM     18 CL   UNL     1     -13.349  -7.034  -6.928  0.00  0.00    -0.084 Cl
ATOM     19  H   UNL     1      -6.926  -8.159  -6.196  0.00  0.00    +0.161 HD
ENDBRANCH   7   9
BRANCH   1  20
ATOM     20  C   UNL     1      -3.314  -1.940  -3.025  0.00  0.00    +0.099 C 
BRANCH  20  22
ATOM     21  N   UNL     1      -1.727  -1.016  -1.368  0.00  0.00    -0.311 N 
ATOM     22  C   UNL     1      -2.868  -1.691  -1.607  0.00  0.00    +0.214 C 
ATOM     23  O   UNL     1      -3.537  -2.098  -0.681  0.00  0.00    -0.276 OA
ATOM     24  H   UNL     1      -1.192  -0.690  -2.109  0.00  0.00    +0.149 HD
BRANCH  21  25
ATOM     25  C   UNL     1      -1.294  -0.774   0.010  0.00  0.00    +0.139 C 
BRANCH  25  31
ATOM     26  C   UNL     1      -0.017   1.378   0.010  0.00  0.00    +0.009 A 
ATOM     27  C   UNL     1       1.170   2.088   0.002  0.00  0.00    +0.050 A 
ATOM     28  C   UNL     1       2.380   1.416  -0.013  0.00  0.00    +0.166 A 
ATOM     29  C   UNL     1       2.399   0.023  -0.021  0.00  0.00    +0.167 A 
ATOM     30  C   UNL     1       1.207  -0.682  -0.014  0.00  0.00    +0.054 A 
ATOM     31  C   UNL     1       0.002  -0.004   0.002  0.00  0.00    -0.027 A 
ATOM     32  O   UNL     1       3.698  -0.395  -0.036  0.00  0.00    -0.453 OA
ATOM     33  C   UNL     1       4.466   0.750  -0.450  0.00  0.00    +0.466 C 
ATOM     34  O   UNL     1       3.668   1.870  -0.024  0.00  0.00    -0.453 OA
ENDBRANCH  25  31
ENDBRANCH  21  25
ENDBRANCH  20  22
ENDBRANCH   1  20
TORSDOF 5
