REMARK  Name = ZINC08623452
REMARK  9 active torsions:
REMARK  status: ('A' for Active; 'I' for Inactive)
REMARK    1  A    between atoms: C_1  and  C_2
REMARK    2  A    between atoms: C_2  and  C_4
REMARK    3  A    between atoms: C_8  and  N_10
REMARK    4  A    between atoms: C_11  and  O_13
REMARK    5  A    between atoms: O_13  and  C_14
REMARK    6  A    between atoms: C_14  and  C_15
REMARK    7  A    between atoms: C_23  and  C_25
REMARK    8  A    between atoms: C_27  and  C_37
REMARK    9  A    between atoms: C_29  and  C_31
REMARK                            x       y       z     vdW  Elec       q    Type
REMARK                         _______ _______ _______ _____ _____    ______ ____
ROOT
ATOM      1  C   UNL     1      -0.096   3.913   0.162  0.00  0.00    -0.030 C 
ATOM      2  C   UNL     1      -0.225   2.515  -0.449  0.00  0.00    -0.008 C 
ATOM      3  C   UNL     1       0.603   2.459  -1.739  0.00  0.00    -0.007 C 
ATOM      4  C   UNL     1       2.064   2.779  -1.397  0.00  0.00    -0.015 C 
ATOM      5  C   UNL     1       2.130   4.170  -0.760  0.00  0.00    -0.078 C 
ATOM      6  C   UNL     1       0.201   4.903  -2.029  0.00  0.00    -0.068 C 
ATOM      7  C   UNL     1       0.087   3.521  -2.718  0.00  0.00    +0.024 C 
ATOM      8  N   UNL     1       0.778   4.763  -0.675  0.00  0.00    +0.384 N 
ATOM      9  H   UNL     1       0.849   5.693  -0.245  0.00  0.00    -0.081 HD
ENDROOT
BRANCH   7  10
ATOM     10  C   UNL     1      -1.358   3.245  -3.046  0.00  0.00    +0.047 A 
ATOM     11  C   UNL     1      -2.185   4.268  -3.487  0.00  0.00    +0.047 A 
ATOM     12  C   UNL     1      -3.508   3.970  -3.779  0.00  0.00    +0.048 A 
ATOM     13  N   UNL     1      -3.938   2.729  -3.629  0.00  0.00    -0.232 NA
ATOM     14  C   UNL     1      -3.121   1.775  -3.206  0.00  0.00    +0.160 A 
ATOM     15  N   UNL     1      -1.850   2.025  -2.923  0.00  0.00    -0.232 NA
BRANCH  14  16
ATOM     16  C   UNL     1      -3.640   0.394  -3.049  0.00  0.00    +0.022 A 
ATOM     17  C   UNL     1      -2.809  -0.640  -2.611  0.00  0.00    +0.031 A 
ATOM     18  C   UNL     1      -3.334  -1.909  -2.474  0.00  0.00    +0.111 A 
ATOM     19  N   UNL     1      -4.597  -2.154  -2.761  0.00  0.00    -0.263 NA
ATOM     20  C   UNL     1      -5.414  -1.208  -3.183  0.00  0.00    +0.111 A 
ATOM     21  C   UNL     1      -4.972   0.090  -3.342  0.00  0.00    +0.031 A 
ENDBRANCH  14  16
BRANCH  12  22
ATOM     22  C   UNL     1      -4.444   5.049  -4.261  0.00  0.00    +0.038 C 
ATOM     23  C   UNL     1      -4.214   5.316  -5.763  0.00  0.00    +0.010 C 
ATOM     24  C   UNL     1      -4.395   6.848  -5.908  0.00  0.00    +0.001 C 
ATOM     25  C   UNL     1      -3.747   7.393  -4.611  0.00  0.00    +0.001 C 
ATOM     26  C   UNL     1      -4.147   6.369  -3.529  0.00  0.00    +0.010 C 
ENDBRANCH  12  22
ENDBRANCH   7  10
BRANCH   1  27
ATOM     27  C   UNL     1      -1.479   4.561   0.251  0.00  0.00    +0.219 C 
BRANCH  27  28
ATOM     28  O   UNL     1      -1.361   5.873   0.861  0.00  0.00    -0.452 OA
BRANCH  28  30
ATOM     29  N   UNL     1      -2.420   7.884   1.390  0.00  0.00    -0.251 N 
ATOM     30  C   UNL     1      -2.480   6.619   0.928  0.00  0.00    +0.404 C 
ATOM     31  O   UNL     1      -3.544   6.152   0.573  0.00  0.00    -0.226 OA
ATOM     32  H   UNL     1      -1.562   8.280   1.609  0.00  0.00    +0.158 HD
BRANCH  29  37
ATOM     33  C   UNL     1      -4.770  10.726   1.481  0.00  0.00    +0.019 A 
ATOM     34  C   UNL     1      -5.941  10.078   1.887  0.00  0.00    +0.011 A 
ATOM     35  C   UNL     1      -5.931   8.719   2.123  0.00  0.00    +0.002 A 
ATOM     36  C   UNL     1      -4.765   7.992   1.959  0.00  0.00    +0.023 A 
ATOM     37  C   UNL     1      -3.596   8.625   1.555  0.00  0.00    +0.037 A 
ATOM     38  C   UNL     1      -3.592   9.991   1.320  0.00  0.00    +0.034 A 
BRANCH  33  40
ATOM     39  C   UNL     1      -6.047  12.966   1.408  0.00  0.00    +0.091 C 
ATOM     40  C   UNL     1      -4.777  12.175   1.228  0.00  0.00    +0.160 C 
ATOM     41  O   UNL     1      -3.760  12.734   0.875  0.00  0.00    -0.292 OA
ENDBRANCH  33  40
ENDBRANCH  29  37
ENDBRANCH  28  30
ENDBRANCH  27  28
ENDBRANCH   1  27
TORSDOF 8
