REMARK  Name = ZINC38620601
REMARK  13 active torsions:
REMARK  status: ('A' for Active; 'I' for Inactive)
REMARK    1  A    between atoms: C_1  and  C_2
REMARK    2  A    between atoms: C_5  and  C_8
REMARK    3  A    between atoms: N_12  and  C_16
REMARK    4  A    between atoms: C_16  and  C_17
REMARK    5  A    between atoms: C_17  and  C_18
REMARK    6  A    between atoms: C_18  and  C_19
REMARK    7  A    between atoms: C_19  and  C_21
REMARK    8  A    between atoms: C_22  and  C_35
REMARK    9  A    between atoms: C_23  and  C_33
REMARK   10  A    between atoms: N_26  and  C_29
REMARK   11  A    between atoms: C_29  and  C_30
REMARK   12  A    between atoms: C_30  and  O_31
REMARK   13  A    between atoms: O_31  and  C_32
REMARK                            x       y       z     vdW  Elec       q    Type
REMARK                         _______ _______ _______ _____ _____    ______ ____
ROOT
ATOM      1  C   UNL     1       2.295  -9.984   3.942  0.00  0.00    +0.081 C 
ENDROOT
BRANCH   1   2
ATOM      2  C   UNL     1       3.738 -10.373   3.750  0.00  0.00    +0.169 C 
ATOM      3  O   UNL     1       4.589  -9.514   3.641  0.00  0.00    -0.292 OA
BRANCH   2   4
ATOM      4  C   UNL     1       4.113 -11.786   3.693  0.00  0.00    +0.086 A 
ATOM      5  C   UNL     1       5.443 -12.149   3.413  0.00  0.00    -0.012 A 
ATOM      6  C   UNL     1       5.774 -13.499   3.365  0.00  0.00    +0.120 A 
ATOM      7  C   UNL     1       4.726 -14.492   3.609  0.00  0.00    +0.272 A 
ATOM      8  O   UNL     1       4.991 -15.680   3.573  0.00  0.00    -0.266 OA
ATOM      9  N   UNL     1       3.469 -14.089   3.873  0.00  0.00    -0.272 N 
ATOM     10  C   UNL     1       3.150 -12.775   3.924  0.00  0.00    +0.265 A 
ATOM     11  O   UNL     1       1.883 -12.412   4.196  0.00  0.00    -0.267 OA
ATOM     12  C   UNL     1       6.491 -11.094   3.168  0.00  0.00    +0.046 C 
BRANCH   6  13
ATOM     13  C   UNL     1       7.116 -13.910   3.083  0.00  0.00    +0.105 C 
ATOM     14  N   UNL     1       8.181 -14.237   2.859  0.00  0.00    -0.191 NA
ENDBRANCH   6  13
BRANCH   9  15
ATOM     15  C   UNL     1       2.428 -15.092   4.114  0.00  0.00    +0.156 C 
BRANCH  15  16
ATOM     16  C   UNL     1       2.370 -15.416   5.609  0.00  0.00    +0.181 C 
BRANCH  16  17
ATOM     17  O   UNL     1       1.953 -14.256   6.332  0.00  0.00    -0.381 OA
ATOM     18  C   UNL     1       1.865 -14.452   7.744  0.00  0.00    +0.194 C 
ENDBRANCH  16  17
ENDBRANCH  15  16
ENDBRANCH   9  15
ENDBRANCH   2   4
ENDBRANCH   1   2
BRANCH   1  19
ATOM     19  C   UNL     1       2.155  -8.465   3.818  0.00  0.00    +0.027 C 
BRANCH  19  20
ATOM     20  C   UNL     1       0.690  -8.070   4.014  0.00  0.00    +0.115 C 
BRANCH  20  25
ATOM     21  C   UNL     1      -0.046  -3.800   1.597  0.00  0.00    +0.028 C 
ATOM     22  C   UNL     1       0.193  -4.611   2.657  0.00  0.00    +0.077 C 
ATOM     23  C   UNL     1       0.317  -6.084   2.708  0.00  0.00    +0.258 C 
ATOM     24  O   UNL     1       0.204  -6.771   1.710  0.00  0.00    -0.269 OA
ATOM     25  N   UNL     1       0.557  -6.616   3.895  0.00  0.00    -0.255 N 
ATOM     26  C   UNL     1       0.680  -5.851   4.999  0.00  0.00    +0.121 C 
ATOM     27  S   UNL     1       0.988  -6.348   6.608  0.00  0.00    -0.027 S 
ATOM     28  S   UNL     1       0.454  -4.193   4.375  0.00  0.00    -0.061 S 
BRANCH  21  33
ATOM     29  C   UNL     1      -1.236   1.759   2.441  0.00  0.00    +0.044 C 
ATOM     30  C   UNL     1      -0.924   0.301   2.219  0.00  0.00    -0.050 A 
ATOM     31  C   UNL     1      -0.701  -0.168   0.936  0.00  0.00    +0.004 A 
ATOM     32  C   UNL     1      -0.415  -1.500   0.725  0.00  0.00    +0.008 A 
ATOM     33  C   UNL     1      -0.350  -2.378   1.812  0.00  0.00    -0.024 A 
ATOM     34  C   UNL     1      -0.577  -1.896   3.106  0.00  0.00    +0.008 A 
ATOM     35  C   UNL     1      -0.857  -0.560   3.301  0.00  0.00    +0.004 A 
ENDBRANCH  21  33
ENDBRANCH  20  25
ENDBRANCH  19  20
ENDBRANCH   1  19
TORSDOF 10
