REMARK  Name = ZINC64704674
REMARK  8 active torsions:
REMARK  status: ('A' for Active; 'I' for Inactive)
REMARK    1  A    between atoms: C_1  and  C_2
REMARK    2  A    between atoms: C_2  and  O_3
REMARK    3  A    between atoms: O_3  and  C_4
REMARK    4  A    between atoms: C_4  and  C_6
REMARK    5  A    between atoms: C_8  and  N_19
REMARK    6  A    between atoms: N_19  and  C_20
REMARK    7  A    between atoms: C_20  and  C_21
REMARK    8  A    between atoms: C_26  and  C_27
REMARK                            x       y       z     vdW  Elec       q    Type
REMARK                         _______ _______ _______ _____ _____    ______ ____
ROOT
ATOM      1  C   UNL     1       1.225  -2.385  -2.410  0.00  0.00    +0.228 C 
ATOM      2  C   UNL     1       1.609  -3.851  -2.341  0.00  0.00    +0.036 C 
ATOM      3  C   UNL     1       1.226  -4.660  -3.420  0.00  0.00    +0.016 A 
ATOM      4  C   UNL     1       1.541  -6.032  -3.437  0.00  0.00    +0.031 A 
ATOM      5  C   UNL     1       1.157  -6.797  -4.497  0.00  0.00    +0.042 A 
ATOM      6  C   UNL     1       0.458  -6.248  -5.567  0.00  0.00    +0.022 A 
ATOM      7  C   UNL     1       0.125  -4.927  -5.605  0.00  0.00    +0.025 A 
ATOM      8  C   UNL     1       0.490  -4.081  -4.544  0.00  0.00    +0.042 A 
ATOM      9  N   UNL     1       0.161  -2.782  -4.584  0.00  0.00    -0.284 N 
ATOM     10  C   UNL     1       0.464  -1.925  -3.633  0.00  0.00    +0.237 C 
ATOM     11  O   UNL     1       0.131  -0.759  -3.738  0.00  0.00    -0.274 OA
ATOM     12 CL   UNL     1       1.548  -8.489  -4.513  0.00  0.00    -0.084 Cl
ATOM     13  H   UNL     1      -0.328  -2.456  -5.356  0.00  0.00    +0.155 HD
ENDROOT
BRANCH   1  14
ATOM     14  C   UNL     1       0.388  -2.068  -1.198  0.00  0.00    +0.325 C 
ATOM     15  O   UNL     1      -0.467  -2.842  -0.835  0.00  0.00    -0.250 OA
BRANCH  14  16
ATOM     16  O   UNL     1       0.591  -0.927  -0.521  0.00  0.00    -0.464 OA
BRANCH  16  18
ATOM     17  C   UNL     1       0.136   0.648   1.254  0.00  0.00    +0.048 C 
ATOM     18  C   UNL     1      -0.239  -0.691   0.618  0.00  0.00    +0.229 C 
ENDBRANCH  16  18
ENDBRANCH  14  16
ENDBRANCH   1  14
BRANCH   2  19
ATOM     19  N   UNL     1       2.284  -4.349  -1.296  0.00  0.00    -0.341 N 
ATOM     20  H   UNL     1       2.445  -5.304  -1.233  0.00  0.00    +0.146 HD
BRANCH  19  21
ATOM     21  C   UNL     1       2.780  -3.452  -0.249  0.00  0.00    +0.137 C 
BRANCH  21  22
ATOM     22  C   UNL     1       3.585  -4.243   0.750  0.00  0.00    -0.019 A 
ATOM     23  C   UNL     1       3.012  -4.635   1.945  0.00  0.00    +0.006 A 
ATOM     24  C   UNL     1       3.751  -5.360   2.861  0.00  0.00    +0.000 A 
ATOM     25  C   UNL     1       5.063  -5.694   2.581  0.00  0.00    +0.001 A 
ATOM     26  C   UNL     1       5.636  -5.303   1.386  0.00  0.00    +0.013 A 
ATOM     27  C   UNL     1       4.895  -4.582   0.468  0.00  0.00    +0.059 A 
BRANCH  27  28
ATOM     28  C   UNL     1       5.518  -4.160  -0.838  0.00  0.00    +0.418 C 
ATOM     29  F   UNL     1       6.840  -4.615  -0.893  0.00  0.00    -0.166 F 
ATOM     30  F   UNL     1       4.791  -4.709  -1.900  0.00  0.00    -0.166 F 
ATOM     31  F   UNL     1       5.502  -2.764  -0.934  0.00  0.00    -0.166 F 
ENDBRANCH  27  28
ENDBRANCH  21  22
ENDBRANCH  19  21
ENDBRANCH   2  19
TORSDOF 7
