REMARK  Name = ZINC22516529
REMARK  14 active torsions:
REMARK  status: ('A' for Active; 'I' for Inactive)
REMARK    1  A    between atoms: C_1  and  C_2
REMARK    2  A    between atoms: C_2  and  C_4
REMARK    3  A    between atoms: C_2  and  N_14
REMARK    4  A    between atoms: C_7  and  O_12
REMARK    5  A    between atoms: C_8  and  O_10
REMARK    6  A    between atoms: O_10  and  C_11
REMARK    7  A    between atoms: O_12  and  C_13
REMARK    8  A    between atoms: C_15  and  C_17
REMARK    9  A    between atoms: C_17  and  N_18
REMARK   10  A    between atoms: N_18  and  C_19
REMARK   11  A    between atoms: N_18  and  S_26
REMARK   12  A    between atoms: S_26  and  C_29
REMARK   13  A    between atoms: C_32  and  O_35
REMARK   14  A    between atoms: O_35  and  C_36
REMARK                            x       y       z     vdW  Elec       q    Type
REMARK                         _______ _______ _______ _____ _____    ______ ____
ROOT
ATOM      1  N   UNL     1       2.116  -2.657   1.426  0.00  0.00    -0.194 N 
ENDROOT
BRANCH   1   2
ATOM      2  C   UNL     1       3.366  -2.768   0.811  0.00  0.00    +0.053 A 
ATOM      3  C   UNL     1       3.705  -1.919  -0.235  0.00  0.00    +0.025 A 
ATOM      4  C   UNL     1       4.941  -2.031  -0.841  0.00  0.00    +0.003 A 
ATOM      5  C   UNL     1       5.841  -2.987  -0.408  0.00  0.00    +0.020 A 
ATOM      6  C   UNL     1       5.507  -3.836   0.634  0.00  0.00    +0.043 A 
ATOM      7  C   UNL     1       4.273  -3.725   1.248  0.00  0.00    +0.044 A 
ATOM      8 CL   UNL     1       6.640  -5.034   1.174  0.00  0.00    -0.083 Cl
ENDBRANCH   1   2
BRANCH   1   9
ATOM      9  S   UNL     1       2.018  -2.371   3.054  0.00  0.00    +0.075 S 
ATOM     10  O   UNL     1       3.289  -1.880   3.458  0.00  0.00    -0.150 OA
ATOM     11  O   UNL     1       0.817  -1.641   3.266  0.00  0.00    -0.150 OA
BRANCH   9  12
ATOM     12  C   UNL     1       1.806  -3.931   3.846  0.00  0.00    +0.109 A 
ATOM     13  C   UNL     1       0.543  -4.480   3.960  0.00  0.00    +0.032 A 
ATOM     14  C   UNL     1       0.375  -5.706   4.575  0.00  0.00    +0.047 A 
ATOM     15  C   UNL     1       1.474  -6.380   5.088  0.00  0.00    +0.120 A 
ATOM     16  C   UNL     1       2.740  -5.823   4.977  0.00  0.00    +0.047 A 
ATOM     17  C   UNL     1       2.903  -4.600   4.356  0.00  0.00    +0.032 A 
BRANCH  15  18
ATOM     18  O   UNL     1       1.310  -7.583   5.698  0.00  0.00    -0.495 OA
ATOM     19  C   UNL     1      -0.021  -8.095   5.776  0.00  0.00    +0.277 C 
ENDBRANCH  15  18
ENDBRANCH   9  12
ENDBRANCH   1   9
BRANCH   1  20
ATOM     20  C   UNL     1       0.894  -2.793   0.631  0.00  0.00    +0.227 C 
BRANCH  20  22
ATOM     21  N   UNL     1      -0.547  -1.348  -0.768  0.00  0.00    -0.307 N 
ATOM     22  C   UNL     1       0.547  -1.464   0.012  0.00  0.00    +0.233 C 
ATOM     23  O   UNL     1       1.251  -0.497   0.215  0.00  0.00    -0.274 OA
ATOM     24  H   UNL     1      -1.186  -2.224  -0.952  0.00  0.00    +0.149 HD
BRANCH  21  26
ATOM     25  C   UNL     1      -1.689   0.778  -0.370  0.00  0.00    +0.033 C 
ATOM     26  C   UNL     1      -0.884  -0.056  -1.370  0.00  0.00    +0.100 C 
BRANCH  26  27
ATOM     27  C   UNL     1      -1.706  -0.280  -2.613  0.00  0.00    -0.024 A 
ATOM     28  C   UNL     1      -2.679  -1.262  -2.629  0.00  0.00    +0.009 A 
ATOM     29  C   UNL     1      -3.436  -1.471  -3.767  0.00  0.00    +0.050 A 
ATOM     30  C   UNL     1      -3.220  -0.696  -4.894  0.00  0.00    +0.162 A 
ATOM     31  C   UNL     1      -2.240   0.292  -4.879  0.00  0.00    +0.162 A 
ATOM     32  C   UNL     1      -1.489   0.500  -3.733  0.00  0.00    +0.054 A 
BRANCH  31  33
ATOM     33  O   UNL     1      -2.024   1.056  -5.983  0.00  0.00    -0.491 OA
ATOM     34  C   UNL     1      -1.002   2.051  -5.895  0.00  0.00    +0.277 C 
ENDBRANCH  31  33
BRANCH  30  35
ATOM     35  O   UNL     1      -3.963  -0.900  -6.015  0.00  0.00    -0.491 OA
ATOM     36  C   UNL     1      -4.950  -1.932  -5.959  0.00  0.00    +0.277 C 
ENDBRANCH  30  35
ENDBRANCH  26  27
ENDBRANCH  21  26
ENDBRANCH  20  22
ENDBRANCH   1  20
TORSDOF 10
