REMARK  Name = ZINC40844517
REMARK  9 active torsions:
REMARK  status: ('A' for Active; 'I' for Inactive)
REMARK    1  A    between atoms: C_1  and  C_2
REMARK    2  A    between atoms: C_2  and  O_3
REMARK    3  A    between atoms: O_3  and  C_4
REMARK    4  A    between atoms: C_4  and  C_6
REMARK    5  A    between atoms: C_7  and  N_27
REMARK    6  A    between atoms: C_19  and  C_21
REMARK    7  A    between atoms: C_28  and  C_30
REMARK    8  A    between atoms: C_35  and  O_36
REMARK    9  A    between atoms: O_36  and  C_37
REMARK                            x       y       z     vdW  Elec       q    Type
REMARK                         _______ _______ _______ _____ _____    ______ ____
ROOT
ATOM      1  C   UNL     1      -2.788  -2.394   0.008  0.00  0.00    +0.106 C 
ATOM      2  C   UNL     1      -2.939  -3.738  -0.087  0.00  0.00    +0.204 C 
ATOM      3  O   UNL     1      -4.152  -4.312  -0.076  0.00  0.00    -0.441 OA
ATOM      4  C   UNL     1      -5.219  -3.639   0.425  0.00  0.00    +0.135 A 
ATOM      5  C   UNL     1      -6.353  -4.368   0.815  0.00  0.00    +0.047 A 
ATOM      6  C   UNL     1      -7.449  -3.747   1.323  0.00  0.00    +0.012 A 
ATOM      7  C   UNL     1      -7.454  -2.348   1.465  0.00  0.00    -0.017 A 
ATOM      8  C   UNL     1      -8.569  -1.671   1.988  0.00  0.00    +0.008 A 
ATOM      9  C   UNL     1      -8.536  -0.316   2.111  0.00  0.00    +0.001 A 
ATOM     10  C   UNL     1      -7.412   0.413   1.726  0.00  0.00    +0.001 A 
ATOM     11  C   UNL     1      -6.315  -0.209   1.215  0.00  0.00    +0.009 A 
ATOM     12  C   UNL     1      -6.312  -1.607   1.073  0.00  0.00    -0.010 A 
ATOM     13  C   UNL     1      -5.194  -2.281   0.549  0.00  0.00    +0.015 A 
ATOM     14  C   UNL     1      -3.982  -1.490   0.138  0.00  0.00    +0.095 C 
ENDROOT
BRANCH  14  15
ATOM     15  C   UNL     1      -4.253  -0.826  -1.188  0.00  0.00    -0.035 A 
ATOM     16  C   UNL     1      -4.538  -1.595  -2.300  0.00  0.00    +0.004 A 
ATOM     17  C   UNL     1      -4.786  -0.985  -3.516  0.00  0.00    +0.000 A 
ATOM     18  C   UNL     1      -4.748   0.393  -3.619  0.00  0.00    +0.000 A 
ATOM     19  C   UNL     1      -4.463   1.161  -2.506  0.00  0.00    +0.000 A 
ATOM     20  C   UNL     1      -4.220   0.552  -1.289  0.00  0.00    +0.004 A 
ENDBRANCH  14  15
BRANCH   2  21
ATOM     21  N   UNL     1      -1.823  -4.532  -0.198  0.00  0.00    -0.252 N 
ATOM     22  C   UNL     1      -1.956  -5.858  -0.403  0.00  0.00    +0.254 C 
ATOM     23  O   UNL     1      -3.064  -6.351  -0.489  0.00  0.00    -0.270 OA
ATOM     24  H   UNL     1      -0.939  -4.139  -0.130  0.00  0.00    +0.158 HD
BRANCH  22  25
ATOM     25  C   UNL     1      -0.758  -6.710  -0.522  0.00  0.00    +0.079 A 
ATOM     26  C   UNL     1       0.517  -6.148  -0.418  0.00  0.00    +0.017 A 
ATOM     27  C   UNL     1       1.632  -6.949  -0.529  0.00  0.00    +0.001 A 
ATOM     28  C   UNL     1       1.495  -8.311  -0.745  0.00  0.00    +0.004 A 
ATOM     29  C   UNL     1       0.241  -8.880  -0.850  0.00  0.00    +0.046 A 
ATOM     30  C   UNL     1      -0.892  -8.089  -0.735  0.00  0.00    +0.132 A 
BRANCH  30  31
ATOM     31  O   UNL     1      -2.125  -8.647  -0.832  0.00  0.00    -0.494 OA
ATOM     32  C   UNL     1      -2.183 -10.058  -1.049  0.00  0.00    +0.277 C 
ENDBRANCH  30  31
ENDBRANCH  22  25
ENDBRANCH   2  21
BRANCH   1  33
ATOM     33  C   UNL     1      -1.498  -1.839  -0.009  0.00  0.00    +0.341 C 
ATOM     34  O   UNL     1      -0.998  -1.428   1.022  0.00  0.00    -0.245 OA
BRANCH  33  35
ATOM     35  O   UNL     1      -0.812  -1.760  -1.170  0.00  0.00    -0.462 OA
BRANCH  35  37
ATOM     36  C   UNL     1       1.111  -1.181  -2.514  0.00  0.00    +0.048 C 
ATOM     37  C   UNL     1       0.494  -1.184  -1.114  0.00  0.00    +0.229 C 
ENDBRANCH  35  37
ENDBRANCH  33  35
ENDBRANCH   1  33
TORSDOF 7
