REMARK  Name = ZINC22831014
REMARK  10 active torsions:
REMARK  status: ('A' for Active; 'I' for Inactive)
REMARK    1  A    between atoms: C_1  and  N_2
REMARK    2  A    between atoms: C_3  and  C_30
REMARK    3  A    between atoms: C_6  and  S_7
REMARK    4  A    between atoms: S_7  and  C_8
REMARK    5  A    between atoms: C_8  and  C_9
REMARK    6  A    between atoms: C_10  and  C_26
REMARK    7  A    between atoms: C_11  and  C_20
REMARK    8  A    between atoms: N_16  and  C_17
REMARK    9  A    between atoms: C_26  and  O_28
REMARK   10  A    between atoms: O_28  and  C_29
REMARK                            x       y       z     vdW  Elec       q    Type
REMARK                         _______ _______ _______ _____ _____    ______ ____
ROOT
ATOM      1  C   UNL     1      -1.092   1.625   1.087  0.00  0.00    +0.037 C 
ATOM      2  C   UNL     1      -1.841   0.702   1.726  0.00  0.00    +0.079 C 
ATOM      3  C   UNL     1      -2.259   0.997   3.152  0.00  0.00    +0.144 C 
ATOM      4  N   UNL     1      -1.810   2.276   3.728  0.00  0.00    -0.288 N 
ATOM      5  C   UNL     1      -1.064   3.097   2.963  0.00  0.00    +0.307 C 
ATOM      6  O   UNL     1      -0.688   4.155   3.429  0.00  0.00    -0.252 OA
ATOM      7  N   UNL     1      -0.719   2.783   1.708  0.00  0.00    -0.255 N 
ATOM      8  H   UNL     1      -2.084   2.541   4.760  0.00  0.00    +0.151 HD
ENDROOT
BRANCH   3   9
ATOM      9  C   UNL     1      -3.765   0.964   3.212  0.00  0.00    -0.023 A 
ATOM     10  C   UNL     1      -4.497   2.059   2.793  0.00  0.00    +0.006 A 
ATOM     11  C   UNL     1      -5.878   2.027   2.843  0.00  0.00    +0.000 A 
ATOM     12  C   UNL     1      -6.527   0.904   3.321  0.00  0.00    +0.000 A 
ATOM     13  C   UNL     1      -5.794  -0.189   3.745  0.00  0.00    +0.000 A 
ATOM     14  C   UNL     1      -4.413  -0.159   3.691  0.00  0.00    +0.006 A 
ENDBRANCH   3   9
BRANCH   7  15
ATOM     15  C   UNL     1       0.100   3.737   0.956  0.00  0.00    +0.083 C 
ATOM     16  C   UNL     1      -0.321   5.208   0.989  0.00  0.00    +0.025 C 
ATOM     17  C   UNL     1      -0.524   4.381  -0.283  0.00  0.00    +0.025 C 
ENDBRANCH   7  15
BRANCH   2  18
ATOM     18  C   UNL     1      -2.224  -0.500   1.086  0.00  0.00    +0.339 C 
ATOM     19  O   UNL     1      -1.776  -0.775  -0.011  0.00  0.00    -0.245 OA
BRANCH  18  20
ATOM     20  O   UNL     1      -3.087  -1.343   1.692  0.00  0.00    -0.465 OA
ATOM     21  C   UNL     1      -3.430  -2.538   0.988  0.00  0.00    +0.280 C 
ENDBRANCH  18  20
ENDBRANCH   2  18
BRANCH   1  22
ATOM     22  C   UNL     1      -0.654   1.371  -0.333  0.00  0.00    +0.129 C 
BRANCH  22  23
ATOM     23  S   UNL     1       0.963   0.557  -0.329  0.00  0.00    -0.080 S 
BRANCH  23  29
ATOM     24  C   UNL     1       3.493  -0.743  -2.013  0.00  0.00    +0.153 C 
ATOM     25  N   UNL     1       2.313  -0.172  -2.668  0.00  0.00    -0.305 N 
ATOM     26  C   UNL     1       2.071  -0.089  -4.020  0.00  0.00    +0.167 A 
ATOM     27  N   UNL     1       0.905   0.495  -4.167  0.00  0.00    -0.128 NA
ATOM     28  N   UNL     1       0.406   0.774  -3.016  0.00  0.00    -0.122 NA
ATOM     29  C   UNL     1       1.222   0.385  -2.063  0.00  0.00    +0.192 A 
BRANCH  26  30
ATOM     30  C   UNL     1       2.960  -0.562  -5.102  0.00  0.00    +0.054 A 
ATOM     31  C   UNL     1       3.621  -1.786  -4.982  0.00  0.00    +0.014 A 
ATOM     32  C   UNL     1       4.444  -2.224  -5.999  0.00  0.00    +0.001 A 
ATOM     33  C   UNL     1       4.626  -1.449  -7.130  0.00  0.00    +0.003 A 
ATOM     34  C   UNL     1       3.980  -0.233  -7.255  0.00  0.00    +0.039 A 
ATOM     35  C   UNL     1       3.147   0.217  -6.247  0.00  0.00    +0.134 A 
ATOM     36  F   UNL     1       2.517   1.405  -6.369  0.00  0.00    -0.205 F 
ENDBRANCH  26  30
ENDBRANCH  23  29
ENDBRANCH  22  23
ENDBRANCH   1  22
TORSDOF 8
