REMARK  Name = ZINC12875014
REMARK  8 active torsions:
REMARK  status: ('A' for Active; 'I' for Inactive)
REMARK    1  A    between atoms: C_1  and  C_2
REMARK    2  A    between atoms: C_13  and  C_32
REMARK    3  A    between atoms: N_20  and  C_23
REMARK    4  A    between atoms: C_23  and  C_24
REMARK    5  A    between atoms: C_29  and  O_30
REMARK    6  A    between atoms: O_30  and  C_31
REMARK    7  A    between atoms: C_37  and  O_38
REMARK    8  A    between atoms: O_38  and  C_39
REMARK                            x       y       z     vdW  Elec       q    Type
REMARK                         _______ _______ _______ _____ _____    ______ ____
ROOT
ATOM      1  C   UNL     1       5.391   4.166   3.583  0.00  0.00    +0.048 C 
ATOM      2  C   UNL     1       3.884   3.909   3.539  0.00  0.00    +0.151 C 
ATOM      3  C   UNL     1       3.558   2.761   4.465  0.00  0.00    +0.054 A 
ATOM      4  C   UNL     1       2.963   2.905   5.657  0.00  0.00    -0.008 A 
ATOM      5  C   UNL     1       2.848   1.585   6.244  0.00  0.00    +0.004 A 
ATOM      6  C   UNL     1       2.310   1.128   7.450  0.00  0.00    +0.010 A 
ATOM      7  C   UNL     1       2.373  -0.223   7.686  0.00  0.00    +0.001 A 
ATOM      8  C   UNL     1       2.942  -1.102   6.778  0.00  0.00    +0.002 A 
ATOM      9  C   UNL     1       3.481  -0.677   5.577  0.00  0.00    +0.026 A 
ATOM     10  C   UNL     1       3.430   0.689   5.310  0.00  0.00    +0.047 A 
ATOM     11  N   UNL     1       3.857   1.431   4.247  0.00  0.00    -0.356 N 
ATOM     12  H   UNL     1       4.294   1.075   3.457  0.00  0.00    +0.166 HD
ATOM     13  C   UNL     1       2.506   4.224   6.224  0.00  0.00    +0.072 C 
ATOM     14  C   UNL     1       3.228   5.361   5.491  0.00  0.00    +0.122 C 
ATOM     15  N   UNL     1       3.187   5.093   4.041  0.00  0.00    -0.280 N 
ATOM     16  C   UNL     1       2.510   5.923   3.243  0.00  0.00    +0.234 C 
ATOM     17  O   UNL     1       2.089   6.954   3.724  0.00  0.00    -0.274 OA
ATOM     18  C   UNL     1       2.269   5.680   1.784  0.00  0.00    +0.204 C 
ATOM     19  N   UNL     1       2.765   4.381   1.360  0.00  0.00    -0.286 N 
ATOM     20  C   UNL     1       3.491   3.577   2.137  0.00  0.00    +0.246 C 
ATOM     21  O   UNL     1       3.854   2.515   1.679  0.00  0.00    -0.273 OA
ENDROOT
BRANCH  13  22
ATOM     22  C   UNL     1       2.836   4.283   7.694  0.00  0.00    +0.003 A 
ATOM     23  C   UNL     1       4.147   4.169   8.113  0.00  0.00    +0.008 A 
ATOM     24  C   UNL     1       4.450   4.223   9.461  0.00  0.00    +0.001 A 
ATOM     25  C   UNL     1       3.442   4.392  10.392  0.00  0.00    +0.004 A 
ATOM     26  C   UNL     1       2.129   4.506   9.978  0.00  0.00    +0.046 A 
ATOM     27  C   UNL     1       1.823   4.457   8.626  0.00  0.00    +0.124 A 
BRANCH  27  28
ATOM     28  O   UNL     1       0.533   4.575   8.215  0.00  0.00    -0.495 OA
ATOM     29  C   UNL     1      -0.457   4.752   9.230  0.00  0.00    +0.277 C 
ENDBRANCH  27  28
ENDBRANCH  13  22
BRANCH  19  30
ATOM     30  C   UNL     1       2.456   3.933   0.000  0.00  0.00    +0.147 C 
BRANCH  30  31
ATOM     31  C   UNL     1       1.160   3.164   0.008  0.00  0.00    +0.011 A 
ATOM     32  C   UNL     1       1.176   1.782   0.000  0.00  0.00    +0.009 A 
ATOM     33  C   UNL     1      -0.013   1.076   0.008  0.00  0.00    +0.001 A 
ATOM     34  C   UNL     1      -1.220   1.750   0.017  0.00  0.00    +0.004 A 
ATOM     35  C   UNL     1      -1.242   3.131   0.031  0.00  0.00    +0.046 A 
ATOM     36  C   UNL     1      -0.050   3.842   0.023  0.00  0.00    +0.125 A 
BRANCH  36  37
ATOM     37  O   UNL     1      -0.069   5.201   0.031  0.00  0.00    -0.495 OA
ATOM     38  C   UNL     1      -1.350   5.832   0.047  0.00  0.00    +0.277 C 
ENDBRANCH  36  37
ENDBRANCH  30  31
ENDBRANCH  19  30
TORSDOF 5
