REMARK  Name = ZINC39590873
REMARK  8 active torsions:
REMARK  status: ('A' for Active; 'I' for Inactive)
REMARK    1  A    between atoms: C_4  and  C_7
REMARK    2  A    between atoms: C_9  and  C_13
REMARK    3  A    between atoms: C_17  and  S_21
REMARK    4  A    between atoms: N_19  and  N_20
REMARK    5  A    between atoms: S_21  and  C_22
REMARK    6  A    between atoms: C_22  and  C_23
REMARK    7  A    between atoms: N_25  and  C_26
REMARK    8  A    between atoms: C_31  and  C_32
REMARK                            x       y       z     vdW  Elec       q    Type
REMARK                         _______ _______ _______ _____ _____    ______ ____
ROOT
ATOM      1  C   UNL     1       5.838  -2.941  -1.278  0.00  0.00    +0.244 C 
ATOM      2  N   UNL     1       5.627  -2.117  -2.475  0.00  0.00    -0.167 NA
ATOM      3  N   UNL     1       6.695  -1.666  -2.900  0.00  0.00    -0.159 NA
ATOM      4  C   UNL     1       7.825  -2.101  -2.068  0.00  0.00    +0.272 C 
ATOM      5  N   UNL     1       7.292  -3.238  -1.270  0.00  0.00    -0.183 NA
ENDROOT
BRANCH   1   8
ATOM      6  C   UNL     1       3.830  -0.586   0.005  0.00  0.00    +0.091 C 
ATOM      7  C   UNL     1       3.947  -1.928   0.021  0.00  0.00    +0.035 C 
ATOM      8  C   UNL     1       5.447  -2.162  -0.020  0.00  0.00    +0.195 C 
ATOM      9  N   UNL     1       5.999  -0.798  -0.057  0.00  0.00    -0.176 NA
ATOM     10  N   UNL     1       5.056  -0.003  -0.046  0.00  0.00    -0.154 NA
BRANCH   6  14
ATOM     11  C   UNL     1       0.141   1.527   0.082  0.00  0.00    +0.000 A 
ATOM     12  C   UNL     1       1.334   2.225   0.031  0.00  0.00    +0.001 A 
ATOM     13  C   UNL     1       2.534   1.545   0.006  0.00  0.00    +0.010 A 
ATOM     14  C   UNL     1       2.542   0.151   0.032  0.00  0.00    +0.002 A 
ATOM     15  C   UNL     1       1.337  -0.547   0.084  0.00  0.00    +0.010 A 
ATOM     16  C   UNL     1       0.143   0.144   0.108  0.00  0.00    +0.001 A 
ENDBRANCH   6  14
ENDBRANCH   1   8
BRANCH   5  17
ATOM     17  N   UNL     1       7.568  -4.508  -1.923  0.00  0.00    -0.263 NA
ATOM     18  H   UNL     1       8.545  -4.749  -1.846  0.00  0.00    +0.137 HD
ATOM     19  H   UNL     1       6.984  -5.241  -1.550  0.00  0.00    +0.137 HD
ENDBRANCH   5  17
BRANCH   4  20
ATOM     20  S   UNL     1       9.204  -2.649  -3.112  0.00  0.00    -0.107 S 
BRANCH  20  21
ATOM     21  C   UNL     1       9.831  -1.116  -3.851  0.00  0.00    +0.168 C 
BRANCH  21  22
ATOM     22  C   UNL     1      10.913  -1.444  -4.846  0.00  0.00    +0.227 C 
ATOM     23  O   UNL     1      11.231  -2.599  -5.038  0.00  0.00    -0.275 OA
ATOM     24  N   UNL     1      11.529  -0.455  -5.524  0.00  0.00    -0.284 N 
ATOM     25  H   UNL     1      11.220   0.460  -5.434  0.00  0.00    +0.155 HD
BRANCH  24  26
ATOM     26  C   UNL     1      12.615  -0.748  -6.357  0.00  0.00    +0.045 A 
ATOM     27  C   UNL     1      13.383  -1.882  -6.126  0.00  0.00    +0.025 A 
ATOM     28  C   UNL     1      14.454  -2.168  -6.949  0.00  0.00    +0.022 A 
ATOM     29  C   UNL     1      14.762  -1.326  -8.004  0.00  0.00    +0.042 A 
ATOM     30  C   UNL     1      13.999  -0.196  -8.236  0.00  0.00    +0.034 A 
ATOM     31  C   UNL     1      12.923   0.092  -7.419  0.00  0.00    +0.077 A 
ATOM     32 CL   UNL     1      16.110  -1.688  -9.036  0.00  0.00    -0.084 Cl
BRANCH  31  33
ATOM     33  C   UNL     1      12.088   1.320  -7.676  0.00  0.00    +0.419 C 
ATOM     34  F   UNL     1      12.590   2.000  -8.790  0.00  0.00    -0.166 F 
ATOM     35  F   UNL     1      10.764   0.941  -7.918  0.00  0.00    -0.166 F 
ATOM     36  F   UNL     1      12.136   2.159  -6.557  0.00  0.00    -0.166 F 
ENDBRANCH  31  33
ENDBRANCH  24  26
ENDBRANCH  21  22
ENDBRANCH  20  21
ENDBRANCH   4  20
TORSDOF 8
