REMARK  Name = ZINC08856455
REMARK  13 active torsions:
REMARK  status: ('A' for Active; 'I' for Inactive)
REMARK    1  A    between atoms: C_1  and  C_2
REMARK    2  A    between atoms: C_4  and  O_12
REMARK    3  A    between atoms: C_5  and  C_9
REMARK    4  A    between atoms: C_9  and  C_10
REMARK    5  A    between atoms: C_9  and  C_11
REMARK    6  A    between atoms: O_12  and  C_13
REMARK    7  A    between atoms: C_13  and  C_14
REMARK    8  A    between atoms: C_16  and  C_22
REMARK    9  A    between atoms: C_19  and  O_20
REMARK   10  A    between atoms: O_20  and  C_21
REMARK   11  A    between atoms: C_35  and  C_37
REMARK   12  A    between atoms: C_37  and  O_39
REMARK   13  A    between atoms: O_39  and  C_40
REMARK                            x       y       z     vdW  Elec       q    Type
REMARK                         _______ _______ _______ _____ _____    ______ ____
ROOT
ATOM      1  C   UNL     1       4.573   5.028  -0.694  0.00  0.00    +0.031 A 
ATOM      2  C   UNL     1       3.297   4.537  -0.893  0.00  0.00    +0.013 A 
ATOM      3  C   UNL     1       2.779   3.587  -0.033  0.00  0.00    -0.055 A 
ATOM      4  C   UNL     1       3.541   3.116   1.022  0.00  0.00    +0.006 A 
ATOM      5  C   UNL     1       4.819   3.600   1.221  0.00  0.00    +0.046 A 
ATOM      6  C   UNL     1       5.339   4.558   0.363  0.00  0.00    +0.126 A 
ENDROOT
BRANCH   3   7
ATOM      7  C   UNL     1       1.385   3.057  -0.248  0.00  0.00    +0.008 C 
ATOM      8  C   UNL     1       0.433   3.727   0.714  0.00  0.00    +0.010 A 
ATOM      9  C   UNL     1      -0.520   3.054   1.398  0.00  0.00    -0.021 A 
ATOM     10  C   UNL     1      -1.225   4.019   2.212  0.00  0.00    +0.003 A 
ATOM     11  C   UNL     1      -2.289   3.907   3.112  0.00  0.00    +0.010 A 
ATOM     12  C   UNL     1      -2.712   5.063   3.720  0.00  0.00    +0.001 A 
ATOM     13  C   UNL     1      -2.120   6.289   3.464  0.00  0.00    +0.002 A 
ATOM     14  C   UNL     1      -1.066   6.429   2.578  0.00  0.00    +0.026 A 
ATOM     15  C   UNL     1      -0.615   5.272   1.945  0.00  0.00    +0.047 A 
ATOM     16  N   UNL     1       0.381   5.056   1.037  0.00  0.00    -0.359 N 
ATOM     17  H   UNL     1       0.964   5.741   0.674  0.00  0.00    +0.166 HD
ATOM     18  C   UNL     1      -0.740   1.567   1.271  0.00  0.00    +0.033 C 
ATOM     19  C   UNL     1      -0.013   1.086   0.008  0.00  0.00    +0.045 C 
ATOM     20  N   UNL     1       1.372   1.600   0.008  0.00  0.00    +0.396 N 
ATOM     21  H   UNL     1       1.802   1.414   0.922  0.00  0.00    -0.083 HD
ATOM     22  H   UNL     1       1.909   1.124  -0.726  0.00  0.00    -0.083 HD
BRANCH  19  23
ATOM     23  C   UNL     1      -0.742   1.585  -1.213  0.00  0.00    +0.293 C 
ATOM     24  O   UNL     1      -1.946   1.684  -1.199  0.00  0.00    -0.253 OA
BRANCH  23  25
ATOM     25  O   UNL     1      -0.053   1.920  -2.315  0.00  0.00    -0.469 OA
ATOM     26  C   UNL     1      -0.821   2.393  -3.453  0.00  0.00    +0.280 C 
ENDBRANCH  23  25
ENDBRANCH  19  23
ENDBRANCH   3   7
BRANCH   6  27
ATOM     27  O   UNL     1       6.597   5.035   0.557  0.00  0.00    -0.495 OA
ATOM     28  C   UNL     1       7.328   4.505   1.664  0.00  0.00    +0.277 C 
ENDBRANCH   6  27
BRANCH   1  29
ATOM     29  C   UNL     1       5.135   6.068  -1.628  0.00  0.00    +0.268 C 
BRANCH  29  30
ATOM     30  O   UNL     1       4.163   6.387  -2.626  0.00  0.00    -0.487 OA
BRANCH  30  34
ATOM     31  C   UNL     1       7.482   9.496  -4.398  0.00  0.00    +0.045 C 
ATOM     32  C   UNL     1       6.121   8.852  -4.450  0.00  0.00    -0.029 A 
ATOM     33  C   UNL     1       5.764   7.912  -3.502  0.00  0.00    +0.050 A 
ATOM     34  C   UNL     1       4.513   7.316  -3.555  0.00  0.00    +0.125 A 
ATOM     35  C   UNL     1       3.618   7.673  -4.552  0.00  0.00    -0.002 A 
ATOM     36  C   UNL     1       3.975   8.617  -5.495  0.00  0.00    +0.027 A 
ATOM     37  C   UNL     1       5.226   9.207  -5.444  0.00  0.00    +0.044 A 
ATOM     38 CL   UNL     1       5.673  10.394  -6.630  0.00  0.00    -0.083 Cl
BRANCH  35  39
ATOM     39  C   UNL     1       2.256   7.030  -4.608  0.00  0.00    +0.016 C 
ATOM     40  C   UNL     1       1.178   8.108  -4.478  0.00  0.00    +0.012 C 
ATOM     41  C   UNL     1       2.090   6.302  -5.943  0.00  0.00    +0.012 C 
ENDBRANCH  35  39
ENDBRANCH  30  34
ENDBRANCH  29  30
ENDBRANCH   1  29
TORSDOF 8
