REMARK  Name = ZINC39918573
REMARK  9 active torsions:
REMARK  status: ('A' for Active; 'I' for Inactive)
REMARK    1  A    between atoms: C_1  and  C_2
REMARK    2  A    between atoms: C_7  and  C_8
REMARK    3  A    between atoms: C_8  and  N_9
REMARK    4  A    between atoms: C_22  and  C_29
REMARK    5  A    between atoms: N_23  and  C_26
REMARK    6  A    between atoms: C_31  and  N_37
REMARK    7  A    between atoms: C_32  and  C_33
REMARK    8  A    between atoms: C_33  and  O_35
REMARK    9  A    between atoms: O_35  and  C_36
REMARK                            x       y       z     vdW  Elec       q    Type
REMARK                         _______ _______ _______ _____ _____    ______ ____
ROOT
ATOM      1  N   UNL     1      -1.863   0.730   2.521  0.00  0.00    -0.265 N 
ATOM      2  C   UNL     1      -2.782   1.736   2.282  0.00  0.00    +0.041 A 
ATOM      3  C   UNL     1      -2.644   2.901   1.525  0.00  0.00    +0.024 A 
ATOM      4  C   UNL     1      -3.742   3.744   1.455  0.00  0.00    +0.002 A 
ATOM      5  C   UNL     1      -4.927   3.458   2.102  0.00  0.00    +0.000 A 
ATOM      6  C   UNL     1      -5.077   2.301   2.859  0.00  0.00    +0.007 A 
ATOM      7  C   UNL     1      -3.989   1.458   2.933  0.00  0.00    -0.002 A 
ATOM      8  C   UNL     1      -3.793   0.154   3.644  0.00  0.00    +0.144 C 
ATOM      9  C   UNL     1      -2.371  -0.243   3.305  0.00  0.00    +0.240 C 
ATOM     10  O   UNL     1      -1.796  -1.247   3.672  0.00  0.00    -0.274 OA
ATOM     11  C   UNL     1      -4.747  -0.886   3.131  0.00  0.00    +0.083 A 
ATOM     12  C   UNL     1      -5.813  -1.300   3.904  0.00  0.00    +0.142 A 
ATOM     13  C   UNL     1      -6.687  -2.281   3.391  0.00  0.00    +0.068 A 
ATOM     14  C   UNL     1      -6.472  -2.794   2.161  0.00  0.00    +0.023 A 
ATOM     15  N   UNL     1      -5.421  -2.379   1.405  0.00  0.00    -0.309 N 
ATOM     16  C   UNL     1      -4.564  -1.447   1.861  0.00  0.00    +0.260 A 
ATOM     17  O   UNL     1      -3.626  -1.089   1.166  0.00  0.00    -0.267 OA
ATOM     18  C   UNL     1      -7.409  -3.842   1.618  0.00  0.00    +0.064 C 
ATOM     19  O   UNL     1      -6.028  -0.782   5.131  0.00  0.00    -0.441 OA
ATOM     20  C   UNL     1      -5.037  -0.147   5.779  0.00  0.00    +0.196 C 
ATOM     21  C   UNL     1      -3.942   0.325   5.128  0.00  0.00    +0.117 C 
ENDROOT
BRANCH  15  22
ATOM     22  C   UNL     1      -5.218  -2.956   0.074  0.00  0.00    +0.091 C 
ATOM     23  C   UNL     1      -4.903  -1.993  -1.072  0.00  0.00    +0.027 C 
ATOM     24  C   UNL     1      -6.276  -2.662  -0.992  0.00  0.00    +0.027 C 
ENDBRANCH  15  22
BRANCH  20  25
ATOM     25  N   UNL     1      -5.134   0.029   7.133  0.00  0.00    -0.329 N 
ATOM     26  H   UNL     1      -5.867  -0.373   7.624  0.00  0.00    +0.145 HD
ATOM     27  H   UNL     1      -4.468   0.557   7.602  0.00  0.00    +0.145 HD
ENDBRANCH  20  25
BRANCH  21  28
ATOM     28  C   UNL     1      -2.936   0.981   5.853  0.00  0.00    +0.341 C 
ATOM     29  O   UNL     1      -2.864   2.197   5.831  0.00  0.00    -0.245 OA
BRANCH  28  30
ATOM     30  O   UNL     1      -2.047   0.265   6.575  0.00  0.00    -0.465 OA
ATOM     31  C   UNL     1      -1.050   0.999   7.288  0.00  0.00    +0.280 C 
ENDBRANCH  28  30
ENDBRANCH  21  28
BRANCH   1  32
ATOM     32  C   UNL     1      -0.501   0.720   1.981  0.00  0.00    +0.149 C 
BRANCH  32  39
ATOM     33  C   UNL     1       1.921  -0.329   0.806  0.00  0.00    +0.044 C 
ATOM     34  C   UNL     1       0.637  -0.333   0.016  0.00  0.00    -0.046 A 
ATOM     35  C   UNL     1       0.618  -0.843  -1.269  0.00  0.00    +0.003 A 
ATOM     36  C   UNL     1      -0.560  -0.846  -1.993  0.00  0.00    +0.000 A 
ATOM     37  C   UNL     1      -1.718  -0.340  -1.433  0.00  0.00    +0.000 A 
ATOM     38  C   UNL     1      -1.698   0.170  -0.148  0.00  0.00    +0.005 A 
ATOM     39  C   UNL     1      -0.521   0.169   0.578  0.00  0.00    -0.027 A 
ENDBRANCH  32  39
ENDBRANCH   1  32
TORSDOF 6
