REMARK  Name = ZINC30286398
REMARK  12 active torsions:
REMARK  status: ('A' for Active; 'I' for Inactive)
REMARK    1  A    between atoms: C_1  and  C_2
REMARK    2  A    between atoms: C_9  and  N_17
REMARK    3  A    between atoms: C_10  and  C_11
REMARK    4  A    between atoms: C_11  and  O_13
REMARK    5  A    between atoms: O_13  and  C_14
REMARK    6  A    between atoms: C_14  and  C_15
REMARK    7  A    between atoms: C_14  and  C_16
REMARK    8  A    between atoms: C_18  and  C_20
REMARK    9  A    between atoms: C_20  and  C_22
REMARK   10  A    between atoms: C_20  and  N_23
REMARK   11  A    between atoms: C_26  and  N_29
REMARK   12  A    between atoms: C_30  and  C_32
REMARK                            x       y       z     vdW  Elec       q    Type
REMARK                         _______ _______ _______ _____ _____    ______ ____
ROOT
ATOM      1  N   UNL     1      -6.924   3.108   2.801  0.00  0.00    -0.281 N 
ATOM      2  C   UNL     1      -5.730   2.591   2.449  0.00  0.00    +0.204 C 
ATOM      3  O   UNL     1      -4.930   2.276   3.305  0.00  0.00    -0.277 OA
ATOM      4  H   UNL     1      -7.650   3.393   2.025  0.00  0.00    +0.155 HD
ENDROOT
BRANCH   1  12
ATOM      5  C   UNL     1      -8.265   4.005  10.455  0.00  0.00    +0.008 C 
ATOM      6  C   UNL     1      -8.250   4.263   8.947  0.00  0.00    -0.009 C 
ATOM      7  C   UNL     1      -9.617   3.916   8.350  0.00  0.00    +0.008 C 
ATOM      8  C   UNL     1      -9.691   4.401   6.901  0.00  0.00    +0.037 C 
ATOM      9  C   UNL     1      -8.481   3.866   6.144  0.00  0.00    -0.021 A 
ATOM     10  C   UNL     1      -7.389   3.422   6.802  0.00  0.00    -0.004 A 
ATOM     11  S   UNL     1      -6.270   2.910   5.529  0.00  0.00    -0.077 S 
ATOM     12  C   UNL     1      -7.238   3.280   4.140  0.00  0.00    +0.086 A 
ATOM     13  C   UNL     1      -8.402   3.797   4.694  0.00  0.00    +0.091 A 
ATOM     14  C   UNL     1      -7.183   3.379   8.284  0.00  0.00    +0.046 C 
BRANCH  13  15
ATOM     15  C   UNL     1      -9.509   4.250   3.850  0.00  0.00    +0.342 C 
ATOM     16  O   UNL     1     -10.386   3.471   3.526  0.00  0.00    -0.245 OA
BRANCH  15  17
ATOM     17  O   UNL     1      -9.557   5.531   3.431  0.00  0.00    -0.458 OA
BRANCH  17  18
ATOM     18  C   UNL     1     -10.683   5.911   2.597  0.00  0.00    +0.171 C 
ATOM     19  C   UNL     1     -11.831   6.401   3.482  0.00  0.00    +0.052 C 
ATOM     20  C   UNL     1     -10.259   7.031   1.645  0.00  0.00    +0.052 C 
ENDBRANCH  17  18
ENDBRANCH  15  17
ENDBRANCH  13  15
ENDBRANCH   1  12
BRANCH   2  21
ATOM     21  C   UNL     1      -5.389   2.403   0.994  0.00  0.00    +0.016 C 
ATOM     22  C   UNL     1      -5.429   3.757   0.282  0.00  0.00    -0.004 C 
BRANCH  21  23
ATOM     23  N   UNL     1      -4.043   1.828   0.876  0.00  0.00    +0.387 N 
ATOM     24  C   UNL     1      -3.722   1.521  -0.524  0.00  0.00    -0.076 C 
ATOM     25  C   UNL     1      -2.378   0.793  -0.592  0.00  0.00    +0.004 C 
ATOM     26  C   UNL     1      -1.290   1.681   0.017  0.00  0.00    +0.069 C 
ATOM     27  C   UNL     1      -1.672   2.026   1.459  0.00  0.00    +0.004 C 
ATOM     28  C   UNL     1      -3.037   2.718   1.469  0.00  0.00    -0.076 C 
ATOM     29  H   UNL     1      -4.027   0.883   1.439  0.00  0.00    -0.081 HD
BRANCH  26  30
ATOM     30  N   UNL     1      -0.011   0.966   0.007  0.00  0.00    -0.312 N 
ATOM     31  C   UNL     1       1.147   1.655   0.000  0.00  0.00    +0.216 C 
ATOM     32  O   UNL     1       1.130   2.868   0.007  0.00  0.00    -0.276 OA
ATOM     33  H   UNL     1       0.004  -0.134   0.006  0.00  0.00    +0.149 HD
BRANCH  31  34
ATOM     34  C   UNL     1       2.462   0.920  -0.017  0.00  0.00    +0.075 C 
ATOM     35  C   UNL     1       3.331   0.998   1.240  0.00  0.00    +0.013 C 
ATOM     36  C   UNL     1       3.741   1.759  -0.022  0.00  0.00    +0.013 C 
ENDBRANCH  31  34
ENDBRANCH  26  30
ENDBRANCH  21  23
ENDBRANCH   2  21
TORSDOF 8
