REMARK  Name = ZINC01353884
REMARK  10 active torsions:
REMARK  status: ('A' for Active; 'I' for Inactive)
REMARK    1  A    between atoms: C_1  and  O_2
REMARK    2  A    between atoms: O_2  and  C_3
REMARK    3  A    between atoms: C_5  and  N_14
REMARK    4  A    between atoms: C_8  and  N_9
REMARK    5  A    between atoms: N_14  and  C_15
REMARK    6  A    between atoms: C_15  and  C_17
REMARK    7  A    between atoms: C_15  and  C_22
REMARK    8  A    between atoms: N_24  and  C_25
REMARK    9  A    between atoms: C_25  and  C_26
REMARK   10  A    between atoms: C_33  and  C_35
REMARK                            x       y       z     vdW  Elec       q    Type
REMARK                         _______ _______ _______ _____ _____    ______ ____
ROOT
ATOM      1  N   UNL     1      -4.878  -0.018  -0.208  0.00  0.00    -0.250 N 
ATOM      2  C   UNL     1      -4.832   1.324  -0.091  0.00  0.00    +0.270 C 
ATOM      3  O   UNL     1      -5.813   1.935   0.283  0.00  0.00    -0.268 OA
ENDROOT
BRANCH   1   6
ATOM      4  C   UNL     1      -1.938  -2.203   0.137  0.00  0.00    +0.147 A 
ATOM      5  C   UNL     1      -3.087  -1.495   0.450  0.00  0.00    +0.071 A 
ATOM      6  C   UNL     1      -3.718  -0.734  -0.524  0.00  0.00    +0.041 A 
ATOM      7  C   UNL     1      -3.199  -0.682  -1.812  0.00  0.00    +0.026 A 
ATOM      8  C   UNL     1      -2.054  -1.387  -2.126  0.00  0.00    +0.033 A 
ATOM      9  C   UNL     1      -1.416  -2.144  -1.154  0.00  0.00    +0.110 A 
BRANCH   9  10
ATOM     10  N   UNL     1      -0.249  -2.856  -1.472  0.00  0.00    -0.197 N 
ATOM     11  C   UNL     1       0.385  -2.901  -2.664  0.00  0.00    +0.251 A 
ATOM     12  N   UNL     1       1.427  -3.678  -2.521  0.00  0.00    -0.116 NA
ATOM     13  N   UNL     1       1.495  -4.127  -1.319  0.00  0.00    -0.023 NA
ATOM     14  N   UNL     1       0.515  -3.670  -0.617  0.00  0.00    -0.039 NA
ENDBRANCH   9  10
BRANCH   4  16
ATOM     15  C   UNL     1      -1.967  -3.053   2.357  0.00  0.00    +0.277 C 
ATOM     16  O   UNL     1      -1.318  -2.950   1.088  0.00  0.00    -0.493 OA
ENDBRANCH   4  16
ENDBRANCH   1   6
BRANCH   2  17
ATOM     17  C   UNL     1      -3.584   2.053  -0.419  0.00  0.00    +0.126 A 
ATOM     18  C   UNL     1      -3.548   3.442  -0.313  0.00  0.00    +0.033 A 
ATOM     19  C   UNL     1      -2.374   4.109  -0.622  0.00  0.00    +0.004 A 
ATOM     20  C   UNL     1      -1.277   3.365  -1.028  0.00  0.00    +0.020 A 
ATOM     21  C   UNL     1      -1.385   1.987  -1.111  0.00  0.00    +0.111 A 
ATOM     22  N   UNL     1      -2.510   1.377  -0.807  0.00  0.00    -0.250 NA
ENDBRANCH   2  17
BRANCH   1  23
ATOM     23  C   UNL     1      -6.144  -0.728  -0.005  0.00  0.00    +0.204 C 
BRANCH  23  24
ATOM     24  C   UNL     1      -7.130  -0.308  -1.064  0.00  0.00    +0.019 A 
ATOM     25  C   UNL     1      -8.029  -1.064  -1.741  0.00  0.00    +0.013 A 
ATOM     26  C   UNL     1      -8.843  -0.457  -2.679  0.00  0.00    +0.008 A 
ATOM     27  C   UNL     1      -8.719   0.875  -2.894  0.00  0.00    +0.045 A 
ATOM     28  S   UNL     1      -7.425   1.315  -1.746  0.00  0.00    -0.099 S 
ENDBRANCH  23  24
BRANCH  23  29
ATOM     29  C   UNL     1      -6.695  -0.392   1.357  0.00  0.00    +0.239 C 
ATOM     30  O   UNL     1      -6.090   0.365   2.086  0.00  0.00    -0.273 OA
ATOM     31  N   UNL     1      -7.860  -0.933   1.764  0.00  0.00    -0.309 N 
ATOM     32  H   UNL     1      -8.343  -1.539   1.181  0.00  0.00    +0.149 HD
BRANCH  31  33
ATOM     33  C   UNL     1      -8.395  -0.607   3.088  0.00  0.00    +0.139 C 
BRANCH  33  34
ATOM     34  C   UNL     1      -9.697  -1.337   3.297  0.00  0.00    -0.030 A 
ATOM     35  C   UNL     1     -10.889  -0.746   2.918  0.00  0.00    +0.008 A 
ATOM     36  C   UNL     1     -12.083  -1.415   3.109  0.00  0.00    +0.038 A 
ATOM     37  C   UNL     1     -12.086  -2.676   3.680  0.00  0.00    +0.123 A 
ATOM     38  C   UNL     1     -10.892  -3.267   4.059  0.00  0.00    +0.038 A 
ATOM     39  C   UNL     1      -9.699  -2.598   3.862  0.00  0.00    +0.008 A 
ATOM     40  F   UNL     1     -13.253  -3.330   3.868  0.00  0.00    -0.205 F 
ENDBRANCH  33  34
ENDBRANCH  31  33
ENDBRANCH  23  29
ENDBRANCH   1  23
TORSDOF 9
