REMARK  Name = ZINC63486426
REMARK  6 active torsions:
REMARK  status: ('A' for Active; 'I' for Inactive)
REMARK    1  A    between atoms: C_6  and  O_7
REMARK    2  A    between atoms: O_7  and  C_8
REMARK    3  A    between atoms: C_8  and  C_9
REMARK    4  A    between atoms: N_11  and  C_12
REMARK    5  A    between atoms: C_12  and  C_13
REMARK    6  A    between atoms: C_13  and  C_14
REMARK                            x       y       z     vdW  Elec       q    Type
REMARK                         _______ _______ _______ _____ _____    ______ ____
ROOT
ATOM      1  C   UNL     1      -2.374   0.059   0.018  0.00  0.00    +0.324 C 
ENDROOT
BRANCH   1   2
ATOM      2  C   UNL     1      -3.556  -0.877   0.021  0.00  0.00    +0.251 C 
ATOM      3  O   UNL     1      -3.379  -2.077   0.013  0.00  0.00    -0.272 OA
ATOM      4  N   UNL     1      -4.809  -0.381   0.032  0.00  0.00    -0.312 N 
ATOM      5  H   UNL     1      -4.950   0.579   0.038  0.00  0.00    +0.149 HD
BRANCH   4   6
ATOM      6  C   UNL     1      -5.957  -1.291   0.035  0.00  0.00    +0.108 C 
BRANCH   6   7
ATOM      7  C   UNL     1      -7.252  -0.477   0.048  0.00  0.00    +0.052 C 
BRANCH   7   8
ATOM      8  C   UNL     1      -8.434  -1.413   0.051  0.00  0.00    -0.040 C 
ATOM      9  C   UNL     1      -9.125  -1.846   1.129  0.00  0.00    +0.002 A 
ATOM     10  C   UNL     1      -8.990  -1.585   2.567  0.00  0.00    +0.048 A 
ATOM     11  C   UNL     1      -9.853  -2.177   3.426  0.00  0.00    +0.124 A 
ATOM     12  C   UNL     1     -10.871  -3.032   2.975  0.00  0.00    +0.040 A 
ATOM     13  C   UNL     1     -11.057  -3.320   1.670  0.00  0.00    +0.029 A 
ATOM     14  C   UNL     1     -10.207  -2.751   0.681  0.00  0.00    +0.043 A 
ATOM     15  N   UNL     1     -10.185  -2.874  -0.624  0.00  0.00    -0.380 N 
ATOM     16  C   UNL     1      -9.089  -2.053  -1.152  0.00  0.00    +0.144 C 
ATOM     17  F   UNL     1      -9.731  -1.939   4.750  0.00  0.00    -0.205 F 
ATOM     18  H   UNL     1     -10.793  -3.413  -1.153  0.00  0.00    +0.160 HD
ENDBRANCH   7   8
ENDBRANCH   6   7
ENDBRANCH   4   6
ENDBRANCH   1   2
BRANCH   1  19
ATOM     19  O   UNL     1      -1.164  -0.701   0.006  0.00  0.00    -0.483 OA
BRANCH  19  25
ATOM     20  C   UNL     1      -0.017   1.383   0.010  0.00  0.00    +0.046 A 
ATOM     21  C   UNL     1       1.170   2.089   0.002  0.00  0.00    +0.011 A 
ATOM     22  C   UNL     1       2.383   1.421  -0.011  0.00  0.00    -0.001 A 
ATOM     23  C   UNL     1       2.407   0.034  -0.013  0.00  0.00    +0.139 A 
ATOM     24  C   UNL     1       1.213  -0.677  -0.009  0.00  0.00    +0.092 A 
ATOM     25  C   UNL     1       0.002  -0.004   0.002  0.00  0.00    +0.125 A 
ATOM     26  O   UNL     1       3.577  -0.660  -0.004  0.00  0.00    -0.425 OA
ATOM     27  C   UNL     1       4.722   0.027  -0.186  0.00  0.00    +0.316 C 
ATOM     28  O   UNL     1       5.626  -0.407  -0.861  0.00  0.00    -0.250 OA
ATOM     29  C   UNL     1       4.815   1.381   0.504  0.00  0.00    +0.106 C 
ATOM     30  C   UNL     1       3.655   2.221  -0.028  0.00  0.00    +0.036 C 
ATOM     31  C   UNL     1       3.504   3.523   0.741  0.00  0.00    +0.009 C 
ATOM     32  C   UNL     1       3.324   3.243   2.233  0.00  0.00    +0.001 C 
ATOM     33  C   UNL     1       4.547   2.477   2.745  0.00  0.00    +0.001 C 
ATOM     34  C   UNL     1       4.659   1.140   2.009  0.00  0.00    +0.015 C 
ENDBRANCH  19  25
ENDBRANCH   1  19
TORSDOF 6
