REMARK  Name = ZINC40052050
REMARK  19 active torsions:
REMARK  status: ('A' for Active; 'I' for Inactive)
REMARK    1  A    between atoms: C_1  and  C_2
REMARK    2  A    between atoms: C_2  and  C_3
REMARK    3  A    between atoms: C_3  and  C_4
REMARK    4  A    between atoms: C_4  and  O_5
REMARK    5  A    between atoms: O_5  and  C_6
REMARK    6  A    between atoms: C_9  and  C_15
REMARK    7  A    between atoms: C_11  and  O_12
REMARK    8  A    between atoms: O_12  and  C_13
REMARK    9  A    between atoms: C_13  and  C_14
REMARK   10  A    between atoms: C_17  and  C_27
REMARK   11  A    between atoms: N_21  and  C_22
REMARK   12  A    between atoms: C_22  and  C_23
REMARK   13  A    between atoms: C_23  and  C_24
REMARK   14  A    between atoms: C_24  and  O_25
REMARK   15  A    between atoms: C_27  and  C_29
REMARK   16  A    between atoms: C_32  and  O_36
REMARK   17  A    between atoms: C_33  and  C_35
REMARK   18  A    between atoms: O_36  and  C_37
REMARK   19  A    between atoms: C_37  and  C_38
REMARK                            x       y       z     vdW  Elec       q    Type
REMARK                         _______ _______ _______ _____ _____    ______ ____
ROOT
ATOM      1  C   UNL     1       0.750  -8.657  -3.540  0.00  0.00    +0.145 C 
ATOM      2  C   UNL     1      -0.568  -9.074  -4.150  0.00  0.00    +0.076 C 
ATOM      3  C   UNL     1      -1.108  -9.996  -3.320  0.00  0.00    +0.249 C 
ATOM      4  C   UNL     1      -0.198 -10.211  -2.175  0.00  0.00    +0.288 C 
ATOM      5  O   UNL     1      -0.403 -10.981  -1.257  0.00  0.00    -0.266 OA
ATOM      6  N   UNL     1       0.891  -9.430  -2.300  0.00  0.00    -0.283 N 
ATOM      7  O   UNL     1      -2.293 -10.621  -3.507  0.00  0.00    -0.282 OA
ENDROOT
BRANCH   1  11
ATOM      8  C   UNL     1       0.703  -4.472  -2.660  0.00  0.00    +0.162 A 
ATOM      9  C   UNL     1      -0.106  -5.342  -1.947  0.00  0.00    +0.050 A 
ATOM     10  C   UNL     1      -0.089  -6.694  -2.234  0.00  0.00    +0.009 A 
ATOM     11  C   UNL     1       0.735  -7.182  -3.231  0.00  0.00    -0.019 A 
ATOM     12  C   UNL     1       1.545  -6.319  -3.946  0.00  0.00    +0.055 A 
ATOM     13  C   UNL     1       1.528  -4.962  -3.668  0.00  0.00    +0.162 A 
BRANCH  13  14
ATOM     14  O   UNL     1       2.320  -4.112  -4.374  0.00  0.00    -0.489 OA
BRANCH  14  15
ATOM     15  C   UNL     1       3.061  -4.668  -5.462  0.00  0.00    +0.226 C 
ATOM     16  C   UNL     1       3.939  -3.583  -6.089  0.00  0.00    +0.048 C 
ENDBRANCH  14  15
ENDBRANCH  13  14
BRANCH   8  17
ATOM     17  O   UNL     1       0.687  -3.141  -2.380  0.00  0.00    -0.488 OA
BRANCH  17  18
ATOM     18  C   UNL     1      -0.184  -2.710  -1.332  0.00  0.00    +0.229 C 
BRANCH  18  19
ATOM     19  C   UNL     1      -0.066  -1.194  -1.163  0.00  0.00    +0.041 C 
BRANCH  19  21
ATOM     20  C   UNL     1      -0.881   0.785   0.127  0.00  0.00    +0.004 C 
ATOM     21  C   UNL     1      -0.999  -0.731  -0.042  0.00  0.00    -0.000 C 
ENDBRANCH  19  21
ENDBRANCH  18  19
ENDBRANCH  17  18
ENDBRANCH   8  17
ENDBRANCH   1  11
BRANCH   2  22
ATOM     22  C   UNL     1      -1.150  -8.575  -5.400  0.00  0.00    +0.195 C 
ATOM     23  O   UNL     1      -2.176  -7.921  -5.375  0.00  0.00    -0.287 OA
BRANCH  22  24
ATOM     24  C   UNL     1      -0.490  -8.866  -6.688  0.00  0.00    +0.023 A 
ATOM     25  C   UNL     1       0.634  -9.697  -6.729  0.00  0.00    +0.015 A 
ATOM     26  C   UNL     1       1.246  -9.966  -7.932  0.00  0.00    +0.046 A 
ATOM     27  C   UNL     1       0.747  -9.413  -9.107  0.00  0.00    +0.124 A 
ATOM     28  C   UNL     1      -0.371  -8.587  -9.071  0.00  0.00    -0.008 A 
ATOM     29  C   UNL     1      -0.992  -8.318  -7.872  0.00  0.00    +0.018 A 
ATOM     30  C   UNL     1      -0.906  -7.990 -10.347  0.00  0.00    +0.047 C 
BRANCH  27  31
ATOM     31  O   UNL     1       1.353  -9.681 -10.291  0.00  0.00    -0.488 OA
BRANCH  31  32
ATOM     32  C   UNL     1       2.426 -10.624 -10.272  0.00  0.00    +0.256 C 
BRANCH  32  33
ATOM     33  C   UNL     1       3.015 -10.743 -11.654  0.00  0.00    +0.006 C 
ATOM     34  C   UNL     1       4.314 -10.714 -11.818  0.00  0.00    +0.007 C 
ENDBRANCH  32  33
ENDBRANCH  31  32
ENDBRANCH  27  31
ENDBRANCH  22  24
ENDBRANCH   2  22
BRANCH   6  35
ATOM     35  C   UNL     1       2.018  -9.363  -1.366  0.00  0.00    +0.111 C 
BRANCH  35  36
ATOM     36  C   UNL     1       1.741  -8.290  -0.310  0.00  0.00    +0.047 C 
BRANCH  36  37
ATOM     37  C   UNL     1       2.917  -8.220   0.666  0.00  0.00    +0.157 C 
BRANCH  37  38
ATOM     38  O   UNL     1       2.658  -7.218   1.652  0.00  0.00    -0.395 OA
ATOM     39  H   UNL     1       3.364  -7.119   2.306  0.00  0.00    +0.209 HD
ENDBRANCH  37  38
ENDBRANCH  36  37
ENDBRANCH  35  36
ENDBRANCH   6  35
TORSDOF 16
