REMARK  Name = ZINC09436264
REMARK  8 active torsions:
REMARK  status: ('A' for Active; 'I' for Inactive)
REMARK    1  A    between atoms: C_1  and  C_2
REMARK    2  A    between atoms: C_7  and  C_8
REMARK    3  A    between atoms: C_11  and  C_12
REMARK    4  A    between atoms: C_12  and  C_13
REMARK    5  A    between atoms: C_13  and  O_15
REMARK    6  A    between atoms: O_15  and  C_16
REMARK    7  A    between atoms: C_16  and  C_17
REMARK    8  A    between atoms: N_19  and  C_20
REMARK                            x       y       z     vdW  Elec       q    Type
REMARK                         _______ _______ _______ _____ _____    ______ ____
ROOT
ATOM      1  C   UNL     1       3.630   1.580   0.006  0.00  0.00    +0.312 C 
ATOM      2  O   UNL     1       3.772   2.779   0.017  0.00  0.00    -0.250 OA
ENDROOT
BRANCH   1   3
ATOM      3  C   UNL     1       4.837   0.677  -0.005  0.00  0.00    +0.159 C 
BRANCH   3  14
ATOM      4  C   UNL     1       7.138   2.675   4.884  0.00  0.00    +0.044 C 
ATOM      5  C   UNL     1       7.391   2.703   3.398  0.00  0.00    -0.047 A 
ATOM      6  C   UNL     1       6.531   2.049   2.543  0.00  0.00    +0.015 A 
ATOM      7  C   UNL     1       6.766   2.084   1.170  0.00  0.00    +0.024 A 
ATOM      8  C   UNL     1       7.881   2.773   0.662  0.00  0.00    +0.135 A 
ATOM      9  C   UNL     1       8.735   3.427   1.541  0.00  0.00    +0.050 A 
ATOM     10  C   UNL     1       8.488   3.389   2.897  0.00  0.00    -0.044 A 
ATOM     11  C   UNL     1       9.419   4.100   3.845  0.00  0.00    +0.044 C 
ATOM     12  O   UNL     1       7.860   2.634  -0.679  0.00  0.00    -0.463 OA
ATOM     13  C   UNL     1       6.807   1.894  -1.068  0.00  0.00    +0.200 A 
ATOM     14  C   UNL     1       6.090   1.515  -0.002  0.00  0.00    +0.009 A 
ENDBRANCH   3  14
ENDBRANCH   1   3
BRANCH   1  15
ATOM     15  O   UNL     1       2.396   1.050   0.005  0.00  0.00    -0.455 OA
BRANCH  15  16
ATOM     16  C   UNL     1       1.280   1.979   0.017  0.00  0.00    +0.328 C 
BRANCH  16  17
ATOM     17  C   UNL     1      -0.015   1.208   0.014  0.00  0.00    +0.255 C 
ATOM     18  O   UNL     1       0.002  -0.004   0.003  0.00  0.00    -0.272 OA
ATOM     19  N   UNL     1      -1.191   1.867   0.018  0.00  0.00    -0.282 N 
ATOM     20  H   UNL     1      -1.205   2.834   0.092  0.00  0.00    +0.155 HD
BRANCH  19  21
ATOM     21  C   UNL     1      -2.391   1.155  -0.086  0.00  0.00    +0.047 A 
ATOM     22  C   UNL     1      -2.510  -0.099   0.499  0.00  0.00    +0.024 A 
ATOM     23  C   UNL     1      -3.697  -0.797   0.398  0.00  0.00    +0.002 A 
ATOM     24  C   UNL     1      -4.765  -0.253  -0.292  0.00  0.00    +0.001 A 
ATOM     25  C   UNL     1      -4.649   0.994  -0.880  0.00  0.00    +0.016 A 
ATOM     26  C   UNL     1      -3.465   1.699  -0.779  0.00  0.00    +0.035 A 
ATOM     27  I   UNL     1      -3.289   3.586  -1.671  0.00  0.00    -0.042 I 
ENDBRANCH  19  21
ENDBRANCH  16  17
ENDBRANCH  15  16
ENDBRANCH   1  15
TORSDOF 6
