REMARK  Name = ZINC21781315
REMARK  12 active torsions:
REMARK  status: ('A' for Active; 'I' for Inactive)
REMARK    1  A    between atoms: C_1  and  C_2
REMARK    2  A    between atoms: C_2  and  O_3
REMARK    3  A    between atoms: O_3  and  C_4
REMARK    4  A    between atoms: C_4  and  C_6
REMARK    5  A    between atoms: C_12  and  C_23
REMARK    6  A    between atoms: C_12  and  C_24
REMARK    7  A    between atoms: N_13  and  C_16
REMARK    8  A    between atoms: N_26  and  C_27
REMARK    9  A    between atoms: C_27  and  C_28
REMARK   10  A    between atoms: C_28  and  C_29
REMARK   11  A    between atoms: C_29  and  C_30
REMARK   12  A    between atoms: C_29  and  C_31
REMARK                            x       y       z     vdW  Elec       q    Type
REMARK                         _______ _______ _______ _____ _____    ______ ____
ROOT
ATOM      1  C   UNL     1      -1.630   4.070   2.478  0.00  0.00    +0.170 A 
ATOM      2  C   UNL     1      -1.634   5.413   2.921  0.00  0.00    +0.069 A 
ATOM      3  C   UNL     1      -2.272   5.391   4.113  0.00  0.00    +0.125 A 
ATOM      4  N   UNL     1      -2.642   4.085   4.359  0.00  0.00    -0.256 N 
ATOM      5  N   UNL     1      -2.253   3.346   3.394  0.00  0.00    -0.164 NA
ATOM      6  C   UNL     1      -3.385   3.722   5.573  0.00  0.00    +0.179 C 
ATOM      7  C   UNL     1      -3.011   4.684   6.699  0.00  0.00    +0.135 C 
ATOM      8  N   UNL     1      -3.053   6.081   6.278  0.00  0.00    -0.250 N 
ATOM      9  C   UNL     1      -2.596   6.468   5.063  0.00  0.00    +0.270 C 
ATOM     10  O   UNL     1      -2.461   7.642   4.773  0.00  0.00    -0.268 OA
ATOM     11  C   UNL     1      -1.596   4.357   7.180  0.00  0.00    +0.044 C 
ENDROOT
BRANCH   8  12
ATOM     12  C   UNL     1      -3.576   7.042   7.150  0.00  0.00    +0.038 A 
ATOM     13  C   UNL     1      -4.731   7.735   6.809  0.00  0.00    +0.025 A 
ATOM     14  C   UNL     1      -5.247   8.680   7.673  0.00  0.00    +0.022 A 
ATOM     15  C   UNL     1      -4.611   8.944   8.873  0.00  0.00    +0.041 A 
ATOM     16  C   UNL     1      -3.458   8.258   9.213  0.00  0.00    +0.022 A 
ATOM     17  C   UNL     1      -2.939   7.309   8.355  0.00  0.00    +0.025 A 
ATOM     18 CL   UNL     1      -5.260  10.137   9.954  0.00  0.00    -0.084 Cl
ENDBRANCH   8  12
BRANCH   7  19
ATOM     19  C   UNL     1      -3.972   4.492   7.844  0.00  0.00    +0.239 C 
ATOM     20  O   UNL     1      -3.642   3.832   8.807  0.00  0.00    -0.273 OA
ATOM     21  N   UNL     1      -5.197   5.051   7.798  0.00  0.00    -0.313 N 
ATOM     22  H   UNL     1      -5.526   5.581   6.891  0.00  0.00    +0.149 HD
BRANCH  21  23
ATOM     23  C   UNL     1      -6.090   4.955   8.955  0.00  0.00    +0.104 C 
BRANCH  23  24
ATOM     24  C   UNL     1      -7.453   5.553   8.598  0.00  0.00    +0.022 C 
BRANCH  24  25
ATOM     25  C   UNL     1      -8.427   5.330   9.757  0.00  0.00    -0.016 C 
ATOM     26  C   UNL     1      -7.950   6.112  10.982  0.00  0.00    +0.007 C 
ATOM     27  C   UNL     1      -9.820   5.816   9.352  0.00  0.00    +0.007 C 
ENDBRANCH  24  25
ENDBRANCH  23  24
ENDBRANCH  21  23
ENDBRANCH   7  19
BRANCH   1  28
ATOM     28  C   UNL     1      -1.044   3.568   1.219  0.00  0.00    +0.359 C 
ATOM     29  O   UNL     1      -0.500   4.338   0.453  0.00  0.00    -0.243 OA
BRANCH  28  30
ATOM     30  O   UNL     1      -1.113   2.256   0.921  0.00  0.00    -0.460 OA
BRANCH  30  32
ATOM     31  C   UNL     1      -0.690   0.322  -0.497  0.00  0.00    +0.048 C 
ATOM     32  C   UNL     1      -0.515   1.833  -0.333  0.00  0.00    +0.229 C 
ENDBRANCH  30  32
ENDBRANCH  28  30
ENDBRANCH   1  28
TORSDOF 8
