REMARK  Name = ZINC64622839
REMARK  5 active torsions:
REMARK  status: ('A' for Active; 'I' for Inactive)
REMARK    1  A    between atoms: C_1  and  O_2
REMARK    2  A    between atoms: O_2  and  C_3
REMARK    3  A    between atoms: C_3  and  C_5
REMARK    4  A    between atoms: C_10  and  N_11
REMARK    5  A    between atoms: C_27  and  C_29
REMARK                            x       y       z     vdW  Elec       q    Type
REMARK                         _______ _______ _______ _____ _____    ______ ____
ROOT
ATOM      1  N   UNL     1       1.997  -1.980   3.038  0.00  0.00    -0.268 N 
ATOM      2  C   UNL     1       2.810  -2.508   3.975  0.00  0.00    +0.307 C 
ATOM      3  O   UNL     1       3.066  -3.696   3.957  0.00  0.00    -0.252 OA
ATOM      4  N   UNL     1       3.338  -1.718   4.931  0.00  0.00    -0.276 N 
ATOM      5  C   UNL     1       3.109  -0.271   4.884  0.00  0.00    +0.114 C 
ATOM      6  C   UNL     1       4.464   0.461   4.842  0.00  0.00    +0.052 C 
ATOM      7  C   UNL     1       5.338  -0.188   5.886  0.00  0.00    -0.035 C 
ATOM      8  C   UNL     1       6.045   0.328   6.884  0.00  0.00    -0.001 A 
ATOM      9  C   UNL     1       6.321   1.721   7.270  0.00  0.00    +0.010 A 
ATOM     10  C   UNL     1       7.083   1.895   8.382  0.00  0.00    +0.001 A 
ATOM     11  C   UNL     1       7.591   0.836   9.140  0.00  0.00    +0.002 A 
ATOM     12  C   UNL     1       7.393  -0.476   8.854  0.00  0.00    +0.026 A 
ATOM     13  C   UNL     1       6.614  -0.786   7.701  0.00  0.00    +0.043 A 
ATOM     14  N   UNL     1       6.291  -1.937   7.188  0.00  0.00    -0.375 N 
ATOM     15  C   UNL     1       5.537  -1.698   5.958  0.00  0.00    +0.131 C 
ATOM     16  C   UNL     1       4.132  -2.319   6.014  0.00  0.00    +0.137 C 
ATOM     17  H   UNL     1       1.842  -1.023   3.014  0.00  0.00    +0.156 HD
ATOM     18  H   UNL     1       6.513  -2.805   7.559  0.00  0.00    +0.160 HD
ENDROOT
BRANCH   1  24
ATOM     19  C   UNL     1       0.133  -2.460   1.566  0.00  0.00    +0.080 A 
ATOM     20  C   UNL     1      -0.473  -3.298   0.624  0.00  0.00    +0.018 A 
ATOM     21  C   UNL     1       0.154  -4.460   0.235  0.00  0.00    +0.021 A 
ATOM     22  C   UNL     1       1.385  -4.806   0.773  0.00  0.00    +0.043 A 
ATOM     23  C   UNL     1       1.996  -3.988   1.704  0.00  0.00    +0.044 A 
ATOM     24  C   UNL     1       1.381  -2.809   2.104  0.00  0.00    +0.050 A 
ATOM     25 CL   UNL     1       2.163  -6.275   0.274  0.00  0.00    -0.083 Cl
BRANCH  19  26
ATOM     26  C   UNL     1      -0.533  -1.215   1.986  0.00  0.00    +0.341 C 
ATOM     27  O   UNL     1      -0.064  -0.550   2.888  0.00  0.00    -0.245 OA
BRANCH  26  29
ATOM     28  C   UNL     1      -2.254   0.403   1.829  0.00  0.00    +0.280 C 
ATOM     29  O   UNL     1      -1.663  -0.814   1.370  0.00  0.00    -0.464 OA
ENDBRANCH  26  29
ENDBRANCH  19  26
ENDBRANCH   1  24
BRANCH  16  30
ATOM     30  C   UNL     1       3.491  -2.019   7.344  0.00  0.00    +0.010 A 
ATOM     31  C   UNL     1       3.260  -0.709   7.721  0.00  0.00    +0.008 A 
ATOM     32  C   UNL     1       2.672  -0.434   8.941  0.00  0.00    +0.000 A 
ATOM     33  C   UNL     1       2.313  -1.468   9.786  0.00  0.00    +0.003 A 
ATOM     34  C   UNL     1       2.542  -2.778   9.411  0.00  0.00    +0.039 A 
ATOM     35  C   UNL     1       3.126  -3.055   8.187  0.00  0.00    +0.128 A 
ATOM     36  F   UNL     1       3.346  -4.336   7.817  0.00  0.00    -0.205 F 
ENDBRANCH  16  30
TORSDOF 4
