REMARK  Name = ZINC36597184
REMARK  19 active torsions:
REMARK  status: ('A' for Active; 'I' for Inactive)
REMARK    1  A    between atoms: C_1  and  C_2
REMARK    2  A    between atoms: C_5  and  C_7
REMARK    3  A    between atoms: C_7  and  N_8
REMARK    4  A    between atoms: N_8  and  C_9
REMARK    5  A    between atoms: C_9  and  C_11
REMARK    6  A    between atoms: C_9  and  C_20
REMARK    7  A    between atoms: C_12  and  O_19
REMARK    8  A    between atoms: C_14  and  O_18
REMARK    9  A    between atoms: C_16  and  O_17
REMARK   10  A    between atoms: N_22  and  C_23
REMARK   11  A    between atoms: C_23  and  C_24
REMARK   12  A    between atoms: C_23  and  C_25
REMARK   13  A    between atoms: C_23  and  C_26
REMARK   14  A    between atoms: C_26  and  C_27
REMARK   15  A    between atoms: C_27  and  C_28
REMARK   16  A    between atoms: C_27  and  C_29
REMARK   17  A    between atoms: C_27  and  C_30
REMARK   18  A    between atoms: C_31  and  C_33
REMARK   19  A    between atoms: C_36  and  O_39
REMARK                            x       y       z     vdW  Elec       q    Type
REMARK                         _______ _______ _______ _____ _____    ______ ____
ROOT
ATOM      1  C   UNL     1       3.645  -0.009  -0.699  0.00  0.00    +0.200 C 
ENDROOT
BRANCH   1   2
ATOM      2  C   UNL     1       3.667   1.478  -0.456  0.00  0.00    +0.065 A 
ATOM      3  C   UNL     1       3.341   1.981   0.795  0.00  0.00    +0.129 A 
ATOM      4  C   UNL     1       3.361   3.349   1.020  0.00  0.00    +0.091 A 
ATOM      5  C   UNL     1       3.707   4.215  -0.007  0.00  0.00    +0.124 A 
ATOM      6  C   UNL     1       4.034   3.712  -1.257  0.00  0.00    +0.091 A 
ATOM      7  C   UNL     1       4.018   2.344  -1.480  0.00  0.00    +0.129 A 
BRANCH   7   8
ATOM      8  O   UNL     1       4.343   1.851  -2.704  0.00  0.00    -0.506 OA
ATOM      9  H   UNL     1       3.591   1.761  -3.305  0.00  0.00    +0.292 HD
ENDBRANCH   7   8
BRANCH   5  10
ATOM     10  O   UNL     1       3.726   5.556   0.213  0.00  0.00    -0.507 OA
ATOM     11  H   UNL     1       4.579   5.892   0.519  0.00  0.00    +0.292 HD
ENDBRANCH   5  10
BRANCH   3  12
ATOM     12  O   UNL     1       3.001   1.132   1.801  0.00  0.00    -0.506 OA
ATOM     13  H   UNL     1       3.737   0.896   2.382  0.00  0.00    +0.292 HD
ENDBRANCH   3  12
ENDBRANCH   1   2
BRANCH   1  14
ATOM     14  C   UNL     1       4.574  -0.691   0.272  0.00  0.00    +0.239 C 
ATOM     15  O   UNL     1       4.140  -1.518   1.046  0.00  0.00    -0.273 OA
ATOM     16  N   UNL     1       5.885  -0.381   0.281  0.00  0.00    -0.308 N 
ATOM     17  H   UNL     1       6.232   0.280  -0.338  0.00  0.00    +0.149 HD
BRANCH  16  18
ATOM     18  C   UNL     1       6.788  -1.044   1.226  0.00  0.00    +0.030 C 
ATOM     19  C   UNL     1       6.266  -0.850   2.651  0.00  0.00    +0.031 C 
ATOM     20  C   UNL     1       6.853  -2.539   0.905  0.00  0.00    +0.031 C 
BRANCH  18  21
ATOM     21  C   UNL     1       8.187  -0.436   1.107  0.00  0.00    +0.031 C 
BRANCH  21  22
ATOM     22  C   UNL     1       8.768  -0.758  -0.271  0.00  0.00    -0.036 C 
ATOM     23  C   UNL     1       7.654  -0.711  -1.318  0.00  0.00    +0.010 C 
ATOM     24  C   UNL     1       9.845   0.270  -0.624  0.00  0.00    +0.010 C 
ATOM     25  C   UNL     1       9.387  -2.158  -0.248  0.00  0.00    +0.010 C 
ENDBRANCH  21  22
ENDBRANCH  18  21
ENDBRANCH  16  18
ENDBRANCH   1  14
BRANCH   1  26
ATOM     26  N   UNL     1       2.283  -0.515  -0.510  0.00  0.00    -0.274 N 
ATOM     27  C   UNL     1       2.002  -1.807  -0.772  0.00  0.00    +0.248 C 
ATOM     28  O   UNL     1       0.846  -2.171  -0.862  0.00  0.00    -0.270 OA
BRANCH  27  29
ATOM     29  C   UNL     1       3.098  -2.779  -0.949  0.00  0.00    +0.037 A 
ATOM     30  C   UNL     1       4.385  -2.335  -1.264  0.00  0.00    +0.016 A 
ATOM     31  C   UNL     1       5.405  -3.246  -1.427  0.00  0.00    +0.046 A 
ATOM     32  C   UNL     1       5.155  -4.605  -1.280  0.00  0.00    +0.117 A 
ATOM     33  C   UNL     1       3.877  -5.051  -0.967  0.00  0.00    +0.046 A 
ATOM     34  C   UNL     1       2.853  -4.146  -0.796  0.00  0.00    +0.016 A 
BRANCH  32  35
ATOM     35  O   UNL     1       6.163  -5.500  -1.443  0.00  0.00    -0.507 OA
ATOM     36  H   UNL     1       6.646  -5.701  -0.630  0.00  0.00    +0.292 HD
ENDBRANCH  32  35
ENDBRANCH  27  29
BRANCH  26  37
ATOM     37  C   UNL     1       1.227   0.384  -0.037  0.00  0.00    +0.183 C 
BRANCH  37  42
ATOM     38  C   UNL     1      -1.083   2.099  -4.180  0.00  0.00    +0.086 C 
ATOM     39  C   UNL     1      -0.806   1.312  -2.925  0.00  0.00    +0.102 A 
ATOM     40  C   UNL     1      -1.616   0.385  -2.383  0.00  0.00    +0.045 A 
ATOM     41  C   UNL     1      -0.968  -0.096  -1.222  0.00  0.00    +0.046 A 
ATOM     42  C   UNL     1       0.199   0.566  -1.124  0.00  0.00    +0.122 A 
ATOM     43  O   UNL     1       0.294   1.414  -2.161  0.00  0.00    -0.463 OA
ENDBRANCH  37  42
ENDBRANCH  26  37
ENDBRANCH   1  26
TORSDOF 13
