REMARK  Name = ZINC22204189
REMARK  6 active torsions:
REMARK  status: ('A' for Active; 'I' for Inactive)
REMARK    1  A    between atoms: C_4  and  C_7
REMARK    2  A    between atoms: C_7  and  N_8
REMARK    3  A    between atoms: C_9  and  C_10
REMARK    4  A    between atoms: C_19  and  C_31
REMARK    5  A    between atoms: N_21  and  C_24
REMARK    6  A    between atoms: C_24  and  C_25
REMARK                            x       y       z     vdW  Elec       q    Type
REMARK                         _______ _______ _______ _____ _____    ______ ____
ROOT
ATOM      1  N   UNL     1       3.356   3.618  -3.238  0.00  0.00    -0.365 N 
ATOM      2  C   UNL     1       3.965   3.398  -2.105  0.00  0.00    +0.150 C 
ATOM      3  N   UNL     1       3.274   2.822  -1.046  0.00  0.00    -0.215 N 
ATOM      4  C   UNL     1       3.494   3.296   0.188  0.00  0.00    +0.146 C 
ATOM      5  S   UNL     1       4.606   4.579   0.406  0.00  0.00    -0.018 S 
ATOM      6  N   UNL     1       2.858   2.785   1.263  0.00  0.00    -0.301 N 
ATOM      7  C   UNL     1       1.902   1.686   1.049  0.00  0.00    +0.229 C 
ATOM      8  N   UNL     1       1.718   1.216  -0.334  0.00  0.00    -0.283 N 
ATOM      9  C   UNL     1       2.422   1.822  -1.312  0.00  0.00    +0.149 C 
ATOM     10  S   UNL     1       2.224   1.301  -2.931  0.00  0.00    -0.018 S 
ATOM     11  H   UNL     1       3.038   3.168   2.279  0.00  0.00    +0.150 HD
ATOM     12  H   UNL     1       2.271   3.460  -3.319  0.00  0.00    +0.161 HD
ENDROOT
BRANCH   2  13
ATOM     13  C   UNL     1       5.381   3.760  -1.949  0.00  0.00    +0.166 A 
ATOM     14  C   UNL     1       5.947   4.951  -2.296  0.00  0.00    +0.053 A 
ATOM     15  C   UNL     1       7.311   4.860  -1.972  0.00  0.00    +0.042 A 
ATOM     16  C   UNL     1       7.514   3.633  -1.449  0.00  0.00    +0.196 A 
ATOM     17  O   UNL     1       6.347   2.974  -1.432  0.00  0.00    -0.460 OA
ENDBRANCH   2  13
BRANCH   7  18
ATOM     18  C   UNL     1       2.356   0.514   1.881  0.00  0.00    +0.143 A 
ATOM     19  C   UNL     1       3.044   0.587   3.034  0.00  0.00    +0.048 A 
ATOM     20  C   UNL     1       3.256  -0.741   3.469  0.00  0.00    +0.041 A 
ATOM     21  C   UNL     1       2.686  -1.547   2.555  0.00  0.00    +0.195 A 
ATOM     22  O   UNL     1       2.136  -0.781   1.598  0.00  0.00    -0.464 OA
ENDBRANCH   7  18
BRANCH   1  23
ATOM     23  C   UNL     1       4.119   4.075  -4.402  0.00  0.00    +0.149 C 
BRANCH  23  27
ATOM     24  C   UNL     1       3.936   1.115  -7.476  0.00  0.00    +0.000 A 
ATOM     25  C   UNL     1       2.981   2.113  -7.420  0.00  0.00    +0.000 A 
ATOM     26  C   UNL     1       3.040   3.071  -6.425  0.00  0.00    +0.005 A 
ATOM     27  C   UNL     1       4.054   3.030  -5.487  0.00  0.00    -0.028 A 
ATOM     28  C   UNL     1       5.012   2.036  -5.546  0.00  0.00    +0.005 A 
ATOM     29  C   UNL     1       4.950   1.075  -6.538  0.00  0.00    +0.000 A 
ENDBRANCH  23  27
ENDBRANCH   1  23
BRANCH   8  30
ATOM     30  C   UNL     1       0.790   0.125  -0.640  0.00  0.00    +0.144 C 
BRANCH  30  31
ATOM     31  C   UNL     1      -0.590   0.686  -0.866  0.00  0.00    -0.030 A 
ATOM     32  C   UNL     1      -1.466   0.814   0.196  0.00  0.00    +0.005 A 
ATOM     33  C   UNL     1      -2.730   1.333  -0.010  0.00  0.00    +0.000 A 
ATOM     34  C   UNL     1      -3.122   1.717  -1.280  0.00  0.00    +0.000 A 
ATOM     35  C   UNL     1      -2.247   1.584  -2.342  0.00  0.00    +0.000 A 
ATOM     36  C   UNL     1      -0.981   1.069  -2.135  0.00  0.00    +0.005 A 
ENDBRANCH  30  31
ENDBRANCH   8  30
TORSDOF 6
