REMARK  Name = ZINC36303527
REMARK  16 active torsions:
REMARK  status: ('A' for Active; 'I' for Inactive)
REMARK    1  A    between atoms: C_1  and  C_2
REMARK    2  A    between atoms: C_3  and  C_21
REMARK    3  A    between atoms: C_4  and  O_13
REMARK    4  A    between atoms: N_5  and  C_7
REMARK    5  A    between atoms: O_13  and  C_14
REMARK    6  A    between atoms: C_21  and  N_22
REMARK    7  A    between atoms: N_22  and  C_23
REMARK    8  A    between atoms: N_22  and  C_30
REMARK    9  A    between atoms: C_23  and  C_24
REMARK   10  A    between atoms: C_30  and  C_31
REMARK   11  A    between atoms: C_31  and  C_33
REMARK   12  A    between atoms: C_31  and  O_38
REMARK   13  A    between atoms: C_33  and  O_34
REMARK   14  A    between atoms: O_34  and  C_35
REMARK   15  A    between atoms: C_35  and  C_36
REMARK   16  A    between atoms: C_35  and  C_37
REMARK                            x       y       z     vdW  Elec       q    Type
REMARK                         _______ _______ _______ _____ _____    ______ ____
ROOT
ATOM      1  C   UNL     1       0.198   1.643  -0.156  0.00  0.00    +0.068 C 
ATOM      2  C   UNL     1       0.479   0.163  -0.127  0.00  0.00    +0.065 A 
ATOM      3  C   UNL     1       0.639  -0.661  -1.246  0.00  0.00    +0.021 A 
ATOM      4  C   UNL     1       0.879  -1.924  -0.804  0.00  0.00    +0.225 A 
ATOM      5  N   UNL     1       0.869  -1.890   0.556  0.00  0.00    -0.200 N 
ATOM      6  N   UNL     1       0.621  -0.568   0.949  0.00  0.00    -0.168 NA
ENDROOT
BRANCH   5   7
ATOM      7  C   UNL     1       1.074  -2.981   1.411  0.00  0.00    +0.069 A 
ATOM      8  C   UNL     1       0.508  -4.214   1.114  0.00  0.00    +0.028 A 
ATOM      9  C   UNL     1       0.713  -5.288   1.958  0.00  0.00    +0.002 A 
ATOM     10  C   UNL     1       1.480  -5.136   3.099  0.00  0.00    +0.000 A 
ATOM     11  C   UNL     1       2.044  -3.909   3.397  0.00  0.00    +0.002 A 
ATOM     12  C   UNL     1       1.848  -2.833   2.554  0.00  0.00    +0.028 A 
ENDBRANCH   5   7
BRANCH   4  13
ATOM     13  O   UNL     1       1.089  -3.019  -1.578  0.00  0.00    -0.436 OA
BRANCH  13  14
ATOM     14  C   UNL     1       0.002  -3.695  -2.035  0.00  0.00    +0.149 A 
ATOM     15  C   UNL     1      -1.274  -3.251  -1.723  0.00  0.00    +0.048 A 
ATOM     16  C   UNL     1      -2.377  -3.940  -2.189  0.00  0.00    +0.004 A 
ATOM     17  C   UNL     1      -2.210  -5.072  -2.966  0.00  0.00    +0.002 A 
ATOM     18  C   UNL     1      -0.940  -5.518  -3.278  0.00  0.00    +0.024 A 
ATOM     19  C   UNL     1       0.168  -4.829  -2.820  0.00  0.00    +0.083 A 
ATOM     20 CL   UNL     1       1.764  -5.384  -3.219  0.00  0.00    -0.080 Cl
ENDBRANCH  13  14
ENDBRANCH   4  13
BRANCH   3  21
ATOM     21  C   UNL     1       0.560  -0.225  -2.686  0.00  0.00    -0.036 C 
BRANCH  21  22
ATOM     22  N   UNL     1       1.802   0.464  -3.059  0.00  0.00    +0.386 N 
ATOM     23  H   UNL     1       1.957   1.240  -2.433  0.00  0.00    -0.081 HD
BRANCH  22  24
ATOM     24  C   UNL     1       2.929  -0.474  -2.964  0.00  0.00    -0.046 C 
BRANCH  24  25
ATOM     25  C   UNL     1       2.717  -1.628  -3.946  0.00  0.00    +0.102 C 
ATOM     26  C   UNL     1       3.795  -2.710  -3.722  0.00  0.00    +0.032 C 
ATOM     27  C   UNL     1       4.124  -3.152  -5.174  0.00  0.00    +0.030 C 
ATOM     28  C   UNL     1       3.954  -1.813  -5.935  0.00  0.00    +0.160 C 
ATOM     29  O   UNL     1       2.851  -1.152  -5.290  0.00  0.00    -0.378 OA
ENDBRANCH  24  25
ENDBRANCH  22  24
BRANCH  22  30
ATOM     30  C   UNL     1       1.693   0.960  -4.437  0.00  0.00    -0.044 C 
BRANCH  30  31
ATOM     31  C   UNL     1       2.971   1.713  -4.811  0.00  0.00    +0.124 C 
BRANCH  31  32
ATOM     32  O   UNL     1       3.164   2.802  -3.907  0.00  0.00    -0.391 OA
ATOM     33  H   UNL     1       2.443   3.446  -3.907  0.00  0.00    +0.210 HD
ENDBRANCH  31  32
BRANCH  31  34
ATOM     34  C   UNL     1       2.847   2.251  -6.238  0.00  0.00    +0.189 C 
BRANCH  34  35
ATOM     35  O   UNL     1       4.083   2.853  -6.630  0.00  0.00    -0.375 OA
BRANCH  35  36
ATOM     36  C   UNL     1       4.074   3.390  -7.954  0.00  0.00    +0.112 C 
ATOM     37  C   UNL     1       3.618   4.849  -7.909  0.00  0.00    +0.037 C 
ATOM     38  C   UNL     1       5.484   3.314  -8.544  0.00  0.00    +0.037 C 
ENDBRANCH  35  36
ENDBRANCH  34  35
ENDBRANCH  31  34
ENDBRANCH  30  31
ENDBRANCH  22  30
ENDBRANCH  21  22
ENDBRANCH   3  21
TORSDOF 13
