REMARK  Name = ZINC09051883
REMARK  9 active torsions:
REMARK  status: ('A' for Active; 'I' for Inactive)
REMARK    1  A    between atoms: C_1  and  C_2
REMARK    2  A    between atoms: C_3  and  C_31
REMARK    3  A    between atoms: N_4  and  C_25
REMARK    4  A    between atoms: C_5  and  N_9
REMARK    5  A    between atoms: C_6  and  C_7
REMARK    6  A    between atoms: C_10  and  C_12
REMARK    7  A    between atoms: C_12  and  N_57
REMARK    8  A    between atoms: C_20  and  C_22
REMARK    9  A    between atoms: C_25  and  C_26
REMARK                            x       y       z     vdW  Elec       q    Type
REMARK                         _______ _______ _______ _____ _____    ______ ____
ROOT
ATOM      1  N   UNL     1      -7.323   1.662   1.212  0.00  0.00    -0.272 N 
ATOM      2  C   UNL     1      -6.032   1.814   1.569  0.00  0.00    +0.202 C 
ATOM      3  O   UNL     1      -5.738   2.563   2.476  0.00  0.00    -0.278 OA
ATOM      4  H   UNL     1      -7.567   1.006   0.541  0.00  0.00    +0.156 HD
ENDROOT
BRANCH   1   9
ATOM      5  C   UNL     1      -9.943   5.573   3.051  0.00  0.00    +0.047 C 
ATOM      6  C   UNL     1      -9.511   4.188   2.645  0.00  0.00    -0.011 A 
ATOM      7  C   UNL     1     -10.197   3.048   2.829  0.00  0.00    +0.022 A 
ATOM      8  N   UNL     1      -9.476   1.999   2.326  0.00  0.00    -0.324 N 
ATOM      9  C   UNL     1      -8.303   2.445   1.805  0.00  0.00    +0.124 A 
ATOM     10  C   UNL     1      -8.256   3.821   1.978  0.00  0.00    +0.095 A 
ATOM     11  C   UNL     1     -11.550   2.940   3.485  0.00  0.00    +0.064 C 
BRANCH  10  12
ATOM     12  C   UNL     1      -7.200   4.704   1.583  0.00  0.00    +0.103 C 
ATOM     13  N   UNL     1      -6.362   5.404   1.270  0.00  0.00    -0.191 NA
ENDBRANCH  10  12
BRANCH   8  14
ATOM     14  C   UNL     1      -9.905   0.598   2.346  0.00  0.00    +0.197 C 
BRANCH  14  15
ATOM     15  C   UNL     1      -9.520  -0.026   3.662  0.00  0.00    +0.124 A 
ATOM     16  C   UNL     1     -10.313  -0.137   4.743  0.00  0.00    +0.046 A 
ATOM     17  C   UNL     1      -9.553  -0.784   5.744  0.00  0.00    +0.041 A 
ATOM     18  C   UNL     1      -8.339  -1.024   5.218  0.00  0.00    +0.195 A 
ATOM     19  O   UNL     1      -8.324  -0.563   3.957  0.00  0.00    -0.466 OA
ENDBRANCH  14  15
ENDBRANCH   8  14
ENDBRANCH   1   9
BRANCH   2  20
ATOM     20  C   UNL     1      -4.955   1.052   0.841  0.00  0.00    +0.020 C 
BRANCH  20  29
ATOM     21  C   UNL     1      -3.155   2.654   1.085  0.00  0.00    -0.072 C 
ATOM     22  C   UNL     1      -2.035   3.061   2.057  0.00  0.00    +0.024 C 
ATOM     23  C   UNL     1      -1.112   1.895   2.201  0.00  0.00    -0.010 A 
ATOM     24  C   UNL     1      -1.352   0.614   1.806  0.00  0.00    -0.051 A 
ATOM     25  C   UNL     1      -0.339  -0.311   2.045  0.00  0.00    +0.010 A 
ATOM     26  C   UNL     1       0.813   0.084   2.635  0.00  0.00    +0.045 A 
ATOM     27  S   UNL     1       0.515   1.827   2.895  0.00  0.00    -0.101 S 
ATOM     28  C   UNL     1      -2.688   0.264   1.157  0.00  0.00    -0.033 C 
ATOM     29  N   UNL     1      -3.663   1.325   1.501  0.00  0.00    +0.390 N 
ATOM     30  H   UNL     1      -3.803   1.328   2.518  0.00  0.00    -0.080 HD
BRANCH  28  31
ATOM     31  C   UNL     1      -3.198  -1.071   1.703  0.00  0.00    -0.020 C 
ATOM     32  C   UNL     1      -2.448  -1.682   2.888  0.00  0.00    +0.002 C 
ATOM     33  C   UNL     1      -2.316  -2.303   1.496  0.00  0.00    +0.002 C 
ENDBRANCH  28  31
ENDBRANCH  20  29
ENDBRANCH   2  20
TORSDOF 7
