REMARK  Name = ZINC12301376
REMARK  6 active torsions:
REMARK  status: ('A' for Active; 'I' for Inactive)
REMARK    1  A    between atoms: C_1  and  C_2
REMARK    2  A    between atoms: C_3  and  C_9
REMARK    3  A    between atoms: N_5  and  C_7
REMARK    4  A    between atoms: C_9  and  N_57
REMARK    5  A    between atoms: C_22  and  C_24
REMARK    6  A    between atoms: N_32  and  C_33
REMARK                            x       y       z     vdW  Elec       q    Type
REMARK                         _______ _______ _______ _____ _____    ______ ____
ROOT
ATOM      1  C   UNL     1      -4.696   4.827   0.452  0.00  0.00    -0.072 C 
ATOM      2  C   UNL     1      -3.219   4.947   0.050  0.00  0.00    +0.019 C 
ATOM      3  C   UNL     1      -2.629   3.560   0.047  0.00  0.00    -0.022 A 
ATOM      4  C   UNL     1      -1.227   3.165   0.030  0.00  0.00    +0.003 A 
ATOM      5  C   UNL     1      -0.015   3.860   0.022  0.00  0.00    +0.010 A 
ATOM      6  C   UNL     1       1.164   3.170   0.007  0.00  0.00    +0.001 A 
ATOM      7  C   UNL     1       1.170   1.782   0.001  0.00  0.00    +0.002 A 
ATOM      8  C   UNL     1      -0.013   1.076   0.008  0.00  0.00    +0.026 A 
ATOM      9  C   UNL     1      -1.226   1.756   0.017  0.00  0.00    +0.047 A 
ATOM     10  N   UNL     1      -2.542   1.345   0.021  0.00  0.00    -0.359 N 
ATOM     11  H   UNL     1      -2.837   0.421   0.018  0.00  0.00    +0.166 HD
ATOM     12  C   UNL     1      -3.367   2.431   0.032  0.00  0.00    +0.014 A 
ATOM     13  C   UNL     1      -4.879   2.438   0.036  0.00  0.00    +0.047 C 
ATOM     14  N   UNL     1      -5.332   3.785  -0.387  0.00  0.00    +0.393 N 
ATOM     15  H   UNL     1      -5.060   3.935  -1.365  0.00  0.00    -0.080 HD
ENDROOT
BRANCH  13  16
ATOM     16  C   UNL     1      -5.394   1.418  -0.946  0.00  0.00    +0.103 A 
ATOM     17  N   UNL     1      -5.394   1.562  -2.239  0.00  0.00    -0.234 NA
ATOM     18  C   UNL     1      -5.925   0.457  -2.821  0.00  0.00    +0.089 A 
ATOM     19  C   UNL     1      -6.159   0.084  -4.148  0.00  0.00    +0.030 A 
ATOM     20  C   UNL     1      -6.729  -1.126  -4.425  0.00  0.00    +0.002 A 
ATOM     21  C   UNL     1      -7.081  -1.994  -3.400  0.00  0.00    +0.002 A 
ATOM     22  C   UNL     1      -6.859  -1.647  -2.085  0.00  0.00    +0.028 A 
ATOM     23  C   UNL     1      -6.281  -0.422  -1.784  0.00  0.00    +0.069 A 
ATOM     24  N   UNL     1      -5.932   0.215  -0.610  0.00  0.00    -0.332 N 
ATOM     25  C   UNL     1      -6.109  -0.309   0.747  0.00  0.00    +0.150 C 
ENDBRANCH  13  16
BRANCH  14  26
ATOM     26  C   UNL     1      -6.802   3.879  -0.277  0.00  0.00    -0.037 C 
BRANCH  26  29
ATOM     27  C   UNL     1      -7.560   4.288  -3.327  0.00  0.00    +0.068 C 
ATOM     28  C   UNL     1      -7.589   5.350  -2.258  0.00  0.00    +0.063 A 
ATOM     29  C   UNL     1      -7.253   5.169  -0.913  0.00  0.00    -0.005 A 
ATOM     30  C   UNL     1      -7.412   6.356  -0.281  0.00  0.00    +0.128 A 
ATOM     31  N   UNL     1      -7.824   7.258  -1.197  0.00  0.00    -0.256 N 
ATOM     32  N   UNL     1      -7.931   6.601  -2.430  0.00  0.00    -0.175 NA
ATOM     33  C   UNL     1      -8.115   8.671  -0.945  0.00  0.00    +0.174 C 
ATOM     34 CL   UNL     1      -7.130   6.665   1.405  0.00  0.00    -0.062 Cl
ENDBRANCH  26  29
ENDBRANCH  14  26
TORSDOF 3
