REMARK  Name = ZINC20120428
REMARK  3 active torsions:
REMARK  status: ('A' for Active; 'I' for Inactive)
REMARK    1  A    between atoms: C_4  and  C_7
REMARK    2  A    between atoms: C_22  and  C_24
REMARK    3  A    between atoms: C_28  and  N_30
REMARK                            x       y       z     vdW  Elec       q    Type
REMARK                         _______ _______ _______ _____ _____    ______ ____
ROOT
ATOM      1  C   UNL     1       3.065   6.942   1.103  0.00  0.00    +0.247 C 
ATOM      2  O   UNL     1       2.608   8.041   0.855  0.00  0.00    -0.270 OA
ATOM      3  N   UNL     1       2.399   5.833   0.725  0.00  0.00    -0.285 N 
ATOM      4  C   UNL     1       1.055   5.926   0.136  0.00  0.00    +0.114 C 
ATOM      5  C   UNL     1       0.052   5.241   1.073  0.00  0.00    +0.056 C 
ATOM      6  C   UNL     1       0.631   3.928   1.530  0.00  0.00    -0.015 A 
ATOM      7  C   UNL     1      -0.077   2.799   2.127  0.00  0.00    +0.003 A 
ATOM      8  C   UNL     1      -1.412   2.547   2.454  0.00  0.00    +0.010 A 
ATOM      9  C   UNL     1      -1.759   1.355   3.021  0.00  0.00    +0.001 A 
ATOM     10  C   UNL     1      -0.796   0.388   3.276  0.00  0.00    +0.002 A 
ATOM     11  C   UNL     1       0.526   0.613   2.962  0.00  0.00    +0.026 A 
ATOM     12  C   UNL     1       0.903   1.821   2.383  0.00  0.00    +0.047 A 
ATOM     13  N   UNL     1       2.111   2.334   1.965  0.00  0.00    -0.356 N 
ATOM     14  H   UNL     1       3.029   1.735   2.069  0.00  0.00    +0.166 HD
ATOM     15  C   UNL     1       1.933   3.589   1.458  0.00  0.00    +0.046 A 
ATOM     16  C   UNL     1       3.000   4.499   0.890  0.00  0.00    +0.154 C 
ENDROOT
BRANCH   1  20
ATOM     17  C   UNL     1       6.764   6.599   3.164  0.00  0.00    +0.000 A 
ATOM     18  C   UNL     1       5.914   7.654   3.445  0.00  0.00    +0.001 A 
ATOM     19  C   UNL     1       4.712   7.771   2.779  0.00  0.00    +0.013 A 
ATOM     20  C   UNL     1       4.353   6.823   1.820  0.00  0.00    +0.037 A 
ATOM     21  C   UNL     1       5.212   5.758   1.546  0.00  0.00    +0.013 A 
ATOM     22  C   UNL     1       6.414   5.655   2.215  0.00  0.00    +0.001 A 
ENDBRANCH   1  20
BRANCH  16  23
ATOM     23  C   UNL     1       3.462   3.975  -0.445  0.00  0.00    -0.019 A 
ATOM     24  C   UNL     1       4.784   3.615  -0.627  0.00  0.00    +0.006 A 
ATOM     25  C   UNL     1       5.207   3.135  -1.852  0.00  0.00    +0.003 A 
ATOM     26  C   UNL     1       4.308   3.015  -2.896  0.00  0.00    +0.033 A 
ATOM     27  C   UNL     1       2.986   3.375  -2.714  0.00  0.00    +0.127 A 
ATOM     28  C   UNL     1       2.562   3.850  -1.487  0.00  0.00    +0.038 A 
BRANCH  27  29
ATOM     29  N   UNL     1       2.023   3.246  -3.831  0.00  0.00    +0.056 N 
ATOM     30  O   UNL     1       2.396   2.823  -4.910  0.00  0.00    -0.126 OA
ATOM     31  O   UNL     1       0.858   3.563  -3.670  0.00  0.00    -0.126 OA
ENDBRANCH  27  29
ENDBRANCH  16  23
TORSDOF 3
