REMARK  Name = ZINC15682328
REMARK  13 active torsions:
REMARK  status: ('A' for Active; 'I' for Inactive)
REMARK    1  A    between atoms: C_1  and  C_2
REMARK    2  A    between atoms: C_2  and  C_3
REMARK    3  A    between atoms: C_6  and  S_9
REMARK    4  A    between atoms: S_9  and  C_12
REMARK    5  A    between atoms: C_12  and  C_13
REMARK    6  A    between atoms: C_14  and  C_31
REMARK    7  A    between atoms: C_16  and  C_18
REMARK    8  A    between atoms: C_21  and  C_24
REMARK    9  A    between atoms: N_26  and  C_27
REMARK   10  A    between atoms: C_27  and  C_28
REMARK   11  A    between atoms: C_28  and  N_61
REMARK   12  A    between atoms: C_29  and  N_61
REMARK   13  A    between atoms: C_30  and  N_61
REMARK                            x       y       z     vdW  Elec       q    Type
REMARK                         _______ _______ _______ _____ _____    ______ ____
ROOT
ATOM      1  C   UNL     1       1.240  -4.400  -1.905  0.00  0.00    +0.104 A 
ATOM      2  C   UNL     1       2.339  -5.175  -1.988  0.00  0.00    +0.127 A 
ATOM      3  O   UNL     1       1.921  -6.452  -2.086  0.00  0.00    -0.440 OA
ATOM      4  C   UNL     1       0.576  -6.444  -2.071  0.00  0.00    +0.228 A 
ATOM      5  N   UNL     1       0.168  -5.201  -1.961  0.00  0.00    -0.212 NA
ATOM      6  C   UNL     1       3.770  -4.702  -1.971  0.00  0.00    +0.088 C 
ENDROOT
BRANCH   4   7
ATOM      7  C   UNL     1      -0.295  -7.633  -2.162  0.00  0.00    +0.037 A 
ATOM      8  C   UNL     1      -1.684  -7.487  -2.128  0.00  0.00    +0.014 A 
ATOM      9  C   UNL     1      -2.495  -8.594  -2.217  0.00  0.00    +0.014 A 
ATOM     10  C   UNL     1      -1.930  -9.867  -2.331  0.00  0.00    +0.037 A 
ATOM     11  C   UNL     1      -0.540 -10.014  -2.360  0.00  0.00    +0.014 A 
ATOM     12  C   UNL     1       0.271  -8.906  -2.276  0.00  0.00    +0.014 A 
BRANCH  10  13
ATOM     13  C   UNL     1      -2.800 -11.057  -2.421  0.00  0.00    +0.244 C 
ATOM     14  O   UNL     1      -2.308 -12.164  -2.519  0.00  0.00    -0.270 OA
ATOM     15  N   UNL     1      -4.141 -10.915  -2.393  0.00  0.00    -0.313 N 
ATOM     16  H   UNL     1      -4.533 -10.031  -2.315  0.00  0.00    +0.149 HD
BRANCH  15  17
ATOM     17  C   UNL     1      -5.004 -12.095  -2.482  0.00  0.00    +0.086 C 
BRANCH  17  18
ATOM     18  C   UNL     1      -6.470 -11.659  -2.428  0.00  0.00    -0.061 C 
BRANCH  18  21
ATOM     19  C   UNL     1      -7.182 -13.698  -1.333  0.00  0.00    -0.097 C 
ATOM     20  C   UNL     1      -8.740 -12.454  -2.707  0.00  0.00    -0.097 C 
ATOM     21  N   UNL     1      -7.328 -12.858  -2.540  0.00  0.00    +0.377 N 
ATOM     22  H   UNL     1      -7.037 -13.401  -3.362  0.00  0.00    -0.083 HD
ENDBRANCH  18  21
ENDBRANCH  17  18
ENDBRANCH  15  17
ENDBRANCH  10  13
ENDBRANCH   4   7
BRANCH   1  23
ATOM     23  C   UNL     1       1.221  -2.899  -1.777  0.00  0.00    +0.230 C 
BRANCH  23  24
ATOM     24  S   UNL     1       1.232  -2.441  -0.022  0.00  0.00    +0.003 S 
ATOM     25  O   UNL     1       2.478  -2.789   0.567  0.00  0.00    -0.169 OA
ATOM     26  O   UNL     1       0.009  -2.823   0.592  0.00  0.00    -0.169 OA
BRANCH  24  30
ATOM     27  C   UNL     1       1.171   2.086   0.002  0.00  0.00    -0.048 A 
ATOM     28  C   UNL     1      -0.017   1.378   0.010  0.00  0.00    +0.005 A 
ATOM     29  C   UNL     1       0.002  -0.004   0.002  0.00  0.00    +0.027 A 
ATOM     30  C   UNL     1       1.208  -0.679  -0.013  0.00  0.00    +0.089 A 
ATOM     31  C   UNL     1       2.396   0.029  -0.021  0.00  0.00    +0.027 A 
ATOM     32  C   UNL     1       2.377   1.411  -0.015  0.00  0.00    +0.005 A 
BRANCH  27  34
ATOM     33  C   UNL     1       1.157   4.095   1.455  0.00  0.00    +0.009 C 
ATOM     34  C   UNL     1       1.151   3.592   0.010  0.00  0.00    +0.032 C 
ENDBRANCH  27  34
ENDBRANCH  24  30
ENDBRANCH  23  24
ENDBRANCH   1  23
TORSDOF 9
