REMARK  Name = ZINC01214518
REMARK  5 active torsions:
REMARK  status: ('A' for Active; 'I' for Inactive)
REMARK    1  A    between atoms: C_1  and  C_2
REMARK    2  A    between atoms: C_2  and  C_3
REMARK    3  A    between atoms: C_3  and  C_21
REMARK    4  A    between atoms: C_12  and  C_14
REMARK    5  A    between atoms: C_21  and  C_22
REMARK                            x       y       z     vdW  Elec       q    Type
REMARK                         _______ _______ _______ _____ _____    ______ ____
ROOT
ATOM      1  C   UNL     1       0.410   0.445  -0.011  0.00  0.00    +0.124 C 
ATOM      2  C   UNL     1       1.024  -0.066  -1.300  0.00  0.00    +0.235 C 
ATOM      3  O   UNL     1       0.674   0.365  -2.377  0.00  0.00    -0.274 OA
ATOM      4  N   UNL     1       1.976  -1.019  -1.203  0.00  0.00    -0.238 N 
ATOM      5  C   UNL     1       2.373  -1.506  -0.022  0.00  0.00    +0.322 C 
ATOM      6  O   UNL     1       3.234  -2.362  -0.027  0.00  0.00    -0.251 OA
ATOM      7  N   UNL     1       1.891  -1.118   1.165  0.00  0.00    -0.158 N 
ATOM      8  C   UNL     1       0.937  -0.173   1.270  0.00  0.00    +0.245 C 
ATOM      9  O   UNL     1       0.516   0.167   2.350  0.00  0.00    -0.274 OA
ATOM     10  C   UNL     1       2.377  -1.687   2.285  0.00  0.00    +0.262 C 
ATOM     11  O   UNL     1       3.195  -2.582   2.207  0.00  0.00    -0.269 OA
ATOM     12  H   UNL     1       2.383  -1.362  -2.014  0.00  0.00    +0.159 HD
ENDROOT
BRANCH  10  13
ATOM     13  C   UNL     1       1.915  -1.224   3.609  0.00  0.00    +0.052 A 
ATOM     14  C   UNL     1       0.639  -1.565   4.066  0.00  0.00    +0.014 A 
ATOM     15  C   UNL     1       0.214  -1.129   5.303  0.00  0.00    +0.001 A 
ATOM     16  C   UNL     1       1.048  -0.355   6.092  0.00  0.00    +0.001 A 
ATOM     17  C   UNL     1       2.312  -0.013   5.647  0.00  0.00    +0.016 A 
ATOM     18  C   UNL     1       2.753  -0.447   4.412  0.00  0.00    +0.030 A 
ATOM     19 BR   UNL     1       4.484   0.016   3.808  0.00  0.00    -0.050 Br
ENDBRANCH  10  13
BRANCH   1  21
ATOM     20  C   UNL     1       2.143   2.240   0.123  0.00  0.00    +0.005 C 
ATOM     21  C   UNL     1       0.641   1.956   0.060  0.00  0.00    +0.022 C 
ENDBRANCH   1  21
BRANCH   1  22
ATOM     22  C   UNL     1      -1.099   0.200  -0.072  0.00  0.00    +0.022 C 
ATOM     23  C   UNL     1      -1.369  -1.304  -0.143  0.00  0.00    +0.005 C 
ENDBRANCH   1  22
TORSDOF 3
