REMARK  Name = ZINC09029368
REMARK  14 active torsions:
REMARK  status: ('A' for Active; 'I' for Inactive)
REMARK    1  A    between atoms: C_1  and  C_2
REMARK    2  A    between atoms: C_4  and  O_35
REMARK    3  A    between atoms: C_5  and  C_34
REMARK    4  A    between atoms: C_7  and  S_8
REMARK    5  A    between atoms: S_8  and  N_11
REMARK    6  A    between atoms: N_11  and  C_12
REMARK    7  A    between atoms: C_12  and  C_14
REMARK    8  A    between atoms: C_12  and  C_30
REMARK    9  A    between atoms: C_17  and  S_19
REMARK   10  A    between atoms: S_19  and  C_22
REMARK   11  A    between atoms: C_22  and  C_23
REMARK   12  A    between atoms: C_30  and  C_32
REMARK   13  A    between atoms: C_30  and  C_33
REMARK   14  A    between atoms: O_35  and  C_36
REMARK                            x       y       z     vdW  Elec       q    Type
REMARK                         _______ _______ _______ _____ _____    ______ ____
ROOT
ATOM      1  C   UNL     1      -3.090   1.648  -4.120  0.00  0.00    +0.166 C 
ENDROOT
BRANCH   1   2
ATOM      2  C   UNL     1      -2.270   2.200  -2.983  0.00  0.00    +0.238 A 
ATOM      3  N   UNL     1      -1.698   3.370  -2.941  0.00  0.00    -0.109 NA
ATOM      4  N   UNL     1      -1.087   3.507  -1.817  0.00  0.00    -0.090 NA
ATOM      5  C   UNL     1      -1.241   2.426  -1.107  0.00  0.00    +0.361 A 
ATOM      6  O   UNL     1      -1.994   1.576  -1.825  0.00  0.00    -0.406 OA
BRANCH   5   7
ATOM      7  S   UNL     1      -0.586   2.134   0.503  0.00  0.00    +0.053 S 
ATOM      8  O   UNL     1      -0.476   0.721   0.599  0.00  0.00    -0.165 OA
ATOM      9  O   UNL     1       0.569   2.958   0.579  0.00  0.00    -0.165 OA
BRANCH   7  10
ATOM     10  C   UNL     1      -1.862   2.740   1.641  0.00  0.00    +0.215 C 
BRANCH  10  11
ATOM     11  C   UNL     1      -1.404   2.538   3.063  0.00  0.00    +0.009 A 
ATOM     12  C   UNL     1      -1.705   1.363   3.726  0.00  0.00    +0.008 A 
ATOM     13  C   UNL     1      -1.279   1.175   5.028  0.00  0.00    +0.000 A 
ATOM     14  C   UNL     1      -0.562   2.167   5.672  0.00  0.00    +0.003 A 
ATOM     15  C   UNL     1      -0.265   3.344   5.013  0.00  0.00    +0.038 A 
ATOM     16  C   UNL     1      -0.686   3.531   3.707  0.00  0.00    +0.128 A 
ATOM     17  F   UNL     1      -0.396   4.682   3.061  0.00  0.00    -0.205 F 
ENDBRANCH  10  11
ENDBRANCH   7  10
ENDBRANCH   5   7
ENDBRANCH   1   2
BRANCH   1  18
ATOM     18  C   UNL     1      -2.162   1.234  -5.264  0.00  0.00    +0.011 C 
ATOM     19  C   UNL     1      -1.273   0.075  -4.806  0.00  0.00    +0.009 C 
ATOM     20  C   UNL     1      -1.284   2.422  -5.664  0.00  0.00    +0.009 C 
ENDBRANCH   1  18
BRANCH   1  21
ATOM     21  N   UNL     1      -4.021   2.675  -4.594  0.00  0.00    -0.178 NA
ATOM     22  H   UNL     1      -3.753   3.607  -4.600  0.00  0.00    +0.149 HD
BRANCH  21  23
ATOM     23  S   UNL     1      -5.531   2.244  -5.120  0.00  0.00    +0.059 S 
ATOM     24  O   UNL     1      -6.196   3.448  -5.476  0.00  0.00    -0.153 OA
ATOM     25  O   UNL     1      -5.352   1.173  -6.037  0.00  0.00    -0.153 OA
BRANCH  23  32
ATOM     26  C   UNL     1      -6.285   3.842  -2.667  0.00  0.00    +0.046 C 
ATOM     27  C   UNL     1      -6.697   2.393  -2.657  0.00  0.00    -0.021 A 
ATOM     28  C   UNL     1      -7.375   1.875  -1.570  0.00  0.00    +0.051 A 
ATOM     29  C   UNL     1      -7.753   0.541  -1.561  0.00  0.00    +0.123 A 
ATOM     30  C   UNL     1      -7.449  -0.271  -2.644  0.00  0.00    -0.007 A 
ATOM     31  C   UNL     1      -6.776   0.252  -3.731  0.00  0.00    +0.035 A 
ATOM     32  C   UNL     1      -6.396   1.581  -3.735  0.00  0.00    +0.109 A 
ATOM     33  C   UNL     1      -7.859  -1.722  -2.637  0.00  0.00    +0.047 C 
BRANCH  29  34
ATOM     34  O   UNL     1      -8.419   0.030  -0.492  0.00  0.00    -0.495 OA
ATOM     35  C   UNL     1      -8.697   0.924   0.587  0.00  0.00    +0.277 C 
ENDBRANCH  29  34
ENDBRANCH  23  32
ENDBRANCH  21  23
ENDBRANCH   1  21
TORSDOF 9
