REMARK  Name = ZINC37203838
REMARK  5 active torsions:
REMARK  status: ('A' for Active; 'I' for Inactive)
REMARK    1  A    between atoms: C_1  and  C_2
REMARK    2  A    between atoms: C_2  and  C_4
REMARK    3  A    between atoms: C_2  and  N_14
REMARK    4  A    between atoms: C_7  and  N_10
REMARK    5  A    between atoms: N_14  and  C_15
REMARK                            x       y       z     vdW  Elec       q    Type
REMARK                         _______ _______ _______ _____ _____    ______ ____
ROOT
ATOM      1  C   UNL     1       0.730  -0.485   1.231  0.00  0.00    -0.027 A 
ATOM      2  C   UNL     1       0.143  -0.382   2.479  0.00  0.00    +0.007 A 
ATOM      3  C   UNL     1       0.809  -0.845   3.597  0.00  0.00    +0.023 A 
ATOM      4  C   UNL     1       2.069  -1.414   3.467  0.00  0.00    +0.035 A 
ATOM      5  C   UNL     1       2.655  -1.516   2.213  0.00  0.00    +0.023 A 
ATOM      6  C   UNL     1       1.982  -1.057   1.098  0.00  0.00    +0.007 A 
ENDROOT
BRANCH   4   7
ATOM      7  N   UNL     1       2.746  -1.883   4.598  0.00  0.00    -0.270 N 
ATOM      8  C   UNL     1       2.054  -2.412   5.627  0.00  0.00    +0.301 C 
ATOM      9  O   UNL     1       0.853  -2.571   5.534  0.00  0.00    -0.253 OA
ATOM     10  N   UNL     1       2.695  -2.765   6.759  0.00  0.00    -0.313 N 
ATOM     11  H   UNL     1       3.713  -1.827   4.642  0.00  0.00    +0.156 HD
ATOM     12  H   UNL     1       3.654  -2.639   6.833  0.00  0.00    +0.146 HD
ATOM     13  H   UNL     1       2.197  -3.146   7.499  0.00  0.00    +0.146 HD
ENDBRANCH   4   7
BRANCH   1  15
ATOM     14  C   UNL     1       0.162   1.539  -0.084  0.00  0.00    +0.033 C 
ATOM     15  C   UNL     1       0.000   0.020   0.013  0.00  0.00    +0.098 C 
BRANCH  15  16
ATOM     16  N   UNL     1      -1.422  -0.313   0.122  0.00  0.00    -0.337 N 
ATOM     17  H   UNL     1      -1.823  -0.447   0.995  0.00  0.00    +0.147 HD
BRANCH  16  18
ATOM     18  C   UNL     1      -2.200  -0.439  -1.031  0.00  0.00    +0.029 A 
ATOM     19  C   UNL     1      -1.626  -0.253  -2.282  0.00  0.00    +0.023 A 
ATOM     20  C   UNL     1      -2.398  -0.378  -3.420  0.00  0.00    +0.003 A 
ATOM     21  C   UNL     1      -3.741  -0.687  -3.316  0.00  0.00    +0.015 A 
ATOM     22  C   UNL     1      -4.317  -0.872  -2.072  0.00  0.00    +0.020 A 
ATOM     23  C   UNL     1      -3.549  -0.755  -0.929  0.00  0.00    +0.038 A 
ATOM     24 BR   UNL     1      -6.155  -1.294  -1.935  0.00  0.00    -0.050 Br
ENDBRANCH  16  18
ENDBRANCH  15  16
ENDBRANCH   1  15
TORSDOF 4
