REMARK  Name = ZINC12993398
REMARK  8 active torsions:
REMARK  status: ('A' for Active; 'I' for Inactive)
REMARK    1  A    between atoms: C_1  and  C_2
REMARK    2  A    between atoms: C_4  and  C_26
REMARK    3  A    between atoms: C_5  and  S_9
REMARK    4  A    between atoms: C_6  and  C_8
REMARK    5  A    between atoms: S_9  and  N_12
REMARK    6  A    between atoms: N_12  and  N_13
REMARK    7  A    between atoms: C_14  and  C_16
REMARK    8  A    between atoms: C_17  and  C_25
REMARK                            x       y       z     vdW  Elec       q    Type
REMARK                         _______ _______ _______ _____ _____    ______ ____
ROOT
ATOM      1  N   UNL     1      -2.866   1.323   2.313  0.00  0.00    -0.108 NA
ATOM      2  H   UNL     1      -2.929   0.454   2.739  0.00  0.00    +0.172 HD
ENDROOT
BRANCH   1   3
ATOM      3  N   UNL     1      -2.874   2.488   3.091  0.00  0.00    -0.225 N 
ATOM      4  C   UNL     1      -3.884   2.715   3.954  0.00  0.00    +0.294 C 
ATOM      5  O   UNL     1      -4.789   1.908   4.057  0.00  0.00    -0.265 OA
ATOM      6  H   UNL     1      -2.153   3.131   3.008  0.00  0.00    +0.171 HD
BRANCH   4   7
ATOM      7  C   UNL     1      -3.893   3.937   4.770  0.00  0.00    +0.195 A 
ATOM      8  C   UNL     1      -4.858   4.272   5.665  0.00  0.00    +0.008 A 
ATOM      9  C   UNL     1      -4.452   5.555   6.237  0.00  0.00    +0.024 A 
ATOM     10  C   UNL     1      -5.001   6.413   7.194  0.00  0.00    +0.012 A 
ATOM     11  C   UNL     1      -4.357   7.575   7.511  0.00  0.00    +0.001 A 
ATOM     12  C   UNL     1      -3.162   7.910   6.888  0.00  0.00    +0.004 A 
ATOM     13  C   UNL     1      -2.604   7.078   5.941  0.00  0.00    +0.047 A 
ATOM     14  C   UNL     1      -3.240   5.889   5.603  0.00  0.00    +0.136 A 
ATOM     15  O   UNL     1      -2.947   4.899   4.739  0.00  0.00    -0.450 OA
ATOM     16  C   UNL     1      -6.095   3.480   6.003  0.00  0.00    +0.048 C 
ENDBRANCH   4   7
ENDBRANCH   1   3
BRANCH   1  17
ATOM     17  S   UNL     1      -2.748   1.429   0.664  0.00  0.00    +0.074 S 
ATOM     18  O   UNL     1      -3.788   2.299   0.238  0.00  0.00    -0.152 OA
ATOM     19  O   UNL     1      -2.620   0.099   0.180  0.00  0.00    -0.152 OA
BRANCH  17  24
ATOM     20  C   UNL     1       2.452   4.221  -0.588  0.00  0.00    +0.044 C 
ATOM     21  C   UNL     1       1.154   3.524  -0.272  0.00  0.00    -0.050 A 
ATOM     22  C   UNL     1       1.141   2.164  -0.025  0.00  0.00    +0.008 A 
ATOM     23  C   UNL     1      -0.050   1.525   0.265  0.00  0.00    -0.024 A 
ATOM     24  C   UNL     1      -1.229   2.245   0.302  0.00  0.00    +0.113 A 
ATOM     25  C   UNL     1      -1.216   3.606   0.061  0.00  0.00    -0.024 A 
ATOM     26  C   UNL     1      -0.025   4.245  -0.229  0.00  0.00    +0.008 A 
ATOM     27  C   UNL     1      -2.501   4.392   0.108  0.00  0.00    +0.046 C 
ATOM     28  C   UNL     1      -0.063   0.042   0.533  0.00  0.00    +0.046 C 
ENDBRANCH  17  24
ENDBRANCH   1  17
TORSDOF 4
