REMARK  Name = ZINC36397888
REMARK  9 active torsions:
REMARK  status: ('A' for Active; 'I' for Inactive)
REMARK    1  A    between atoms: C_1  and  C_2
REMARK    2  A    between atoms: C_5  and  C_30
REMARK    3  A    between atoms: N_8  and  C_10
REMARK    4  A    between atoms: C_10  and  C_11
REMARK    5  A    between atoms: C_11  and  N_12
REMARK    6  A    between atoms: N_12  and  C_13
REMARK    7  A    between atoms: C_16  and  N_27
REMARK    8  A    between atoms: C_18  and  S_19
REMARK    9  A    between atoms: S_19  and  N_22
REMARK                            x       y       z     vdW  Elec       q    Type
REMARK                         _______ _______ _______ _____ _____    ______ ____
ROOT
ATOM      1  C   UNL     1       5.133  -2.234   3.473  0.00  0.00    +0.054 A 
ATOM      2  C   UNL     1       5.760  -1.500   2.473  0.00  0.00    +0.027 A 
ATOM      3  C   UNL     1       7.111  -1.230   2.561  0.00  0.00    +0.034 A 
ATOM      4  C   UNL     1       7.840  -1.689   3.643  0.00  0.00    +0.128 A 
ATOM      5  C   UNL     1       7.220  -2.419   4.640  0.00  0.00    +0.063 A 
ATOM      6  C   UNL     1       5.867  -2.688   4.561  0.00  0.00    +0.128 A 
ENDROOT
BRANCH   6   7
ATOM      7  S   UNL     1       5.076  -3.612   5.835  0.00  0.00    +0.063 S 
ATOM      8  O   UNL     1       4.320  -4.628   5.190  0.00  0.00    -0.153 OA
ATOM      9  O   UNL     1       6.073  -3.904   6.804  0.00  0.00    -0.153 OA
BRANCH   7  10
ATOM     10  N   UNL     1       3.985  -2.604   6.567  0.00  0.00    -0.177 NA
ATOM     11  C   UNL     1       4.263  -1.730   7.716  0.00  0.00    +0.109 C 
ATOM     12  C   UNL     1       2.949  -1.000   8.065  0.00  0.00    +0.018 C 
ATOM     13  C   UNL     1       1.865  -1.926   7.453  0.00  0.00    +0.018 C 
ATOM     14  C   UNL     1       2.576  -2.429   6.170  0.00  0.00    +0.109 C 
ENDBRANCH   7  10
ENDBRANCH   6   7
BRANCH   4  15
ATOM     15  N   UNL     1       9.289  -1.398   3.734  0.00  0.00    +0.056 N 
ATOM     16  O   UNL     1       9.833  -0.759   2.864  0.00  0.00    -0.126 OA
ATOM     17  O   UNL     1       9.928  -1.798   4.680  0.00  0.00    -0.126 OA
ENDBRANCH   4  15
BRANCH   1  18
ATOM     18  N   UNL     1       3.766  -2.508   3.387  0.00  0.00    -0.344 N 
ATOM     19  H   UNL     1       3.329  -3.017   4.088  0.00  0.00    +0.146 HD
BRANCH  18  20
ATOM     20  C   UNL     1       2.993  -2.028   2.239  0.00  0.00    +0.083 C 
BRANCH  20  21
ATOM     21  C   UNL     1       1.534  -2.461   2.390  0.00  0.00    -0.060 C 
BRANCH  21  27
ATOM     22  C   UNL     1      -0.019   1.526   0.010  0.00  0.00    +0.005 C 
ATOM     23  C   UNL     1       0.002  -0.004   0.002  0.00  0.00    -0.031 C 
ATOM     24  C   UNL     1      -1.434  -0.535   0.015  0.00  0.00    +0.003 C 
ATOM     25  C   UNL     1      -1.402  -2.064   0.086  0.00  0.00    -0.031 C 
ATOM     26  C   UNL     1      -0.613  -2.496   1.324  0.00  0.00    -0.076 C 
ATOM     27  N   UNL     1       0.758  -1.980   1.239  0.00  0.00    +0.381 N 
ATOM     28  C   UNL     1       0.740  -0.512   1.242  0.00  0.00    -0.076 C 
ATOM     29  C   UNL     1      -0.728  -2.620  -1.170  0.00  0.00    +0.005 C 
ATOM     30  H   UNL     1       1.188  -2.307   0.386  0.00  0.00    -0.082 HD
ENDBRANCH  21  27
ENDBRANCH  20  21
ENDBRANCH  18  20
ENDBRANCH   1  18
TORSDOF 7
