REMARK  Name = ZINC02332113
REMARK  14 active torsions:
REMARK  status: ('A' for Active; 'I' for Inactive)
REMARK    1  A    between atoms: C_1  and  C_2
REMARK    2  A    between atoms: C_5  and  C_7
REMARK    3  A    between atoms: N_8  and  N_9
REMARK    4  A    between atoms: C_10  and  C_12
REMARK    5  A    between atoms: C_12  and  S_13
REMARK    6  A    between atoms: S_13  and  C_14
REMARK    7  A    between atoms: C_17  and  C_25
REMARK    8  A    between atoms: N_18  and  C_19
REMARK    9  A    between atoms: C_27  and  O_35
REMARK   10  A    between atoms: C_28  and  O_33
REMARK   11  A    between atoms: C_29  and  O_31
REMARK   12  A    between atoms: O_31  and  C_32
REMARK   13  A    between atoms: O_33  and  C_34
REMARK   14  A    between atoms: O_35  and  C_36
REMARK                            x       y       z     vdW  Elec       q    Type
REMARK                         _______ _______ _______ _____ _____    ______ ____
ROOT
ATOM      1  C   UNL     1       0.679  -2.914  -0.953  0.00  0.00    +0.197 A 
ATOM      2  N   UNL     1       0.963  -4.146  -0.595  0.00  0.00    -0.122 NA
ATOM      3  N   UNL     1       1.626  -4.144   0.506  0.00  0.00    -0.128 NA
ATOM      4  C   UNL     1       1.812  -2.911   0.917  0.00  0.00    +0.170 A 
ATOM      5  N   UNL     1       1.206  -2.083  -0.002  0.00  0.00    -0.270 N 
ENDROOT
BRANCH   5   6
ATOM      6  C   UNL     1       1.147  -0.683   0.028  0.00  0.00    +0.051 A 
ATOM      7  C   UNL     1      -0.067  -0.043   0.239  0.00  0.00    +0.026 A 
ATOM      8  C   UNL     1      -0.123   1.337   0.268  0.00  0.00    +0.002 A 
ATOM      9  C   UNL     1       1.029   2.081   0.088  0.00  0.00    +0.000 A 
ATOM     10  C   UNL     1       2.239   1.446  -0.123  0.00  0.00    +0.002 A 
ATOM     11  C   UNL     1       2.301   0.066  -0.153  0.00  0.00    +0.026 A 
ENDBRANCH   5   6
BRANCH   4  12
ATOM     12  C   UNL     1       2.534  -2.491   2.137  0.00  0.00    +0.027 A 
ATOM     13  C   UNL     1       3.406  -3.376   2.773  0.00  0.00    +0.061 A 
ATOM     14  C   UNL     1       4.083  -2.979   3.913  0.00  0.00    +0.166 A 
ATOM     15  C   UNL     1       3.888  -1.702   4.429  0.00  0.00    +0.204 A 
ATOM     16  C   UNL     1       3.016  -0.820   3.800  0.00  0.00    +0.166 A 
ATOM     17  C   UNL     1       2.340  -1.210   2.658  0.00  0.00    +0.061 A 
BRANCH  16  18
ATOM     18  O   UNL     1       2.828   0.428   4.308  0.00  0.00    -0.491 OA
ATOM     19  C   UNL     1       1.918   1.281   3.611  0.00  0.00    +0.277 C 
ENDBRANCH  16  18
BRANCH  15  20
ATOM     20  O   UNL     1       4.551  -1.315   5.553  0.00  0.00    -0.488 OA
ATOM     21  C   UNL     1       3.909  -1.567   6.804  0.00  0.00    +0.277 C 
ENDBRANCH  15  20
BRANCH  14  22
ATOM     22  O   UNL     1       4.936  -3.839   4.531  0.00  0.00    -0.491 OA
ATOM     23  C   UNL     1       5.088  -5.134   3.946  0.00  0.00    +0.277 C 
ENDBRANCH  14  22
ENDBRANCH   4  12
BRANCH   1  24
ATOM     24  S   UNL     1      -0.215  -2.424  -2.391  0.00  0.00    -0.076 S 
BRANCH  24  25
ATOM     25  C   UNL     1      -0.560  -4.046  -3.115  0.00  0.00    +0.174 C 
BRANCH  25  27
ATOM     26  N   UNL     1      -1.712  -4.949  -5.109  0.00  0.00    -0.206 N 
ATOM     27  C   UNL     1      -1.340  -3.870  -4.392  0.00  0.00    +0.242 C 
ATOM     28  O   UNL     1      -1.633  -2.757  -4.776  0.00  0.00    -0.273 OA
ATOM     29  H   UNL     1      -1.478  -5.839  -4.802  0.00  0.00    +0.177 HD
BRANCH  26  31
ATOM     30  C   UNL     1      -2.796  -5.827  -6.988  0.00  0.00    +0.145 C 
ATOM     31  N   UNL     1      -2.437  -4.786  -6.296  0.00  0.00    -0.187 NA
BRANCH  30  36
ATOM     32  C   UNL     1      -5.642  -4.199 -11.559  0.00  0.00    +0.051 C 
ATOM     33  C   UNL     1      -4.920  -4.881 -10.425  0.00  0.00    -0.013 A 
ATOM     34  C   UNL     1      -4.721  -6.209 -10.219  0.00  0.00    +0.011 A 
ATOM     35  C   UNL     1      -4.027  -6.620  -9.105  0.00  0.00    +0.017 A 
ATOM     36  C   UNL     1      -3.554  -5.657  -8.231  0.00  0.00    +0.032 A 
ATOM     37  S   UNL     1      -4.116  -4.151  -9.009  0.00  0.00    -0.093 S 
ENDBRANCH  30  36
ENDBRANCH  26  31
ENDBRANCH  25  27
ENDBRANCH  24  25
ENDBRANCH   1  24
TORSDOF 10
