REMARK  Name = ZINC33907664
REMARK  7 active torsions:
REMARK  status: ('A' for Active; 'I' for Inactive)
REMARK    1  A    between atoms: C_1  and  C_2
REMARK    2  A    between atoms: C_2  and  N_3
REMARK    3  A    between atoms: C_7  and  C_29
REMARK    4  A    between atoms: N_16  and  C_27
REMARK    5  A    between atoms: N_18  and  C_19
REMARK    6  A    between atoms: C_22  and  O_25
REMARK    7  A    between atoms: C_27  and  C_28
REMARK                            x       y       z     vdW  Elec       q    Type
REMARK                         _______ _______ _______ _____ _____    ______ ____
ROOT
ATOM      1  N   UNL     1       0.691  -0.445  -1.214  0.00  0.00    -0.297 N 
ATOM      2  C   UNL     1      -0.045  -0.770  -2.338  0.00  0.00    +0.041 A 
ATOM      3  C   UNL     1      -1.427  -0.622  -2.350  0.00  0.00    +0.024 A 
ATOM      4  C   UNL     1      -2.143  -0.951  -3.482  0.00  0.00    +0.005 A 
ATOM      5  C   UNL     1      -1.498  -1.431  -4.613  0.00  0.00    -0.050 A 
ATOM      6  C   UNL     1      -0.130  -1.585  -4.623  0.00  0.00    +0.013 A 
ATOM      7  C   UNL     1       0.612  -1.255  -3.483  0.00  0.00    -0.003 A 
ATOM      8  C   UNL     1       2.069  -1.408  -3.463  0.00  0.00    +0.012 C 
ATOM      9  C   UNL     1       2.747  -1.077  -2.337  0.00  0.00    +0.028 C 
ATOM     10  C   UNL     1       2.057  -0.587  -1.208  0.00  0.00    +0.082 C 
ATOM     11  C   UNL     1       2.773  -0.247  -0.065  0.00  0.00    +0.215 C 
ATOM     12  C   UNL     1       4.168  -0.204   0.058  0.00  0.00    +0.291 C 
ATOM     13  O   UNL     1       4.980  -0.459  -0.818  0.00  0.00    -0.266 OA
ATOM     14  N   UNL     1       4.449   0.170   1.323  0.00  0.00    -0.219 N 
ATOM     15  C   UNL     1       3.264   0.361   1.986  0.00  0.00    +0.298 C 
ATOM     16  N   UNL     1       3.141   0.731   3.239  0.00  0.00    -0.199 NA
ATOM     17  O   UNL     1       2.248   0.111   1.139  0.00  0.00    -0.419 OA
ATOM     18  C   UNL     1      -2.300  -1.785  -5.838  0.00  0.00    +0.044 C 
ENDROOT
BRANCH  16  19
ATOM     19  C   UNL     1       1.894   0.887   3.788  0.00  0.00    +0.069 A 
ATOM     20  C   UNL     1       0.897   1.559   3.080  0.00  0.00    +0.031 A 
ATOM     21  C   UNL     1      -0.356   1.713   3.636  0.00  0.00    +0.047 A 
ATOM     22  C   UNL     1      -0.625   1.202   4.898  0.00  0.00    +0.117 A 
ATOM     23  C   UNL     1       0.364   0.534   5.606  0.00  0.00    +0.047 A 
ATOM     24  C   UNL     1       1.617   0.369   5.055  0.00  0.00    +0.031 A 
BRANCH  22  25
ATOM     25  O   UNL     1      -1.862   1.357   5.442  0.00  0.00    -0.507 OA
ATOM     26  H   UNL     1      -2.475   0.639   5.236  0.00  0.00    +0.292 HD
ENDBRANCH  22  25
ENDBRANCH  16  19
BRANCH   1  28
ATOM     27  C   UNL     1      -0.244  -1.095   0.950  0.00  0.00    +0.024 C 
ATOM     28  C   UNL     1       0.008   0.060  -0.021  0.00  0.00    +0.108 C 
ENDBRANCH   1  28
BRANCH  14  29
ATOM     29  C   UNL     1       5.789   0.343   1.890  0.00  0.00    +0.115 C 
ATOM     30  C   UNL     1       6.250   1.787   1.680  0.00  0.00    +0.025 C 
ENDBRANCH  14  29
TORSDOF 4
