REMARK  Name = ZINC35486173
REMARK  12 active torsions:
REMARK  status: ('A' for Active; 'I' for Inactive)
REMARK    1  A    between atoms: C_1  and  C_2
REMARK    2  A    between atoms: C_2  and  N_3
REMARK    3  A    between atoms: N_3  and  C_4
REMARK    4  A    between atoms: N_3  and  C_6
REMARK    5  A    between atoms: C_4  and  C_5
REMARK    6  A    between atoms: C_6  and  C_7
REMARK    7  A    between atoms: C_7  and  N_8
REMARK    8  A    between atoms: C_9  and  C_25
REMARK    9  A    between atoms: C_16  and  C_24
REMARK   10  A    between atoms: C_27  and  O_33
REMARK   11  A    between atoms: C_28  and  O_32
REMARK   12  A    between atoms: O_33  and  C_34
REMARK                            x       y       z     vdW  Elec       q    Type
REMARK                         _______ _______ _______ _____ _____    ______ ____
ROOT
ATOM      1  N   UNL     1      -1.374  -3.591  -1.812  0.00  0.00    -0.285 N 
ATOM      2  C   UNL     1      -1.447  -4.266  -3.118  0.00  0.00    +0.145 C 
ATOM      3  C   UNL     1      -1.689  -5.709  -2.818  0.00  0.00    +0.072 A 
ATOM      4  C   UNL     1      -1.862  -6.864  -3.704  0.00  0.00    +0.199 A 
ATOM      5  O   UNL     1      -1.653  -6.822  -4.904  0.00  0.00    -0.287 OA
ATOM      6  C   UNL     1      -2.314  -8.091  -3.001  0.00  0.00    +0.065 A 
ATOM      7  C   UNL     1      -2.714  -9.214  -3.724  0.00  0.00    +0.018 A 
ATOM      8  C   UNL     1      -3.132 -10.334  -3.062  0.00  0.00    -0.050 A 
ATOM      9  C   UNL     1      -3.161 -10.355  -1.674  0.00  0.00    +0.007 A 
ATOM     10  C   UNL     1      -2.768  -9.256  -0.944  0.00  0.00    +0.047 A 
ATOM     11  C   UNL     1      -2.335  -8.102  -1.596  0.00  0.00    +0.139 A 
ATOM     12  O   UNL     1      -1.945  -7.038  -0.859  0.00  0.00    -0.450 OA
ATOM     13  C   UNL     1      -1.744  -5.848  -1.460  0.00  0.00    +0.199 A 
ATOM     14  C   UNL     1      -1.543  -4.522  -0.851  0.00  0.00    +0.283 C 
ATOM     15  O   UNL     1      -1.534  -4.299   0.344  0.00  0.00    -0.267 OA
ATOM     16  C   UNL     1      -3.565 -11.550  -3.840  0.00  0.00    +0.044 C 
ENDROOT
BRANCH   2  17
ATOM     17  C   UNL     1      -0.148  -4.099  -3.863  0.00  0.00    -0.018 A 
ATOM     18  C   UNL     1      -0.160  -3.855  -5.224  0.00  0.00    +0.055 A 
ATOM     19  C   UNL     1       1.033  -3.701  -5.911  0.00  0.00    +0.163 A 
ATOM     20  C   UNL     1       2.243  -3.793  -5.228  0.00  0.00    +0.173 A 
ATOM     21  C   UNL     1       2.248  -4.037  -3.864  0.00  0.00    +0.063 A 
ATOM     22  C   UNL     1       1.052  -4.185  -3.183  0.00  0.00    +0.025 A 
ATOM     23 BR   UNL     1       3.889  -4.163  -2.932  0.00  0.00    -0.046 Br
BRANCH  20  24
ATOM     24  O   UNL     1       3.417  -3.643  -5.898  0.00  0.00    -0.503 OA
ATOM     25  H   UNL     1       3.734  -2.730  -5.936  0.00  0.00    +0.292 HD
ENDBRANCH  20  24
BRANCH  19  26
ATOM     26  O   UNL     1       1.023  -3.462  -7.249  0.00  0.00    -0.491 OA
ATOM     27  C   UNL     1      -0.255  -3.381  -7.884  0.00  0.00    +0.277 C 
ENDBRANCH  19  26
ENDBRANCH   2  17
BRANCH   1  28
ATOM     28  C   UNL     1      -1.150  -2.160  -1.594  0.00  0.00    +0.090 C 
BRANCH  28  29
ATOM     29  C   UNL     1       0.352  -1.889  -1.487  0.00  0.00    -0.060 C 
BRANCH  29  30
ATOM     30  N   UNL     1       0.577  -0.454  -1.268  0.00  0.00    +0.380 N 
ATOM     31  H   UNL     1       0.124   0.073  -2.000  0.00  0.00    -0.082 HD
BRANCH  30  33
ATOM     32  C   UNL     1       0.126   1.454   0.200  0.00  0.00    -0.017 C 
ATOM     33  C   UNL     1       0.018  -0.064   0.033  0.00  0.00    -0.082 C 
ENDBRANCH  30  33
BRANCH  30  34
ATOM     34  C   UNL     1       2.019  -0.176  -1.285  0.00  0.00    -0.082 C 
ATOM     35  C   UNL     1       2.573  -0.440  -2.687  0.00  0.00    -0.017 C 
ENDBRANCH  30  34
ENDBRANCH  29  30
ENDBRANCH  28  29
ENDBRANCH   1  28
TORSDOF 8
