REMARK  Name = ZINC12777134
REMARK  10 active torsions:
REMARK  status: ('A' for Active; 'I' for Inactive)
REMARK    1  A    between atoms: C_1  and  C_2
REMARK    2  A    between atoms: C_7  and  C_8
REMARK    3  A    between atoms: C_8  and  N_58
REMARK    4  A    between atoms: C_9  and  N_58
REMARK    5  A    between atoms: C_10  and  C_11
REMARK    6  A    between atoms: C_10  and  N_58
REMARK    7  A    between atoms: N_13  and  C_14
REMARK    8  A    between atoms: C_14  and  C_15
REMARK    9  A    between atoms: C_15  and  N_16
REMARK   10  A    between atoms: C_20  and  C_21
REMARK                            x       y       z     vdW  Elec       q    Type
REMARK                         _______ _______ _______ _____ _____    ______ ____
ROOT
ATOM      1  C   UNL     1      -1.287   1.319   0.150  0.00  0.00    +0.133 C 
ENDROOT
BRANCH   1   2
ATOM      2  N   UNL     1      -0.878  -0.087   0.097  0.00  0.00    -0.254 N 
ATOM      3  C   UNL     1      -0.645  -0.735   1.226  0.00  0.00    +0.258 C 
ATOM      4  O   UNL     1      -0.761  -0.193   2.310  0.00  0.00    -0.269 OA
ATOM      5  C   UNL     1      -0.238  -2.149   1.105  0.00  0.00    +0.077 C 
ATOM      6  C   UNL     1       0.062  -3.049   2.076  0.00  0.00    +0.028 C 
ATOM      7  S   UNL     1      -0.248  -2.350  -0.671  0.00  0.00    -0.061 S 
ATOM      8  C   UNL     1      -0.754  -0.692  -1.102  0.00  0.00    +0.121 C 
ATOM      9  S   UNL     1      -1.015  -0.031  -2.659  0.00  0.00    -0.027 S 
BRANCH   6  10
ATOM     10  C   UNL     1       0.180  -2.610   3.473  0.00  0.00    -0.020 A 
ATOM     11  C   UNL     1      -0.305  -3.421   4.507  0.00  0.00    +0.012 A 
ATOM     12  C   UNL     1      -0.193  -3.006   5.816  0.00  0.00    +0.050 A 
ATOM     13  C   UNL     1       0.400  -1.787   6.115  0.00  0.00    +0.166 A 
ATOM     14  C   UNL     1       0.886  -0.974   5.090  0.00  0.00    +0.167 A 
ATOM     15  C   UNL     1       0.782  -1.383   3.776  0.00  0.00    +0.057 A 
ATOM     16  O   UNL     1       1.415   0.157   5.644  0.00  0.00    -0.453 OA
ATOM     17  C   UNL     1       0.882   0.214   6.981  0.00  0.00    +0.466 C 
ATOM     18  O   UNL     1       0.627  -1.164   7.308  0.00  0.00    -0.453 OA
ENDBRANCH   6  10
ENDBRANCH   1   2
BRANCH   1  19
ATOM     19  C   UNL     1      -0.045   2.213   0.114  0.00  0.00    +0.123 C 
BRANCH  19  22
ATOM     20  C   UNL     1       0.478   4.592   0.147  0.00  0.00    +0.196 C 
ATOM     21  O   UNL     1       1.655   4.304   0.087  0.00  0.00    -0.278 OA
ATOM     22  N   UNL     1      -0.454   3.619   0.167  0.00  0.00    -0.315 N 
ATOM     23  H   UNL     1      -1.395   3.849   0.215  0.00  0.00    +0.149 HD
BRANCH  20  24
ATOM     24  C   UNL     1       0.058   6.038   0.202  0.00  0.00    +0.019 C 
BRANCH  24  26
ATOM     25  C   UNL     1       2.059   6.722   1.381  0.00  0.00    -0.095 C 
ATOM     26  N   UNL     1       1.266   6.888   0.145  0.00  0.00    +0.386 N 
ATOM     27  H   UNL     1       1.837   6.603  -0.659  0.00  0.00    -0.081 HD
BRANCH  26  28
ATOM     28  C   UNL     1       0.879   8.305  -0.020  0.00  0.00    -0.042 C 
BRANCH  28  35
ATOM     29  C   UNL     1       2.032   8.331  -2.669  0.00  0.00    +0.044 C 
ATOM     30  C   UNL     1       2.670   9.131  -1.562  0.00  0.00    -0.049 A 
ATOM     31  C   UNL     1       3.806   9.877  -1.814  0.00  0.00    +0.003 A 
ATOM     32  C   UNL     1       4.390  10.610  -0.799  0.00  0.00    +0.000 A 
ATOM     33  C   UNL     1       3.839  10.598   0.469  0.00  0.00    +0.000 A 
ATOM     34  C   UNL     1       2.700   9.856   0.720  0.00  0.00    +0.002 A 
ATOM     35  C   UNL     1       2.118   9.118  -0.295  0.00  0.00    -0.061 A 
ENDBRANCH  28  35
ENDBRANCH  26  28
ENDBRANCH  24  26
ENDBRANCH  20  24
ENDBRANCH  19  22
ENDBRANCH   1  19
TORSDOF 8
