REMARK  Name = ZINC12661859
REMARK  10 active torsions:
REMARK  status: ('A' for Active; 'I' for Inactive)
REMARK    1  A    between atoms: C_1  and  C_2
REMARK    2  A    between atoms: C_13  and  O_30
REMARK    3  A    between atoms: C_17  and  C_29
REMARK    4  A    between atoms: C_22  and  C_28
REMARK    5  A    between atoms: C_23  and  C_25
REMARK    6  A    between atoms: C_25  and  C_27
REMARK    7  A    between atoms: O_30  and  C_31
REMARK    8  A    between atoms: C_31  and  C_33
REMARK    9  A    between atoms: C_33  and  C_34
REMARK   10  A    between atoms: C_34  and  N_79
REMARK                            x       y       z     vdW  Elec       q    Type
REMARK                         _______ _______ _______ _____ _____    ______ ____
ROOT
ATOM      1  C   UNL     1      -0.458   0.067   0.286  0.00  0.00    +0.008 C 
ATOM      2  C   UNL     1      -0.295   1.583   0.159  0.00  0.00    -0.003 C 
ATOM      3  C   UNL     1      -1.140   2.316   1.212  0.00  0.00    +0.008 C 
ATOM      4  C   UNL     1      -2.144   3.223   0.465  0.00  0.00    -0.000 C 
ATOM      5  C   UNL     1      -3.556   2.711   0.703  0.00  0.00    +0.000 C 
ATOM      6  C   UNL     1      -3.632   1.190   0.727  0.00  0.00    +0.031 C 
ATOM      7  C   UNL     1      -5.063   0.745   0.860  0.00  0.00    -0.027 C 
ATOM      8  C   UNL     1      -6.081   1.473   0.511  0.00  0.00    -0.064 C 
ATOM      9  C   UNL     1      -7.471   0.885   0.689  0.00  0.00    +0.075 C 
ATOM     10  C   UNL     1      -8.213   1.009  -0.646  0.00  0.00    +0.180 C 
ATOM     11  C   UNL     1      -8.233   2.476  -1.078  0.00  0.00    +0.046 C 
ATOM     12  C   UNL     1      -6.807   2.964  -1.329  0.00  0.00    +0.015 C 
ATOM     13  C   UNL     1      -5.962   2.856  -0.058  0.00  0.00    -0.008 C 
ATOM     14  C   UNL     1      -4.526   3.260  -0.339  0.00  0.00    +0.003 C 
ATOM     15  C   UNL     1      -4.066   2.772  -1.715  0.00  0.00    +0.005 C 
ATOM     16  C   UNL     1      -2.745   3.471  -2.026  0.00  0.00    +0.008 C 
ATOM     17  C   UNL     1      -1.675   3.255  -0.988  0.00  0.00    -0.019 C 
ATOM     18  C   UNL     1      -0.759   2.060  -1.227  0.00  0.00    +0.064 C 
ATOM     19  C   UNL     1      -0.755   4.509  -1.099  0.00  0.00    +0.012 C 
ATOM     20  C   UNL     1      -6.522   3.845   0.972  0.00  0.00    +0.016 C 
ENDROOT
BRANCH  18  21
ATOM     21  C   UNL     1      -1.403   0.943  -1.992  0.00  0.00    +0.134 C 
ATOM     22  O   UNL     1      -2.166   0.191  -1.435  0.00  0.00    -0.297 OA
ATOM     23  C   UNL     1      -1.100   0.760  -3.457  0.00  0.00    +0.086 C 
ENDBRANCH  18  21
BRANCH  10  24
ATOM     24  O   UNL     1      -9.573   0.527  -0.494  0.00  0.00    -0.461 OA
BRANCH  24  25
ATOM     25  C   UNL     1      -9.787  -0.777  -0.731  0.00  0.00    +0.306 C 
ATOM     26  O   UNL     1      -8.867  -1.491  -1.054  0.00  0.00    -0.251 OA
BRANCH  25  27
ATOM     27  C   UNL     1     -11.174  -1.350  -0.593  0.00  0.00    +0.102 C 
BRANCH  27  28
ATOM     28  C   UNL     1     -11.142  -2.845  -0.916  0.00  0.00    -0.067 C 
BRANCH  28  34
ATOM     29  C   UNL     1     -12.944  -3.365   0.617  0.00  0.00    -0.050 C 
ATOM     30  C   UNL     1     -14.376  -3.899   0.702  0.00  0.00    +0.141 C 
ATOM     31  O   UNL     1     -14.420  -5.220   0.156  0.00  0.00    -0.383 OA
ATOM     32  C   UNL     1     -13.989  -5.295  -1.206  0.00  0.00    +0.141 C 
ATOM     33  C   UNL     1     -12.553  -4.775  -1.310  0.00  0.00    -0.050 C 
ATOM     34  N   UNL     1     -12.512  -3.389  -0.796  0.00  0.00    +0.383 N 
ATOM     35  H   UNL     1     -13.152  -2.808  -1.351  0.00  0.00    -0.082 HD
ENDBRANCH  28  34
ENDBRANCH  27  28
ENDBRANCH  25  27
ENDBRANCH  24  25
ENDBRANCH  10  24
TORSDOF 6
