REMARK  Name = ZINC24779687
REMARK  9 active torsions:
REMARK  status: ('A' for Active; 'I' for Inactive)
REMARK    1  A    between atoms: C_1  and  C_2
REMARK    2  A    between atoms: C_3  and  C_14
REMARK    3  A    between atoms: C_4  and  C_13
REMARK    4  A    between atoms: N_5  and  C_7
REMARK    5  A    between atoms: N_21  and  C_22
REMARK    6  A    between atoms: C_22  and  C_23
REMARK    7  A    between atoms: N_25  and  C_26
REMARK    8  A    between atoms: N_25  and  C_33
REMARK    9  A    between atoms: C_26  and  C_27
REMARK                            x       y       z     vdW  Elec       q    Type
REMARK                         _______ _______ _______ _____ _____    ______ ____
ROOT
ATOM      1  C   UNL     1       7.658  -3.835  -4.138  0.00  0.00    +0.054 C 
ATOM      2  C   UNL     1       7.678  -5.179  -4.811  0.00  0.00    +0.204 C 
ATOM      3  O   UNL     1       8.654  -5.489  -5.460  0.00  0.00    -0.277 OA
ATOM      4  N   UNL     1       6.664  -6.046  -4.723  0.00  0.00    -0.318 N 
ATOM      5  C   UNL     1       5.461  -5.785  -3.938  0.00  0.00    +0.085 C 
ATOM      6  C   UNL     1       5.341  -4.288  -3.646  0.00  0.00    -0.058 C 
ATOM      7  N   UNL     1       6.621  -3.809  -3.099  0.00  0.00    +0.397 N 
ATOM      8  H   UNL     1       6.765  -6.992  -5.276  0.00  0.00    +0.149 HD
ATOM      9  H   UNL     1       6.927  -4.483  -2.285  0.00  0.00    -0.079 HD
ENDROOT
BRANCH   1  12
ATOM     10  C   UNL     1       8.757  -5.141  -1.468  0.00  0.00    +0.068 C 
ATOM     11  C   UNL     1       9.488  -4.146  -2.332  0.00  0.00    +0.063 A 
ATOM     12  C   UNL     1       9.002  -3.570  -3.511  0.00  0.00    -0.009 A 
ATOM     13  C   UNL     1       9.954  -2.737  -3.991  0.00  0.00    +0.044 A 
ATOM     14  N   UNL     1      11.005  -2.779  -3.140  0.00  0.00    -0.237 N 
ATOM     15  N   UNL     1      10.688  -3.673  -2.109  0.00  0.00    -0.171 NA
ATOM     16  C   UNL     1       9.861  -1.909  -5.247  0.00  0.00    +0.066 C 
BRANCH  14  17
ATOM     17  C   UNL     1      12.200  -2.059  -3.269  0.00  0.00    +0.066 A 
ATOM     18  C   UNL     1      13.413  -2.666  -2.971  0.00  0.00    +0.028 A 
ATOM     19  C   UNL     1      14.590  -1.955  -3.103  0.00  0.00    +0.002 A 
ATOM     20  C   UNL     1      14.561  -0.638  -3.523  0.00  0.00    +0.000 A 
ATOM     21  C   UNL     1      13.354  -0.030  -3.817  0.00  0.00    +0.002 A 
ATOM     22  C   UNL     1      12.174  -0.737  -3.691  0.00  0.00    +0.028 A 
ENDBRANCH  14  17
ENDBRANCH   1  12
BRANCH   7  23
ATOM     23  C   UNL     1       6.479  -2.462  -2.529  0.00  0.00    +0.021 C 
BRANCH  23  24
ATOM     24  C   UNL     1       5.438  -2.484  -1.440  0.00  0.00    +0.204 C 
ATOM     25  O   UNL     1       4.909  -3.530  -1.128  0.00  0.00    -0.277 OA
ATOM     26  N   UNL     1       5.096  -1.342  -0.811  0.00  0.00    -0.269 N 
BRANCH  26  27
ATOM     27  C   UNL     1       5.635  -0.122  -1.235  0.00  0.00    +0.037 A 
ATOM     28  C   UNL     1       6.908   0.255  -0.828  0.00  0.00    +0.023 A 
ATOM     29  C   UNL     1       7.439   1.457  -1.253  0.00  0.00    +0.002 A 
ATOM     30  C   UNL     1       6.700   2.290  -2.074  0.00  0.00    +0.000 A 
ATOM     31  C   UNL     1       5.430   1.920  -2.476  0.00  0.00    +0.002 A 
ATOM     32  C   UNL     1       4.896   0.716  -2.059  0.00  0.00    +0.023 A 
ENDBRANCH  26  27
BRANCH  26  33
ATOM     33  C   UNL     1       4.160  -1.378   0.315  0.00  0.00    +0.148 C 
BRANCH  33  34
ATOM     34  C   UNL     1       2.752  -1.222  -0.197  0.00  0.00    -0.030 A 
ATOM     35  C   UNL     1       2.015  -2.338  -0.545  0.00  0.00    +0.005 A 
ATOM     36  C   UNL     1       0.722  -2.195  -1.014  0.00  0.00    +0.000 A 
ATOM     37  C   UNL     1       0.167  -0.935  -1.135  0.00  0.00    +0.000 A 
ATOM     38  C   UNL     1       0.904   0.182  -0.787  0.00  0.00    +0.000 A 
ATOM     39  C   UNL     1       2.196   0.038  -0.319  0.00  0.00    +0.005 A 
ENDBRANCH  33  34
ENDBRANCH  26  33
ENDBRANCH  23  24
ENDBRANCH   7  23
TORSDOF 7
