REMARK  Name = ZINC02060758
REMARK  6 active torsions:
REMARK  status: ('A' for Active; 'I' for Inactive)
REMARK    1  A    between atoms: C_4  and  C_7
REMARK    2  A    between atoms: C_9  and  C_29
REMARK    3  A    between atoms: C_11  and  N_28
REMARK    4  A    between atoms: C_12  and  C_16
REMARK    5  A    between atoms: N_18  and  C_19
REMARK    6  A    between atoms: C_23  and  N_25
REMARK                            x       y       z     vdW  Elec       q    Type
REMARK                         _______ _______ _______ _____ _____    ______ ____
ROOT
ATOM      1  C   UNL     1      -7.572   4.438   0.597  0.00  0.00    +0.073 A 
ATOM      2  C   UNL     1      -7.999   3.110   0.624  0.00  0.00    +0.037 A 
ATOM      3  C   UNL     1      -7.134   2.094   0.249  0.00  0.00    -0.004 A 
ATOM      4  C   UNL     1      -5.808   2.434  -0.163  0.00  0.00    +0.037 A 
ATOM      5  C   UNL     1      -4.742   1.549  -0.594  0.00  0.00    +0.054 A 
ATOM      6  C   UNL     1      -3.530   2.107  -0.949  0.00  0.00    +0.097 A 
ATOM      7  S   UNL     1      -3.794   3.852  -0.702  0.00  0.00    -0.062 S 
ATOM      8  C   UNL     1      -5.482   3.809  -0.153  0.00  0.00    +0.112 A 
ATOM      9  N   UNL     1      -6.338   4.738   0.212  0.00  0.00    -0.239 NA
ENDROOT
BRANCH   3  10
ATOM     10  C   UNL     1      -7.576   0.681   0.274  0.00  0.00    -0.013 A 
ATOM     11  C   UNL     1      -8.712   0.291  -0.436  0.00  0.00    +0.012 A 
ATOM     12  C   UNL     1      -9.119  -1.026  -0.416  0.00  0.00    +0.050 A 
ATOM     13  C   UNL     1      -8.409  -1.965   0.318  0.00  0.00    +0.166 A 
ATOM     14  C   UNL     1      -7.276  -1.580   1.034  0.00  0.00    +0.167 A 
ATOM     15  C   UNL     1      -6.861  -0.262   1.012  0.00  0.00    +0.058 A 
ATOM     16  O   UNL     1      -6.765  -2.678   1.664  0.00  0.00    -0.453 OA
ATOM     17  C   UNL     1      -7.354  -3.811   1.000  0.00  0.00    +0.466 C 
ATOM     18  O   UNL     1      -8.605  -3.303   0.501  0.00  0.00    -0.453 OA
ENDBRANCH   3  10
BRANCH   1  22
ATOM     19  C   UNL     1     -10.241   7.539   1.753  0.00  0.00    +0.000 A 
ATOM     20  C   UNL     1      -8.954   7.851   1.352  0.00  0.00    +0.001 A 
ATOM     21  C   UNL     1      -8.084   6.848   0.976  0.00  0.00    +0.010 A 
ATOM     22  C   UNL     1      -8.503   5.519   1.000  0.00  0.00    +0.000 A 
ATOM     23  C   UNL     1      -9.803   5.211   1.400  0.00  0.00    +0.010 A 
ATOM     24  C   UNL     1     -10.663   6.221   1.780  0.00  0.00    +0.001 A 
ENDBRANCH   1  22
BRANCH   6  25
ATOM     25  C   UNL     1      -2.358   1.450  -1.395  0.00  0.00    +0.257 C 
ATOM     26  O   UNL     1      -2.344   0.237  -1.505  0.00  0.00    -0.269 OA
ATOM     27  N   UNL     1      -1.258   2.167  -1.699  0.00  0.00    -0.281 N 
ATOM     28  H   UNL     1      -1.247   3.126  -1.549  0.00  0.00    +0.155 HD
BRANCH  27  29
ATOM     29  C   UNL     1      -0.133   1.530  -2.231  0.00  0.00    +0.036 A 
ATOM     30  C   UNL     1       0.667   2.187  -3.157  0.00  0.00    +0.023 A 
ATOM     31  C   UNL     1       1.781   1.557  -3.676  0.00  0.00    +0.004 A 
ATOM     32  C   UNL     1       2.100   0.273  -3.274  0.00  0.00    +0.033 A 
ATOM     33  C   UNL     1       1.307  -0.384  -2.352  0.00  0.00    +0.128 A 
ATOM     34  C   UNL     1       0.191   0.240  -1.829  0.00  0.00    +0.056 A 
BRANCH  33  35
ATOM     35  N   UNL     1       1.653  -1.758  -1.924  0.00  0.00    +0.056 N 
ATOM     36  O   UNL     1       2.638  -2.309  -2.384  0.00  0.00    -0.126 OA
ATOM     37  O   UNL     1       0.955  -2.337  -1.111  0.00  0.00    -0.126 OA
ENDBRANCH  33  35
ENDBRANCH  27  29
ENDBRANCH   6  25
BRANCH   5  38
ATOM     38  N   UNL     1      -4.935   0.175  -0.649  0.00  0.00    -0.356 N 
ATOM     39  H   UNL     1      -4.173  -0.424  -0.613  0.00  0.00    +0.142 HD
ATOM     40  H   UNL     1      -5.833  -0.185  -0.723  0.00  0.00    +0.142 HD
ENDBRANCH   5  38
TORSDOF 6
