REMARK  Name = ZINC66604550
REMARK  8 active torsions:
REMARK  status: ('A' for Active; 'I' for Inactive)
REMARK    1  A    between atoms: C_1  and  C_2
REMARK    2  A    between atoms: C_5  and  C_12
REMARK    3  A    between atoms: C_8  and  C_10
REMARK    4  A    between atoms: C_8  and  C_11
REMARK    5  A    between atoms: C_12  and  C_13
REMARK    6  A    between atoms: N_15  and  C_16
REMARK    7  A    between atoms: C_16  and  C_17
REMARK    8  A    between atoms: C_20  and  N_23
REMARK                            x       y       z     vdW  Elec       q    Type
REMARK                         _______ _______ _______ _____ _____    ______ ____
ROOT
ATOM      1  C   UNL     1       2.395   0.150  -3.732  0.00  0.00    +0.214 C 
ATOM      2  O   UNL     1       1.548   0.996  -3.538  0.00  0.00    -0.276 OA
ATOM      3  N   UNL     1       2.753  -0.169  -4.991  0.00  0.00    -0.311 N 
ATOM      4  H   UNL     1       3.431  -0.846  -5.146  0.00  0.00    +0.149 HD
ENDROOT
BRANCH   1   5
ATOM      5  C   UNL     1       3.047  -0.544  -2.564  0.00  0.00    +0.099 C 
BRANCH   5   9
ATOM      6  C   UNL     1       0.153   1.664   0.037  0.00  0.00    +0.007 C 
ATOM      7  C   UNL     1       0.365   0.152   0.114  0.00  0.00    -0.013 C 
ATOM      8  C   UNL     1       0.983  -0.369  -1.175  0.00  0.00    +0.007 C 
ATOM      9  C   UNL     1       2.463   0.000  -1.255  0.00  0.00    -0.002 C 
ATOM     10  C   UNL     1       3.196  -0.637  -0.076  0.00  0.00    +0.010 C 
ATOM     11  C   UNL     1       2.656  -0.109   1.248  0.00  0.00    -0.034 C 
ATOM     12  C   UNL     1       1.146  -0.241   1.352  0.00  0.00    +0.009 C 
ATOM     13  C   UNL     1       3.095   1.343   1.452  0.00  0.00    +0.011 C 
ATOM     14  C   UNL     1       3.287  -0.946   2.381  0.00  0.00    +0.011 C 
ENDBRANCH   5   9
ENDBRANCH   1   5
BRANCH   3  15
ATOM     15  C   UNL     1       2.119   0.506  -6.127  0.00  0.00    +0.139 C 
BRANCH  15  16
ATOM     16  C   UNL     1       2.693  -0.029  -7.413  0.00  0.00    -0.030 A 
ATOM     17  C   UNL     1       3.809   0.567  -7.972  0.00  0.00    +0.007 A 
ATOM     18  C   UNL     1       4.337   0.079  -9.151  0.00  0.00    +0.023 A 
ATOM     19  C   UNL     1       3.746  -1.012  -9.776  0.00  0.00    +0.035 A 
ATOM     20  C   UNL     1       2.626  -1.608  -9.212  0.00  0.00    +0.023 A 
ATOM     21  C   UNL     1       2.106  -1.119  -8.030  0.00  0.00    +0.007 A 
BRANCH  19  22
ATOM     22  N   UNL     1       4.279  -1.508 -10.971  0.00  0.00    -0.270 N 
ATOM     23  C   UNL     1       5.608  -1.458 -11.189  0.00  0.00    +0.301 C 
ATOM     24  O   UNL     1       6.354  -1.071 -10.310  0.00  0.00    -0.253 OA
ATOM     25  N   UNL     1       6.110  -1.836 -12.381  0.00  0.00    -0.313 N 
ATOM     26  H   UNL     1       3.691  -1.889 -11.642  0.00  0.00    +0.156 HD
ATOM     27  H   UNL     1       5.515  -2.145 -13.082  0.00  0.00    +0.146 HD
ATOM     28  H   UNL     1       7.066  -1.800 -12.538  0.00  0.00    +0.146 HD
ENDBRANCH  19  22
ENDBRANCH  15  16
ENDBRANCH   3  15
TORSDOF 5
