REMARK  Name = ZINC39769752
REMARK  15 active torsions:
REMARK  status: ('A' for Active; 'I' for Inactive)
REMARK    1  A    between atoms: C_1  and  C_2
REMARK    2  A    between atoms: C_2  and  C_3
REMARK    3  A    between atoms: C_3  and  C_4
REMARK    4  A    between atoms: C_4  and  C_5
REMARK    5  A    between atoms: C_5  and  C_7
REMARK    6  A    between atoms: C_5  and  C_9
REMARK    7  A    between atoms: C_7  and  C_8
REMARK    8  A    between atoms: C_9  and  N_10
REMARK    9  A    between atoms: C_14  and  C_15
REMARK   10  A    between atoms: C_16  and  C_33
REMARK   11  A    between atoms: C_17  and  C_31
REMARK   12  A    between atoms: N_20  and  C_28
REMARK   13  A    between atoms: C_21  and  N_22
REMARK   14  A    between atoms: C_28  and  C_29
REMARK   15  A    between atoms: C_29  and  C_30
REMARK                            x       y       z     vdW  Elec       q    Type
REMARK                         _______ _______ _______ _____ _____    ______ ____
ROOT
ATOM      1  C   UNL     1      -0.340  -5.063  -7.683  0.00  0.00    +0.019 A 
ATOM      2  C   UNL     1      -1.242  -4.577  -6.722  0.00  0.00    -0.017 A 
ATOM      3  C   UNL     1      -2.590  -4.471  -7.057  0.00  0.00    +0.120 A 
ATOM      4  C   UNL     1      -3.017  -4.856  -8.354  0.00  0.00    +0.270 A 
ATOM      5  O   UNL     1      -4.195  -4.766  -8.653  0.00  0.00    -0.266 OA
ATOM      6  N   UNL     1      -2.133  -5.319  -9.255  0.00  0.00    -0.295 N 
ATOM      7  C   UNL     1      -0.813  -5.426  -8.954  0.00  0.00    +0.112 A 
ATOM      8  C   UNL     1      -0.760  -4.176  -5.352  0.00  0.00    +0.046 C 
ENDROOT
BRANCH   1  13
ATOM      9  N   UNL     1       2.386  -1.783  -6.997  0.00  0.00    -0.255 N 
ATOM     10  C   UNL     1       1.473  -2.694  -7.284  0.00  0.00    +0.258 C 
ATOM     11  O   UNL     1       0.362  -2.371  -7.664  0.00  0.00    -0.269 OA
ATOM     12  C   UNL     1       1.829  -4.069  -7.136  0.00  0.00    +0.077 C 
ATOM     13  C   UNL     1       1.084  -5.186  -7.362  0.00  0.00    +0.032 C 
ATOM     14  S   UNL     1       3.519  -3.925  -6.572  0.00  0.00    -0.061 S 
ATOM     15  C   UNL     1       3.621  -2.142  -6.581  0.00  0.00    +0.121 C 
ATOM     16  S   UNL     1       4.946  -1.141  -6.166  0.00  0.00    -0.027 S 
BRANCH   9  17
ATOM     17  C   UNL     1       2.057  -0.362  -7.138  0.00  0.00    +0.118 C 
BRANCH  17  18
ATOM     18  C   UNL     1       2.530   0.138  -8.504  0.00  0.00    +0.007 C 
BRANCH  18  19
ATOM     19  C   UNL     1       2.270   1.642  -8.614  0.00  0.00    +0.002 C 
ATOM     20  C   UNL     1       3.123   2.384  -7.583  0.00  0.00    +0.004 C 
ENDBRANCH  18  19
BRANCH  18  21
ATOM     21  C   UNL     1       1.764  -0.594  -9.608  0.00  0.00    +0.005 C 
BRANCH  21  22
ATOM     22  C   UNL     1       2.323  -0.185 -10.973  0.00  0.00    +0.000 C 
BRANCH  22  24
ATOM     23  C   UNL     1       2.116  -0.509 -13.441  0.00  0.00    +0.004 C 
ATOM     24  C   UNL     1       1.557  -0.917 -12.077  0.00  0.00    -0.003 C 
ENDBRANCH  22  24
ENDBRANCH  21  22
ENDBRANCH  18  21
ENDBRANCH  17  18
ENDBRANCH   9  17
ENDBRANCH   1  13
BRANCH   7  25
ATOM     25  N   UNL     1       0.059  -5.894  -9.893  0.00  0.00    -0.316 N 
ATOM     26  C   UNL     1       0.820  -4.963 -10.738  0.00  0.00    +0.106 C 
ATOM     27  C   UNL     1       2.310  -5.301 -10.626  0.00  0.00    +0.019 C 
ATOM     28  C   UNL     1       2.521  -6.777 -10.969  0.00  0.00    +0.003 C 
ATOM     29  C   UNL     1       1.752  -7.649  -9.975  0.00  0.00    +0.019 C 
ATOM     30  C   UNL     1       0.260  -7.338 -10.075  0.00  0.00    +0.106 C 
ENDBRANCH   7  25
BRANCH   3  31
ATOM     31  C   UNL     1      -3.535  -3.980  -6.101  0.00  0.00    +0.105 C 
ATOM     32  N   UNL     1      -4.285  -3.590  -5.342  0.00  0.00    -0.191 NA
ENDBRANCH   3  31
BRANCH   6  33
ATOM     33  C   UNL     1      -2.601  -5.710 -10.587  0.00  0.00    +0.126 C 
BRANCH  33  34
ATOM     34  C   UNL     1      -2.454  -4.527 -11.547  0.00  0.00    +0.018 C 
ATOM     35  C   UNL     1      -2.943  -4.935 -12.938  0.00  0.00    +0.005 C 
ENDBRANCH  33  34
ENDBRANCH   6  33
TORSDOF 11
