REMARK  Name = ZINC67328773
REMARK  10 active torsions:
REMARK  status: ('A' for Active; 'I' for Inactive)
REMARK    1  A    between atoms: C_1  and  C_2
REMARK    2  A    between atoms: C_2  and  C_3
REMARK    3  A    between atoms: C_6  and  N_13
REMARK    4  A    between atoms: C_8  and  S_9
REMARK    5  A    between atoms: S_9  and  N_12
REMARK    6  A    between atoms: C_14  and  C_16
REMARK    7  A    between atoms: C_16  and  C_18
REMARK    8  A    between atoms: C_16  and  S_19
REMARK    9  A    between atoms: S_19  and  C_20
REMARK   10  A    between atoms: N_24  and  C_25
REMARK                            x       y       z     vdW  Elec       q    Type
REMARK                         _______ _______ _______ _____ _____    ______ ____
ROOT
ATOM      1  C   UNL     1      -1.533  -0.733  -0.150  0.00  0.00    -0.021 A 
ATOM      2  C   UNL     1      -2.147  -0.965   1.068  0.00  0.00    +0.007 A 
ATOM      3  C   UNL     1      -3.365  -1.615   1.116  0.00  0.00    +0.024 A 
ATOM      4  C   UNL     1      -3.974  -2.034  -0.060  0.00  0.00    +0.035 A 
ATOM      5  C   UNL     1      -3.355  -1.800  -1.280  0.00  0.00    +0.052 A 
ATOM      6  C   UNL     1      -2.139  -1.145  -1.322  0.00  0.00    +0.110 A 
ENDROOT
BRANCH   4   7
ATOM      7  N   UNL     1      -5.207  -2.693  -0.014  0.00  0.00    -0.285 N 
ATOM      8  C   UNL     1      -6.116  -2.357   0.923  0.00  0.00    +0.230 C 
ATOM      9  O   UNL     1      -5.904  -1.422   1.665  0.00  0.00    -0.274 OA
ATOM     10  H   UNL     1      -5.408  -3.391  -0.657  0.00  0.00    +0.155 HD
BRANCH   8  11
ATOM     11  C   UNL     1      -7.396  -3.144   1.047  0.00  0.00    +0.137 C 
ATOM     12  C   UNL     1      -8.385  -2.681  -0.024  0.00  0.00    +0.029 C 
BRANCH  11  13
ATOM     13  S   UNL     1      -8.114  -2.874   2.691  0.00  0.00    -0.074 S 
BRANCH  13  14
ATOM     14  C   UNL     1      -9.501  -3.959   2.734  0.00  0.00    +0.192 A 
ATOM     15  N   UNL     1      -9.889  -4.769   1.776  0.00  0.00    -0.123 NA
ATOM     16  N   UNL     1     -10.937  -5.413   2.146  0.00  0.00    -0.137 NA
ATOM     17  C   UNL     1     -11.278  -5.057   3.352  0.00  0.00    +0.225 A 
ATOM     18  N   UNL     1     -10.373  -4.122   3.772  0.00  0.00    -0.312 N 
ATOM     19  C   UNL     1     -10.345  -3.436   5.066  0.00  0.00    +0.152 C 
ENDBRANCH  13  14
ENDBRANCH  11  13
ENDBRANCH   8  11
ENDBRANCH   4   7
BRANCH   6  20
ATOM     20  S   UNL     1      -1.356  -0.841  -2.871  0.00  0.00    +0.056 S 
ATOM     21  O   UNL     1      -0.013  -1.288  -2.743  0.00  0.00    -0.153 OA
ATOM     22  O   UNL     1      -2.232  -1.338  -3.873  0.00  0.00    -0.153 OA
BRANCH  20  23
ATOM     23  N   UNL     1      -1.290   0.801  -3.072  0.00  0.00    -0.204 NA
ATOM     24  H   UNL     1      -1.585   1.389  -2.359  0.00  0.00    +0.144 HD
ATOM     25  H   UNL     1      -0.957   1.175  -3.903  0.00  0.00    +0.144 HD
ENDBRANCH  20  23
ENDBRANCH   6  20
BRANCH   1  27
ATOM     26  C   UNL     1       0.293   0.225   1.226  0.00  0.00    +0.009 C 
ATOM     27  C   UNL     1      -0.204  -0.025  -0.199  0.00  0.00    +0.034 C 
ENDBRANCH   1  27
TORSDOF 7
