REMARK  Name = ZINC08962338
REMARK  10 active torsions:
REMARK  status: ('A' for Active; 'I' for Inactive)
REMARK    1  A    between atoms: C_1  and  C_2
REMARK    2  A    between atoms: C_2  and  C_3
REMARK    3  A    between atoms: C_3  and  O_4
REMARK    4  A    between atoms: O_4  and  C_5
REMARK    5  A    between atoms: C_8  and  S_12
REMARK    6  A    between atoms: C_10  and  C_11
REMARK    7  A    between atoms: S_12  and  N_15
REMARK    8  A    between atoms: N_15  and  C_16
REMARK    9  A    between atoms: C_25  and  C_28
REMARK   10  A    between atoms: C_25  and  C_29
REMARK                            x       y       z     vdW  Elec       q    Type
REMARK                         _______ _______ _______ _____ _____    ______ ____
ROOT
ATOM      1  N   UNL     1       4.503   4.004  -0.900  0.00  0.00    -0.216 N 
ATOM      2  H   UNL     1       5.295   3.748  -0.402  0.00  0.00    +0.174 HD
ENDROOT
BRANCH   1   3
ATOM      3  C   UNL     1       3.325   3.258  -0.776  0.00  0.00    +0.049 A 
ATOM      4  C   UNL     1       2.599   2.914  -1.912  0.00  0.00    +0.028 A 
ATOM      5  C   UNL     1       1.437   2.176  -1.802  0.00  0.00    +0.048 A 
ATOM      6  C   UNL     1       0.987   1.774  -0.556  0.00  0.00    +0.133 A 
ATOM      7  C   UNL     1       1.713   2.121   0.594  0.00  0.00    +0.080 A 
ATOM      8  C   UNL     1       2.887   2.863   0.477  0.00  0.00    +0.041 A 
ATOM      9  C   UNL     1       1.212   1.688   1.912  0.00  0.00    +0.248 C 
ATOM     10  O   UNL     1       1.140   2.476   2.836  0.00  0.00    -0.270 OA
ATOM     11  N   UNL     1       0.834   0.398   2.076  0.00  0.00    -0.303 N 
ATOM     12  C   UNL     1       1.027  -0.557   0.983  0.00  0.00    +0.063 C 
ATOM     13  C   UNL     1      -0.004  -0.336  -0.116  0.00  0.00    +0.254 C 
ATOM     14  O   UNL     1      -0.150   1.043  -0.427  0.00  0.00    -0.489 OA
ATOM     15  C   UNL     1       0.888  -1.980   1.527  0.00  0.00    +0.035 C 
ATOM     16  C   UNL     1       2.430  -0.376   0.401  0.00  0.00    +0.035 C 
ATOM     17  H   UNL     1       0.437   0.108   2.913  0.00  0.00    +0.150 HD
ENDBRANCH   1   3
BRANCH   1  18
ATOM     18  S   UNL     1       4.544   5.326  -1.898  0.00  0.00    +0.072 S 
ATOM     19  O   UNL     1       5.849   5.877  -1.788  0.00  0.00    -0.150 OA
ATOM     20  O   UNL     1       3.994   4.913  -3.141  0.00  0.00    -0.150 OA
BRANCH  18  24
ATOM     21  C   UNL     1       1.694   8.394  -0.174  0.00  0.00    +0.123 A 
ATOM     22  C   UNL     1       1.237   7.458  -1.091  0.00  0.00    +0.048 A 
ATOM     23  C   UNL     1       2.109   6.527  -1.620  0.00  0.00    +0.032 A 
ATOM     24  C   UNL     1       3.435   6.519  -1.227  0.00  0.00    +0.109 A 
ATOM     25  C   UNL     1       3.893   7.450  -0.314  0.00  0.00    +0.035 A 
ATOM     26  C   UNL     1       3.026   8.388   0.213  0.00  0.00    -0.007 A 
ATOM     27  C   UNL     1       3.526   9.402   1.209  0.00  0.00    +0.047 C 
BRANCH  21  28
ATOM     28  O   UNL     1       0.839   9.315   0.342  0.00  0.00    -0.492 OA
BRANCH  28  29
ATOM     29  C   UNL     1      -0.518   9.262  -0.103  0.00  0.00    +0.229 C 
BRANCH  29  31
ATOM     30  C   UNL     1      -2.776  10.311   0.106  0.00  0.00    +0.007 C 
ATOM     31  C   UNL     1      -1.323  10.368   0.583  0.00  0.00    +0.038 C 
ENDBRANCH  29  31
ENDBRANCH  28  29
ENDBRANCH  21  28
ENDBRANCH  18  24
ENDBRANCH   1  18
TORSDOF 6
