REMARK  Name = ZINC39640433
REMARK  9 active torsions:
REMARK  status: ('A' for Active; 'I' for Inactive)
REMARK    1  A    between atoms: C_1  and  C_2
REMARK    2  A    between atoms: C_2  and  C_4
REMARK    3  A    between atoms: C_2  and  O_15
REMARK    4  A    between atoms: N_6  and  C_7
REMARK    5  A    between atoms: C_7  and  C_13
REMARK    6  A    between atoms: O_15  and  C_16
REMARK    7  A    between atoms: C_16  and  C_18
REMARK    8  A    between atoms: C_18  and  N_19
REMARK    9  A    between atoms: C_20  and  C_22
REMARK                            x       y       z     vdW  Elec       q    Type
REMARK                         _______ _______ _______ _____ _____    ______ ____
ROOT
ATOM      1  C   UNL     1      -0.042  -0.697   2.261  0.00  0.00    +0.325 C 
ATOM      2  O   UNL     1      -1.233  -0.493   2.243  0.00  0.00    -0.249 OA
ENDROOT
BRANCH   1   3
ATOM      3  O   UNL     1       0.693  -0.477   1.160  0.00  0.00    -0.451 OA
BRANCH   3   5
ATOM      4  C   UNL     1      -0.019   1.526   0.010  0.00  0.00    +0.062 C 
ATOM      5  C   UNL     1       0.002  -0.004   0.002  0.00  0.00    +0.259 C 
BRANCH   5   6
ATOM      6  C   UNL     1       0.707  -0.490  -1.238  0.00  0.00    +0.255 C 
ATOM      7  O   UNL     1       1.753  -1.097  -1.142  0.00  0.00    -0.272 OA
ATOM      8  N   UNL     1       0.176  -0.250  -2.453  0.00  0.00    -0.294 N 
ATOM      9  H   UNL     1      -0.660   0.235  -2.530  0.00  0.00    +0.150 HD
BRANCH   8  10
ATOM     10  C   UNL     1       0.862  -0.723  -3.658  0.00  0.00    +0.121 C 
ATOM     11  C   UNL     1       2.255  -0.093  -3.733  0.00  0.00    +0.041 C 
ATOM     12  C   UNL     1       2.971  -0.587  -4.992  0.00  0.00    +0.003 C 
ATOM     13  C   UNL     1       2.163  -0.186  -6.228  0.00  0.00    +0.000 C 
ATOM     14  C   UNL     1       0.771  -0.815  -6.154  0.00  0.00    +0.003 C 
ATOM     15  C   UNL     1       0.055  -0.322  -4.895  0.00  0.00    +0.041 C 
BRANCH  10  16
ATOM     16  C   UNL     1       0.988  -2.188  -3.609  0.00  0.00    +0.088 C 
ATOM     17  N   UNL     1       1.085  -3.320  -3.570  0.00  0.00    -0.194 NA
ENDBRANCH  10  16
ENDBRANCH   8  10
ENDBRANCH   5   6
ENDBRANCH   3   5
ENDBRANCH   1   3
BRANCH   1  18
ATOM     18  C   UNL     1       0.618  -1.196   3.521  0.00  0.00    +0.225 C 
BRANCH  18  19
ATOM     19  N   UNL     1      -0.391  -1.354   4.571  0.00  0.00    -0.304 N 
ATOM     20  C   UNL     1      -0.029  -1.793   5.793  0.00  0.00    +0.220 C 
ATOM     21  O   UNL     1       1.133  -2.057   6.023  0.00  0.00    -0.275 OA
ATOM     22  H   UNL     1      -1.320  -1.143   4.387  0.00  0.00    +0.149 HD
BRANCH  20  23
ATOM     23  C   UNL     1      -1.066  -1.955   6.873  0.00  0.00    +0.048 C 
ATOM     24  C   UNL     1      -1.733  -0.606   7.148  0.00  0.00    +0.019 C 
ATOM     25  C   UNL     1      -2.786  -0.770   8.245  0.00  0.00    -0.009 C 
ATOM     26  C   UNL     1      -2.116  -1.278   9.523  0.00  0.00    +0.007 C 
ATOM     27  C   UNL     1      -1.450  -2.628   9.249  0.00  0.00    -0.009 C 
ATOM     28  C   UNL     1      -0.396  -2.463   8.152  0.00  0.00    +0.019 C 
ATOM     29  C   UNL     1      -2.508  -3.635   8.793  0.00  0.00    +0.007 C 
ATOM     30  C   UNL     1      -3.178  -3.128   7.514  0.00  0.00    -0.009 C 
ATOM     31  C   UNL     1      -3.844  -1.778   7.789  0.00  0.00    +0.007 C 
ATOM     32  C   UNL     1      -2.124  -2.963   6.418  0.00  0.00    +0.019 C 
ENDBRANCH  20  23
ENDBRANCH  18  19
ENDBRANCH   1  18
TORSDOF 8
