REMARK  Name = ZINC33782395
REMARK  9 active torsions:
REMARK  status: ('A' for Active; 'I' for Inactive)
REMARK    1  A    between atoms: C_1  and  C_2
REMARK    2  A    between atoms: C_2  and  C_3
REMARK    3  A    between atoms: C_3  and  C_4
REMARK    4  A    between atoms: C_4  and  N_5
REMARK    5  A    between atoms: N_5  and  C_6
REMARK    6  A    between atoms: C_6  and  C_7
REMARK    7  A    between atoms: C_21  and  C_23
REMARK    8  A    between atoms: N_31  and  C_32
REMARK    9  A    between atoms: C_35  and  C_38
REMARK                            x       y       z     vdW  Elec       q    Type
REMARK                         _______ _______ _______ _____ _____    ______ ____
ROOT
ATOM      1  C   UNL     1      -2.691   0.626   1.826  0.00  0.00    +0.238 C 
ATOM      2  O   UNL     1      -1.918  -0.273   2.084  0.00  0.00    -0.273 OA
ATOM      3  N   UNL     1      -4.020   0.409   1.881  0.00  0.00    -0.255 N 
ATOM      4  C   UNL     1      -4.508  -0.882   2.126  0.00  0.00    +0.061 A 
ATOM      5  C   UNL     1      -3.783  -1.996   1.733  0.00  0.00    +0.025 A 
ATOM      6  C   UNL     1      -4.272  -3.263   1.990  0.00  0.00    +0.002 A 
ATOM      7  C   UNL     1      -5.482  -3.428   2.639  0.00  0.00    +0.002 A 
ATOM      8  C   UNL     1      -6.217  -2.323   3.031  0.00  0.00    +0.028 A 
ATOM      9  C   UNL     1      -5.736  -1.054   2.773  0.00  0.00    +0.068 A 
ATOM     10  N   UNL     1      -6.455   0.096   3.130  0.00  0.00    -0.316 N 
ATOM     11  C   UNL     1      -7.525   0.239   3.948  0.00  0.00    +0.092 A 
ATOM     12  C   UNL     1      -7.858   1.549   3.981  0.00  0.00    +0.020 A 
ATOM     13  C   UNL     1      -6.953   2.240   3.146  0.00  0.00    +0.025 A 
ATOM     14  C   UNL     1      -6.110   1.336   2.637  0.00  0.00    +0.049 A 
ATOM     15  C   UNL     1      -4.956   1.529   1.688  0.00  0.00    +0.159 C 
ENDROOT
BRANCH  15  16
ATOM     16  C   UNL     1      -5.463   1.533   0.269  0.00  0.00    -0.021 A 
ATOM     17  C   UNL     1      -5.767   0.340  -0.360  0.00  0.00    +0.006 A 
ATOM     18  C   UNL     1      -6.236   0.344  -1.660  0.00  0.00    +0.000 A 
ATOM     19  C   UNL     1      -6.393   1.540  -2.335  0.00  0.00    +0.000 A 
ATOM     20  C   UNL     1      -6.084   2.732  -1.708  0.00  0.00    +0.000 A 
ATOM     21  C   UNL     1      -5.619   2.729  -0.406  0.00  0.00    +0.006 A 
ENDBRANCH  15  16
BRANCH   1  22
ATOM     22  C   UNL     1      -2.164   1.986   1.445  0.00  0.00    +0.205 C 
BRANCH  22  23
ATOM     23  N   UNL     1      -0.706   1.926   1.315  0.00  0.00    -0.277 N 
ATOM     24  C   UNL     1       0.076   2.172   2.384  0.00  0.00    +0.307 C 
ATOM     25  O   UNL     1      -0.428   2.444   3.456  0.00  0.00    -0.252 OA
ATOM     26  N   UNL     1       1.418   2.117   2.264  0.00  0.00    -0.269 N 
ATOM     27  H   UNL     1       1.873   1.788   1.318  0.00  0.00    +0.156 HD
BRANCH  26  28
ATOM     28  C   UNL     1       2.230   2.478   3.340  0.00  0.00    +0.035 A 
ATOM     29  C   UNL     1       1.821   3.483   4.211  0.00  0.00    +0.024 A 
ATOM     30  C   UNL     1       2.617   3.838   5.277  0.00  0.00    +0.020 A 
ATOM     31  C   UNL     1       3.842   3.195   5.477  0.00  0.00    +0.052 A 
ATOM     32  C   UNL     1       4.252   2.190   4.597  0.00  0.00    +0.020 A 
ATOM     33  C   UNL     1       3.448   1.836   3.536  0.00  0.00    +0.024 A 
BRANCH  31  34
ATOM     34  C   UNL     1       4.675   3.566   6.581  0.00  0.00    +0.099 C 
ATOM     35  N   UNL     1       5.336   3.860   7.457  0.00  0.00    -0.191 NA
ENDBRANCH  31  34
ENDBRANCH  26  28
BRANCH  23  36
ATOM     36  C   UNL     1      -0.099   1.599   0.022  0.00  0.00    +0.110 C 
BRANCH  36  37
ATOM     37  C   UNL     1       0.086   0.084  -0.086  0.00  0.00    +0.019 C 
BRANCH  37  39
ATOM     38  C   UNL     1       0.905  -1.773  -1.543  0.00  0.00    +0.004 C 
ATOM     39  C   UNL     1       0.720  -0.258  -1.435  0.00  0.00    -0.002 C 
ENDBRANCH  37  39
ENDBRANCH  36  37
ENDBRANCH  23  36
ENDBRANCH  22  23
ENDBRANCH   1  22
TORSDOF 8
