REMARK  Name = ZINC19691791
REMARK  10 active torsions:
REMARK  status: ('A' for Active; 'I' for Inactive)
REMARK    1  A    between atoms: C_1  and  C_2
REMARK    2  A    between atoms: C_3  and  C_24
REMARK    3  A    between atoms: C_4  and  C_13
REMARK    4  A    between atoms: C_5  and  C_9
REMARK    5  A    between atoms: C_6  and  C_8
REMARK    6  A    between atoms: C_9  and  O_11
REMARK    7  A    between atoms: O_11  and  C_12
REMARK    8  A    between atoms: C_14  and  C_15
REMARK    9  A    between atoms: C_24  and  O_26
REMARK   10  A    between atoms: O_26  and  C_27
REMARK                            x       y       z     vdW  Elec       q    Type
REMARK                         _______ _______ _______ _____ _____    ______ ____
ROOT
ATOM      1  C   UNL     1       3.913   8.938  -2.472  0.00  0.00    +0.061 C 
ATOM      2  C   UNL     1       4.024   8.145  -1.195  0.00  0.00    +0.016 C 
ATOM      3  C   UNL     1       3.616   6.864  -1.171  0.00  0.00    +0.065 C 
ATOM      4  C   UNL     1       3.716   6.034   0.077  0.00  0.00    +0.090 C 
ATOM      5  C   UNL     1       3.929   6.907   1.281  0.00  0.00    +0.065 C 
ATOM      6  C   UNL     1       4.325   8.185   1.159  0.00  0.00    +0.016 C 
ATOM      7  N   UNL     1       4.540   8.737  -0.074  0.00  0.00    -0.321 N 
ATOM      8  C   UNL     1       4.536   9.020   2.395  0.00  0.00    +0.061 C 
ATOM      9  H   UNL     1       5.129   9.662  -0.163  0.00  0.00    +0.152 HD
ENDROOT
BRANCH   4  10
ATOM     10  C   UNL     1       2.442   5.248   0.253  0.00  0.00    +0.007 C 
ATOM     11  C   UNL     1       2.478   3.921   0.272  0.00  0.00    +0.045 C 
ATOM     12 CL   UNL     1       3.992   3.091   0.093  0.00  0.00    -0.083 Cl
BRANCH  11  13
ATOM     13  C   UNL     1       1.228   3.150   0.445  0.00  0.00    -0.006 A 
ATOM     14  C   UNL     1       1.263   1.756   0.464  0.00  0.00    +0.011 A 
ATOM     15  C   UNL     1       0.094   1.041   0.625  0.00  0.00    +0.022 A 
ATOM     16  C   UNL     1      -1.114   1.705   0.762  0.00  0.00    +0.059 A 
ATOM     17  C   UNL     1      -1.154   3.090   0.749  0.00  0.00    +0.060 A 
ATOM     18  C   UNL     1       0.010   3.815   0.588  0.00  0.00    +0.030 A 
ATOM     19 CL   UNL     1      -2.671   3.914   0.927  0.00  0.00    -0.082 Cl
ATOM     20 CL   UNL     1      -2.581   0.798   0.958  0.00  0.00    -0.082 Cl
ENDBRANCH  11  13
ENDBRANCH   4  10
BRANCH   5  21
ATOM     21  C   UNL     1       3.708   6.372   2.571  0.00  0.00    +0.337 C 
ATOM     22  O   UNL     1       3.877   7.068   3.555  0.00  0.00    -0.245 OA
BRANCH  21  23
ATOM     23  O   UNL     1       3.310   5.090   2.712  0.00  0.00    -0.465 OA
ATOM     24  C   UNL     1       3.106   4.616   4.044  0.00  0.00    +0.280 C 
ENDBRANCH  21  23
ENDBRANCH   5  21
BRANCH   3  25
ATOM     25  C   UNL     1       3.080   6.287  -2.345  0.00  0.00    +0.337 C 
ATOM     26  O   UNL     1       3.741   5.492  -2.988  0.00  0.00    -0.245 OA
BRANCH  25  27
ATOM     27  O   UNL     1       1.837   6.617  -2.753  0.00  0.00    -0.465 OA
ATOM     28  C   UNL     1       1.360   5.996  -3.949  0.00  0.00    +0.280 C 
ENDBRANCH  25  27
ENDBRANCH   3  25
TORSDOF 6
