REMARK  Name = ZINC38736562
REMARK  9 active torsions:
REMARK  status: ('A' for Active; 'I' for Inactive)
REMARK    1  A    between atoms: C_1  and  C_2
REMARK    2  A    between atoms: C_2  and  C_3
REMARK    3  A    between atoms: C_3  and  C_4
REMARK    4  A    between atoms: C_4  and  O_5
REMARK    5  A    between atoms: O_5  and  C_6
REMARK    6  A    between atoms: C_6  and  C_8
REMARK    7  A    between atoms: C_8  and  C_10
REMARK    8  A    between atoms: C_8  and  S_11
REMARK    9  A    between atoms: S_11  and  C_12
REMARK                            x       y       z     vdW  Elec       q    Type
REMARK                         _______ _______ _______ _____ _____    ______ ____
ROOT
ATOM      1  C   UNL     1       3.622  -6.545  -4.927  0.00  0.00    +0.182 C 
ATOM      2  N   UNL     1       3.769  -5.651  -5.890  0.00  0.00    -0.151 NA
ATOM      3  C   UNL     1       4.446  -5.904  -7.010  0.00  0.00    +0.272 C 
ATOM      4  O   UNL     1       4.560  -5.056  -7.879  0.00  0.00    -0.268 OA
ATOM      5  C   UNL     1       5.064  -7.260  -7.169  0.00  0.00    +0.071 C 
ATOM      6  C   UNL     1       5.833  -7.701  -8.177  0.00  0.00    -0.042 C 
ATOM      7  C   UNL     1       6.362  -6.808  -9.297  0.00  0.00    +0.033 C 
ATOM      8  C   UNL     1       7.887  -6.977  -9.314  0.00  0.00    +0.004 C 
ATOM      9  C   UNL     1       8.254  -8.457  -9.405  0.00  0.00    +0.002 C 
ATOM     10  C   UNL     1       7.768  -9.215  -8.166  0.00  0.00    +0.019 C 
ATOM     11  C   UNL     1       6.238  -9.171  -8.135  0.00  0.00    +0.079 C 
ATOM     12  S   UNL     1       5.629  -9.686  -6.485  0.00  0.00    -0.097 S 
ATOM     13  C   UNL     1       4.821  -8.172  -6.030  0.00  0.00    +0.112 C 
ATOM     14  N   UNL     1       4.136  -7.774  -4.989  0.00  0.00    -0.217 NA
ENDROOT
BRANCH   1  15
ATOM     15  S   UNL     1       2.710  -6.088  -3.490  0.00  0.00    -0.074 S 
BRANCH  15  16
ATOM     16  C   UNL     1       2.205  -4.377  -3.817  0.00  0.00    +0.159 C 
ATOM     17  C   UNL     1       1.246  -4.347  -5.009  0.00  0.00    +0.031 C 
BRANCH  16  18
ATOM     18  C   UNL     1       1.512  -3.817  -2.601  0.00  0.00    +0.320 C 
ATOM     19  O   UNL     1       1.051  -4.564  -1.771  0.00  0.00    -0.250 OA
BRANCH  18  20
ATOM     20  O   UNL     1       1.408  -2.488  -2.441  0.00  0.00    -0.464 OA
BRANCH  20  21
ATOM     21  C   UNL     1       0.739  -2.027  -1.265  0.00  0.00    +0.232 C 
BRANCH  21  22
ATOM     22  C   UNL     1       0.718  -0.497  -1.257  0.00  0.00    +0.041 C 
BRANCH  22  24
ATOM     23  C   UNL     1      -0.019   1.526   0.010  0.00  0.00    +0.004 C 
ATOM     24  C   UNL     1       0.002  -0.004   0.002  0.00  0.00    -0.000 C 
ENDBRANCH  22  24
ENDBRANCH  21  22
ENDBRANCH  20  21
ENDBRANCH  18  20
ENDBRANCH  16  18
ENDBRANCH  15  16
ENDBRANCH   1  15
TORSDOF 7
