REMARK  Name = ZINC02094435
REMARK  13 active torsions:
REMARK  status: ('A' for Active; 'I' for Inactive)
REMARK    1  A    between atoms: C_1  and  C_2
REMARK    2  A    between atoms: C_2  and  C_3
REMARK    3  A    between atoms: C_3  and  C_5
REMARK    4  A    between atoms: C_3  and  C_6
REMARK    5  A    between atoms: C_6  and  C_8
REMARK    6  A    between atoms: C_6  and  N_28
REMARK    7  A    between atoms: C_8  and  O_10
REMARK    8  A    between atoms: O_10  and  C_11
REMARK    9  A    between atoms: C_18  and  O_26
REMARK   10  A    between atoms: O_26  and  C_27
REMARK   11  A    between atoms: N_28  and  S_29
REMARK   12  A    between atoms: S_29  and  C_32
REMARK   13  A    between atoms: C_35  and  C_38
REMARK                            x       y       z     vdW  Elec       q    Type
REMARK                         _______ _______ _______ _____ _____    ______ ____
ROOT
ATOM      1  C   UNL     1      -0.911  11.969   1.598  0.00  0.00    +0.331 C 
ATOM      2  O   UNL     1      -0.362  11.504   0.628  0.00  0.00    -0.249 OA
ENDROOT
BRANCH   1   3
ATOM      3  C   UNL     1      -0.914  13.460   1.819  0.00  0.00    +0.188 C 
BRANCH   3   4
ATOM      4  C   UNL     1      -2.357  13.967   1.855  0.00  0.00    +0.015 C 
ATOM      5  C   UNL     1      -3.075  13.377   3.069  0.00  0.00    +0.009 C 
BRANCH   4   7
ATOM      6  C   UNL     1      -4.482  14.151   0.554  0.00  0.00    +0.004 C 
ATOM      7  C   UNL     1      -3.079  13.539   0.576  0.00  0.00    +0.002 C 
ENDBRANCH   4   7
ENDBRANCH   3   4
BRANCH   3   8
ATOM      8  N   UNL     1      -0.192  14.117   0.727  0.00  0.00    -0.176 NA
ATOM      9  H   UNL     1      -0.242  13.758  -0.173  0.00  0.00    +0.149 HD
BRANCH   8  10
ATOM     10  S   UNL     1       0.710  15.473   1.028  0.00  0.00    +0.059 S 
ATOM     11  O   UNL     1       1.300  15.851  -0.208  0.00  0.00    -0.153 OA
ATOM     12  O   UNL     1      -0.116  16.352   1.779  0.00  0.00    -0.153 OA
BRANCH  10  13
ATOM     13  C   UNL     1       2.032  14.994   2.091  0.00  0.00    +0.105 A 
ATOM     14  C   UNL     1       1.871  15.052   3.463  0.00  0.00    +0.029 A 
ATOM     15  C   UNL     1       2.907  14.672   4.296  0.00  0.00    +0.005 A 
ATOM     16  C   UNL     1       4.106  14.244   3.758  0.00  0.00    -0.050 A 
ATOM     17  C   UNL     1       4.268  14.190   2.386  0.00  0.00    +0.005 A 
ATOM     18  C   UNL     1       3.231  14.566   1.553  0.00  0.00    +0.029 A 
ATOM     19  C   UNL     1       5.236  13.834   4.667  0.00  0.00    +0.044 C 
ENDBRANCH  10  13
ENDBRANCH   8  10
ENDBRANCH   3   8
ENDBRANCH   1   3
BRANCH   1  20
ATOM     20  O   UNL     1      -1.518  11.159   2.480  0.00  0.00    -0.425 OA
BRANCH  20  21
ATOM     21  C   UNL     1      -1.376   9.821   2.287  0.00  0.00    +0.135 A 
ATOM     22  C   UNL     1      -0.135   9.224   2.478  0.00  0.00    +0.047 A 
ATOM     23  C   UNL     1       0.016   7.868   2.285  0.00  0.00    +0.016 A 
ATOM     24  C   UNL     1      -1.079   7.096   1.898  0.00  0.00    +0.026 A 
ATOM     25  C   UNL     1      -0.936   5.642   1.686  0.00  0.00    -0.000 A 
ATOM     26  C   UNL     1       0.278   4.989   1.862  0.00  0.00    +0.013 A 
ATOM     27  C   UNL     1       0.357   3.628   1.650  0.00  0.00    +0.046 A 
ATOM     28  C   UNL     1      -0.767   2.906   1.263  0.00  0.00    +0.121 A 
ATOM     29  C   UNL     1      -1.982   3.541   1.078  0.00  0.00    +0.061 A 
ATOM     30  C   UNL     1      -2.079   4.914   1.293  0.00  0.00    +0.071 A 
ATOM     31  C   UNL     1      -3.346   5.638   1.117  0.00  0.00    +0.345 A 
ATOM     32  O   UNL     1      -4.346   5.035   0.778  0.00  0.00    -0.245 OA
ATOM     33  O   UNL     1      -3.405   6.963   1.327  0.00  0.00    -0.422 OA
ATOM     34  C   UNL     1      -2.332   7.694   1.704  0.00  0.00    +0.143 A 
ATOM     35  C   UNL     1      -2.468   9.062   1.903  0.00  0.00    +0.093 A 
BRANCH  28  36
ATOM     36  O   UNL     1      -0.670   1.565   1.059  0.00  0.00    -0.495 OA
ATOM     37  C   UNL     1       0.614   0.970   1.261  0.00  0.00    +0.277 C 
ENDBRANCH  28  36
ENDBRANCH  20  21
ENDBRANCH   1  20
TORSDOF 9
