REMARK  Name = ZINC61686328
REMARK  9 active torsions:
REMARK  status: ('A' for Active; 'I' for Inactive)
REMARK    1  A    between atoms: C_1  and  C_2
REMARK    2  A    between atoms: C_2  and  C_4
REMARK    3  A    between atoms: C_2  and  N_20
REMARK    4  A    between atoms: C_4  and  C_6
REMARK    5  A    between atoms: C_4  and  C_17
REMARK    6  A    between atoms: C_6  and  C_7
REMARK    7  A    between atoms: C_12  and  N_13
REMARK    8  A    between atoms: C_17  and  C_18
REMARK    9  A    between atoms: C_17  and  C_19
REMARK                            x       y       z     vdW  Elec       q    Type
REMARK                         _______ _______ _______ _____ _____    ______ ____
ROOT
ATOM      1  C   UNL     1      -3.352  -1.224   0.690  0.00  0.00    +0.039 C 
ENDROOT
BRANCH   1   2
ATOM      2  C   UNL     1      -4.589  -2.067   0.521  0.00  0.00    -0.017 A 
ATOM      3  C   UNL     1      -4.486  -3.356   0.029  0.00  0.00    +0.007 A 
ATOM      4  C   UNL     1      -5.620  -4.130  -0.127  0.00  0.00    +0.020 A 
ATOM      5  C   UNL     1      -6.860  -3.615   0.210  0.00  0.00    +0.043 A 
ATOM      6  C   UNL     1      -6.963  -2.327   0.703  0.00  0.00    +0.053 A 
ATOM      7  C   UNL     1      -5.827  -1.555   0.862  0.00  0.00    +0.131 A 
ATOM      8 CL   UNL     1      -8.285  -4.587   0.015  0.00  0.00    -0.083 Cl
BRANCH   7   9
ATOM      9  N   UNL     1      -5.936  -0.178   1.395  0.00  0.00    +0.057 N 
ATOM     10  O   UNL     1      -7.023   0.334   1.526  0.00  0.00    -0.126 OA
ATOM     11  O   UNL     1      -4.939   0.433   1.698  0.00  0.00    -0.126 OA
ENDBRANCH   7   9
ENDBRANCH   1   2
BRANCH   1  12
ATOM     12  C   UNL     1      -2.220  -1.803  -0.161  0.00  0.00    -0.019 C 
BRANCH  12  13
ATOM     13  C   UNL     1      -2.409  -1.377  -1.618  0.00  0.00    -0.015 C 
ATOM     14  C   UNL     1      -1.286  -1.970  -2.472  0.00  0.00    +0.007 C 
ATOM     15  C   UNL     1      -3.759  -1.885  -2.127  0.00  0.00    +0.007 C 
ENDBRANCH  12  13
BRANCH  12  17
ATOM     16  C   UNL     1      -0.779   0.223   0.086  0.00  0.00    -0.014 C 
ATOM     17  C   UNL     1      -0.877  -1.280   0.353  0.00  0.00    -0.075 C 
BRANCH  17  18
ATOM     18  N   UNL     1       0.216  -1.973  -0.342  0.00  0.00    +0.380 N 
ATOM     19  H   UNL     1       1.068  -1.876   0.191  0.00  0.00    -0.090 HD
ATOM     20  H   UNL     1      -0.011  -2.951  -0.436  0.00  0.00    -0.090 HD
ATOM     21  H   UNL     1       0.344  -1.567  -1.257  0.00  0.00    -0.090 HD
ENDBRANCH  17  18
ENDBRANCH  12  17
ENDBRANCH   1  12
TORSDOF 6
