REMARK  Name = ZINC06134586
REMARK  13 active torsions:
REMARK  status: ('A' for Active; 'I' for Inactive)
REMARK    1  A    between atoms: C_1  and  C_2
REMARK    2  A    between atoms: C_2  and  C_3
REMARK    3  A    between atoms: C_2  and  C_4
REMARK    4  A    between atoms: C_4  and  C_5
REMARK    5  A    between atoms: C_5  and  N_6
REMARK    6  A    between atoms: C_7  and  C_9
REMARK    7  A    between atoms: C_9  and  C_11
REMARK    8  A    between atoms: C_9  and  N_16
REMARK    9  A    between atoms: N_16  and  C_17
REMARK   10  A    between atoms: C_17  and  C_18
REMARK   11  A    between atoms: C_23  and  C_25
REMARK   12  A    between atoms: C_25  and  N_26
REMARK   13  A    between atoms: C_28  and  C_31
REMARK                            x       y       z     vdW  Elec       q    Type
REMARK                         _______ _______ _______ _____ _____    ______ ____
ROOT
ATOM      1  N   UNL     1      -0.480   1.285   5.389  0.00  0.00    -0.274 N 
ATOM      2  C   UNL     1      -1.530   1.290   6.234  0.00  0.00    +0.240 C 
ATOM      3  O   UNL     1      -2.647   1.068   5.816  0.00  0.00    -0.273 OA
ENDROOT
BRANCH   1   4
ATOM      4  C   UNL     1      -0.681   0.966   3.973  0.00  0.00    +0.229 C 
BRANCH   4   5
ATOM      5  C   UNL     1      -0.120   2.077   3.124  0.00  0.00    +0.134 A 
ATOM      6  C   UNL     1      -0.755   2.688   2.107  0.00  0.00    +0.047 A 
ATOM      7  C   UNL     1       0.132   3.663   1.597  0.00  0.00    +0.041 A 
ATOM      8  C   UNL     1       1.260   3.584   2.326  0.00  0.00    +0.195 A 
ATOM      9  O   UNL     1       1.101   2.622   3.249  0.00  0.00    -0.465 OA
ENDBRANCH   4   5
BRANCH   4  11
ATOM     10  N   UNL     1      -0.023  -0.817   2.390  0.00  0.00    -0.313 N 
ATOM     11  C   UNL     1       0.025  -0.324   3.643  0.00  0.00    +0.241 C 
ATOM     12  O   UNL     1       0.635  -0.919   4.506  0.00  0.00    -0.273 OA
ATOM     13  H   UNL     1      -0.511  -0.341   1.700  0.00  0.00    +0.149 HD
BRANCH  10  14
ATOM     14  C   UNL     1       0.663  -2.071   2.069  0.00  0.00    +0.104 C 
BRANCH  14  15
ATOM     15  C   UNL     1       0.453  -2.403   0.591  0.00  0.00    +0.022 C 
BRANCH  15  17
ATOM     16  C   UNL     1       0.858  -4.110  -1.188  0.00  0.00    +0.007 C 
ATOM     17  C   UNL     1       1.170  -3.713   0.256  0.00  0.00    -0.016 C 
ATOM     18  C   UNL     1       2.679  -3.524   0.418  0.00  0.00    +0.007 C 
ENDBRANCH  15  17
ENDBRANCH  14  15
ENDBRANCH  10  14
ENDBRANCH   4  11
ENDBRANCH   1   4
BRANCH   1  19
ATOM     19  C   UNL     1       0.862   1.598   5.886  0.00  0.00    +0.183 C 
BRANCH  19  20
ATOM     20  C   UNL     1       1.470   0.364   6.502  0.00  0.00    +0.122 A 
ATOM     21  C   UNL     1       2.438  -0.393   5.955  0.00  0.00    +0.046 A 
ATOM     22  C   UNL     1       2.704  -1.440   6.867  0.00  0.00    +0.041 A 
ATOM     23  C   UNL     1       1.882  -1.260   7.917  0.00  0.00    +0.195 A 
ATOM     24  O   UNL     1       1.141  -0.163   7.693  0.00  0.00    -0.466 OA
ENDBRANCH  19  20
ENDBRANCH   1  19
BRANCH   2  25
ATOM     25  C   UNL     1      -1.317   1.570   7.699  0.00  0.00    +0.264 C 
BRANCH  25  26
ATOM     26  N   UNL     1      -2.573   1.364   8.424  0.00  0.00    -0.154 N 
ATOM     27  N   UNL     1      -3.465   2.268   8.642  0.00  0.00    -0.130 NA
ATOM     28  C   UNL     1      -4.448   1.710   9.319  0.00  0.00    +0.205 A 
ATOM     29  N   UNL     1      -4.105   0.428   9.508  0.00  0.00    -0.108 NA
ATOM     30  N   UNL     1      -2.956   0.253   8.949  0.00  0.00    -0.045 NA
BRANCH  28  31
ATOM     31  C   UNL     1      -5.692   2.373   9.787  0.00  0.00    +0.023 A 
ATOM     32  C   UNL     1      -5.907   3.723   9.518  0.00  0.00    +0.014 A 
ATOM     33  C   UNL     1      -7.066   4.334   9.950  0.00  0.00    +0.039 A 
ATOM     34  C   UNL     1      -8.010   3.610  10.660  0.00  0.00    +0.123 A 
ATOM     35  C   UNL     1      -7.798   2.269  10.934  0.00  0.00    +0.039 A 
ATOM     36  C   UNL     1      -6.644   1.649  10.500  0.00  0.00    +0.014 A 
ATOM     37  F   UNL     1      -9.141   4.214  11.086  0.00  0.00    -0.205 F 
ENDBRANCH  28  31
ENDBRANCH  25  26
ENDBRANCH   2  25
TORSDOF 11
