REMARK  Name = ZINC35041334
REMARK  14 active torsions:
REMARK  status: ('A' for Active; 'I' for Inactive)
REMARK    1  A    between atoms: C_1  and  C_2
REMARK    2  A    between atoms: C_2  and  C_4
REMARK    3  A    between atoms: C_2  and  N_23
REMARK    4  A    between atoms: N_14  and  C_15
REMARK    5  A    between atoms: C_18  and  O_21
REMARK    6  A    between atoms: O_21  and  C_22
REMARK    7  A    between atoms: N_23  and  C_24
REMARK    8  A    between atoms: C_24  and  C_25
REMARK    9  A    between atoms: C_25  and  C_26
REMARK   10  A    between atoms: C_25  and  C_27
REMARK   11  A    between atoms: N_30  and  C_31
REMARK   12  A    between atoms: C_31  and  C_32
REMARK   13  A    between atoms: C_31  and  C_33
REMARK   14  A    between atoms: C_31  and  C_34
REMARK                            x       y       z     vdW  Elec       q    Type
REMARK                         _______ _______ _______ _____ _____    ______ ____
ROOT
ATOM      1  C   UNL     1      -1.352  -0.948  -0.060  0.00  0.00    +0.138 A 
ATOM      2  N   UNL     1      -2.218  -0.651  -0.981  0.00  0.00    -0.231 NA
ATOM      3  C   UNL     1      -3.552  -0.689  -0.742  0.00  0.00    +0.078 A 
ATOM      4  C   UNL     1      -4.484  -0.371  -1.732  0.00  0.00    +0.028 A 
ATOM      5  C   UNL     1      -5.829  -0.423  -1.445  0.00  0.00    +0.002 A 
ATOM      6  C   UNL     1      -6.273  -0.789  -0.181  0.00  0.00    +0.001 A 
ATOM      7  C   UNL     1      -5.374  -1.107   0.812  0.00  0.00    +0.015 A 
ATOM      8  C   UNL     1      -4.008  -1.061   0.543  0.00  0.00    +0.065 A 
ATOM      9  C   UNL     1      -3.002  -1.390   1.563  0.00  0.00    +0.266 A 
ATOM     10  O   UNL     1      -3.328  -1.718   2.689  0.00  0.00    -0.267 OA
ATOM     11  N   UNL     1      -1.700  -1.320   1.201  0.00  0.00    -0.263 N 
ENDROOT
BRANCH  11  12
ATOM     12  C   UNL     1      -0.701  -1.630   2.135  0.00  0.00    +0.051 A 
ATOM     13  C   UNL     1      -0.148  -0.626   2.918  0.00  0.00    +0.030 A 
ATOM     14  C   UNL     1       0.835  -0.931   3.838  0.00  0.00    +0.047 A 
ATOM     15  C   UNL     1       1.272  -2.241   3.978  0.00  0.00    +0.120 A 
ATOM     16  C   UNL     1       0.720  -3.244   3.195  0.00  0.00    +0.047 A 
ATOM     17  C   UNL     1      -0.269  -2.941   2.280  0.00  0.00    +0.030 A 
BRANCH  15  18
ATOM     18  O   UNL     1       2.240  -2.541   4.883  0.00  0.00    -0.495 OA
ATOM     19  C   UNL     1       2.641  -3.909   4.975  0.00  0.00    +0.277 C 
ENDBRANCH  15  18
ENDBRANCH  11  12
BRANCH   1  21
ATOM     20  C   UNL     1       0.441   0.502  -0.972  0.00  0.00    +0.036 C 
ATOM     21  C   UNL     1       0.113  -0.881  -0.407  0.00  0.00    +0.141 C 
BRANCH  21  22
ATOM     22  N   UNL     1       0.424  -1.904  -1.409  0.00  0.00    -0.276 N 
ATOM     23  C   UNL     1       1.330  -2.864  -1.134  0.00  0.00    +0.303 C 
ATOM     24  O   UNL     1       1.889  -2.880  -0.054  0.00  0.00    -0.253 OA
ATOM     25  N   UNL     1       1.616  -3.804  -2.055  0.00  0.00    -0.294 N 
ATOM     26  H   UNL     1       1.170  -3.791  -2.917  0.00  0.00    +0.151 HD
BRANCH  25  27
ATOM     27  C   UNL     1       2.601  -4.847  -1.756  0.00  0.00    +0.028 C 
ATOM     28  C   UNL     1       2.139  -5.651  -0.539  0.00  0.00    +0.031 C 
ATOM     29  C   UNL     1       2.737  -5.780  -2.961  0.00  0.00    +0.031 C 
ATOM     30  C   UNL     1       3.954  -4.200  -1.456  0.00  0.00    +0.031 C 
ENDBRANCH  25  27
BRANCH  22  31
ATOM     31  C   UNL     1      -0.249  -1.884  -2.710  0.00  0.00    +0.113 C 
BRANCH  31  32
ATOM     32  C   UNL     1       0.565  -1.040  -3.693  0.00  0.00    +0.000 C 
ATOM     33  C   UNL     1       1.915  -1.712  -3.946  0.00  0.00    +0.009 C 
ATOM     34  C   UNL     1      -0.199  -0.915  -5.013  0.00  0.00    +0.009 C 
ENDBRANCH  31  32
ENDBRANCH  22  31
ENDBRANCH  21  22
ENDBRANCH   1  21
TORSDOF 7
