REMARK  Name = ZINC67485965
REMARK  6 active torsions:
REMARK  status: ('A' for Active; 'I' for Inactive)
REMARK    1  A    between atoms: C_3  and  C_8
REMARK    2  A    between atoms: C_8  and  C_9
REMARK    3  A    between atoms: C_11  and  C_14
REMARK    4  A    between atoms: C_14  and  N_15
REMARK    5  A    between atoms: C_17  and  O_25
REMARK    6  A    between atoms: C_20  and  C_22
REMARK                            x       y       z     vdW  Elec       q    Type
REMARK                         _______ _______ _______ _____ _____    ______ ____
ROOT
ATOM      1  C   UNL     1       4.199   4.405   4.436  0.00  0.00    +0.023 C 
ENDROOT
BRANCH   1   2
ATOM      2  N   UNL     1       3.041   4.053   5.269  0.00  0.00    +0.395 N 
ATOM      3  C   UNL     1       3.307   2.801   6.009  0.00  0.00    -0.045 C 
ATOM      4  C   UNL     1       2.632   2.938   7.386  0.00  0.00    +0.097 C 
ATOM      5  C   UNL     1       2.001   4.350   7.388  0.00  0.00    +0.023 C 
ATOM      6  C   UNL     1       2.818   5.096   6.303  0.00  0.00    +0.022 C 
ATOM      7  H   UNL     1       2.217   3.951   4.694  0.00  0.00    -0.080 HD
BRANCH   6   8
ATOM      8  C   UNL     1       2.025   6.246   5.737  0.00  0.00    +0.197 C 
ATOM      9  O   UNL     1       1.667   6.223   4.579  0.00  0.00    -0.278 OA
ATOM     10  N   UNL     1       1.715   7.300   6.519  0.00  0.00    -0.331 N 
ATOM     11  H   UNL     1       2.002   7.317   7.445  0.00  0.00    +0.145 HD
ATOM     12  H   UNL     1       1.205   8.040   6.154  0.00  0.00    +0.145 HD
ENDBRANCH   6   8
BRANCH   4  13
ATOM     13  O   UNL     1       1.621   1.941   7.545  0.00  0.00    -0.394 OA
ATOM     14  H   UNL     1       1.162   1.979   8.395  0.00  0.00    +0.210 HD
ENDBRANCH   4  13
ENDBRANCH   1   2
BRANCH   1  17
ATOM     15  C   UNL     1       4.117   2.433   1.396  0.00  0.00    +0.176 A 
ATOM     16  N   UNL     1       3.785   3.494   2.140  0.00  0.00    -0.197 NA
ATOM     17  C   UNL     1       4.337   3.404   3.318  0.00  0.00    +0.211 A 
ATOM     18  O   UNL     1       5.046   2.270   3.364  0.00  0.00    -0.340 OA
ATOM     19  N   UNL     1       4.883   1.649   2.098  0.00  0.00    -0.061 NA
BRANCH  15  20
ATOM     20  C   UNL     1       3.672   2.183  -0.022  0.00  0.00    +0.114 C 
BRANCH  20  23
ATOM     21  C   UNL     1      -0.017   1.378   0.010  0.00  0.00    +0.001 A 
ATOM     22  C   UNL     1       1.171   2.086   0.002  0.00  0.00    +0.004 A 
ATOM     23  C   UNL     1       2.378   1.411  -0.013  0.00  0.00    -0.039 A 
ATOM     24  C   UNL     1       2.397   0.029  -0.022  0.00  0.00    +0.019 A 
ATOM     25  C   UNL     1       1.210  -0.679  -0.014  0.00  0.00    +0.018 A 
ATOM     26  C   UNL     1       0.002  -0.004   0.002  0.00  0.00    +0.015 A 
ATOM     27 BR   UNL     1       1.236  -2.570  -0.025  0.00  0.00    -0.050 Br
ENDBRANCH  20  23
ENDBRANCH  15  20
ENDBRANCH   1  17
TORSDOF 6
