REMARK  Name = ZINC13032029
REMARK  15 active torsions:
REMARK  status: ('A' for Active; 'I' for Inactive)
REMARK    1  A    between atoms: C_1  and  C_2
REMARK    2  A    between atoms: C_2  and  C_3
REMARK    3  A    between atoms: C_3  and  C_4
REMARK    4  A    between atoms: C_3  and  C_5
REMARK    5  A    between atoms: C_3  and  N_6
REMARK    6  A    between atoms: C_7  and  C_9
REMARK    7  A    between atoms: C_9  and  C_11
REMARK    8  A    between atoms: C_9  and  N_17
REMARK    9  A    between atoms: C_14  and  C_16
REMARK   10  A    between atoms: N_17  and  C_18
REMARK   11  A    between atoms: C_18  and  C_19
REMARK   12  A    between atoms: C_24  and  O_25
REMARK   13  A    between atoms: O_25  and  C_26
REMARK   14  A    between atoms: C_27  and  C_29
REMARK   15  A    between atoms: C_29  and  N_30
REMARK                            x       y       z     vdW  Elec       q    Type
REMARK                         _______ _______ _______ _____ _____    ______ ____
ROOT
ATOM      1  N   UNL     1      -2.970   0.377  -1.186  0.00  0.00    -0.277 N 
ATOM      2  C   UNL     1      -2.641   1.508  -1.841  0.00  0.00    +0.238 C 
ATOM      3  O   UNL     1      -3.214   1.803  -2.868  0.00  0.00    -0.274 OA
ENDROOT
BRANCH   1   4
ATOM      4  C   UNL     1      -3.916  -0.568  -1.786  0.00  0.00    +0.228 C 
BRANCH   4   5
ATOM      5  C   UNL     1      -3.291  -1.938  -1.841  0.00  0.00    +0.135 A 
ATOM      6  C   UNL     1      -3.195  -2.716  -2.934  0.00  0.00    +0.047 A 
ATOM      7  C   UNL     1      -2.541  -3.904  -2.535  0.00  0.00    +0.045 A 
ATOM      8  C   UNL     1      -2.284  -3.785  -1.220  0.00  0.00    +0.102 A 
ATOM      9  O   UNL     1      -2.741  -2.592  -0.805  0.00  0.00    -0.462 OA
ATOM     10  C   UNL     1      -1.601  -4.816  -0.358  0.00  0.00    +0.086 C 
ENDBRANCH   4   5
BRANCH   4  12
ATOM     11  N   UNL     1      -6.187  -1.427  -1.315  0.00  0.00    -0.308 N 
ATOM     12  C   UNL     1      -5.170  -0.620  -0.952  0.00  0.00    +0.242 C 
ATOM     13  O   UNL     1      -5.265   0.064   0.045  0.00  0.00    -0.273 OA
ATOM     14  H   UNL     1      -6.111  -1.975  -2.112  0.00  0.00    +0.149 HD
BRANCH  11  15
ATOM     15  C   UNL     1      -7.406  -1.479  -0.504  0.00  0.00    +0.029 C 
ATOM     16  C   UNL     1      -7.057  -1.937   0.913  0.00  0.00    +0.031 C 
ATOM     17  C   UNL     1      -8.040  -0.088  -0.449  0.00  0.00    +0.031 C 
BRANCH  15  19
ATOM     18  C   UNL     1      -9.667  -2.519  -0.284  0.00  0.00    +0.006 C 
ATOM     19  C   UNL     1      -8.394  -2.465  -1.131  0.00  0.00    +0.022 C 
ENDBRANCH  15  19
ENDBRANCH  11  15
ENDBRANCH   4  12
ENDBRANCH   1   4
BRANCH   1  20
ATOM     20  C   UNL     1      -2.382   0.092   0.125  0.00  0.00    +0.147 C 
BRANCH  20  21
ATOM     21  C   UNL     1      -0.880   0.087   0.012  0.00  0.00    +0.012 A 
ATOM     22  C   UNL     1      -0.246  -0.880  -0.744  0.00  0.00    +0.009 A 
ATOM     23  C   UNL     1       1.132  -0.885  -0.849  0.00  0.00    +0.001 A 
ATOM     24  C   UNL     1       1.881   0.079  -0.198  0.00  0.00    +0.004 A 
ATOM     25  C   UNL     1       1.252   1.052   0.554  0.00  0.00    +0.046 A 
ATOM     26  C   UNL     1      -0.131   1.055   0.665  0.00  0.00    +0.125 A 
BRANCH  26  27
ATOM     27  O   UNL     1      -0.752   2.008   1.409  0.00  0.00    -0.495 OA
ATOM     28  C   UNL     1       0.084   2.912   2.135  0.00  0.00    +0.277 C 
ENDBRANCH  26  27
ENDBRANCH  20  21
ENDBRANCH   1  20
BRANCH   2  29
ATOM     29  C   UNL     1      -1.560   2.407  -1.296  0.00  0.00    +0.241 C 
BRANCH  29  30
ATOM     30  N   UNL     1      -1.576   3.682  -2.017  0.00  0.00    -0.235 N 
ATOM     31  C   UNL     1      -0.871   3.992  -3.155  0.00  0.00    +0.090 A 
ATOM     32  C   UNL     1       0.012   3.288  -3.967  0.00  0.00    +0.029 A 
ATOM     33  C   UNL     1       0.555   3.893  -5.066  0.00  0.00    +0.002 A 
ATOM     34  C   UNL     1       0.229   5.206  -5.383  0.00  0.00    +0.002 A 
ATOM     35  C   UNL     1      -0.638   5.916  -4.606  0.00  0.00    +0.032 A 
ATOM     36  C   UNL     1      -1.209   5.319  -3.474  0.00  0.00    +0.113 A 
ATOM     37  N   UNL     1      -2.076   5.756  -2.539  0.00  0.00    -0.129 NA
ATOM     38  N   UNL     1      -2.310   4.829  -1.678  0.00  0.00    -0.064 NA
ENDBRANCH  29  30
ENDBRANCH   2  29
TORSDOF 10
