REMARK  Name = ZINC00648626
REMARK  12 active torsions:
REMARK  status: ('A' for Active; 'I' for Inactive)
REMARK    1  A    between atoms: C_1  and  C_2
REMARK    2  A    between atoms: C_3  and  C_33
REMARK    3  A    between atoms: C_4  and  C_16
REMARK    4  A    between atoms: C_10  and  C_14
REMARK    5  A    between atoms: C_10  and  C_15
REMARK    6  A    between atoms: C_19  and  O_31
REMARK    7  A    between atoms: C_20  and  C_22
REMARK    8  A    between atoms: C_22  and  O_23
REMARK    9  A    between atoms: O_23  and  C_24
REMARK   10  A    between atoms: O_31  and  C_32
REMARK   11  A    between atoms: C_33  and  O_35
REMARK   12  A    between atoms: O_35  and  C_36
REMARK                            x       y       z     vdW  Elec       q    Type
REMARK                         _______ _______ _______ _____ _____    ______ ____
ROOT
ATOM      1  C   UNL     1      -0.013   1.086   0.008  0.00  0.00    +0.061 C 
ATOM      2  C   UNL     1      -0.718   1.572   1.248  0.00  0.00    +0.016 C 
ATOM      3  C   UNL     1      -0.849   2.892   1.467  0.00  0.00    +0.065 C 
ATOM      4  C   UNL     1      -1.556   3.412   2.684  0.00  0.00    +0.092 C 
ATOM      5  C   UNL     1      -1.660   2.345   3.745  0.00  0.00    +0.024 C 
ATOM      6  C   UNL     1      -1.497   1.042   3.431  0.00  0.00    +0.016 C 
ATOM      7  N   UNL     1      -1.215   0.668   2.144  0.00  0.00    -0.321 N 
ATOM      8  C   UNL     1      -1.623  -0.032   4.482  0.00  0.00    +0.058 C 
ATOM      9  C   UNL     1      -1.177   0.521   5.838  0.00  0.00    -0.023 C 
ATOM     10  C   UNL     1      -2.046   1.737   6.177  0.00  0.00    +0.086 C 
ATOM     11  C   UNL     1      -1.934   2.744   5.065  0.00  0.00    +0.162 C 
ATOM     12  O   UNL     1      -2.084   3.925   5.312  0.00  0.00    -0.292 OA
ATOM     13  C   UNL     1       0.292   0.944   5.762  0.00  0.00    +0.011 C 
ATOM     14  C   UNL     1      -1.349  -0.550   6.917  0.00  0.00    +0.011 C 
ATOM     15  H   UNL     1      -1.393  -0.373   1.835  0.00  0.00    +0.152 HD
ENDROOT
BRANCH   4  16
ATOM     16  C   UNL     1      -2.941   3.865   2.301  0.00  0.00    -0.035 A 
ATOM     17  C   UNL     1      -3.843   2.958   1.776  0.00  0.00    +0.008 A 
ATOM     18  C   UNL     1      -5.115   3.370   1.429  0.00  0.00    +0.046 A 
ATOM     19  C   UNL     1      -5.484   4.697   1.597  0.00  0.00    +0.126 A 
ATOM     20  C   UNL     1      -4.575   5.606   2.118  0.00  0.00    +0.032 A 
ATOM     21  C   UNL     1      -3.306   5.188   2.469  0.00  0.00    +0.015 A 
BRANCH  19  22
ATOM     22  O   UNL     1      -6.733   5.105   1.251  0.00  0.00    -0.495 OA
ATOM     23  C   UNL     1      -7.616   4.115   0.720  0.00  0.00    +0.277 C 
ENDBRANCH  19  22
BRANCH  20  24
ATOM     24  C   UNL     1      -4.972   7.048   2.302  0.00  0.00    +0.268 C 
BRANCH  24  25
ATOM     25  O   UNL     1      -3.873   7.778   2.850  0.00  0.00    -0.486 OA
BRANCH  25  26
ATOM     26  C   UNL     1      -4.066   9.104   3.079  0.00  0.00    +0.139 A 
ATOM     27  C   UNL     1      -5.286   9.691   2.777  0.00  0.00    +0.047 A 
ATOM     28  C   UNL     1      -5.481  11.038   3.016  0.00  0.00    +0.004 A 
ATOM     29  C   UNL     1      -4.458  11.803   3.545  0.00  0.00    +0.002 A 
ATOM     30  C   UNL     1      -3.239  11.223   3.841  0.00  0.00    +0.023 A 
ATOM     31  C   UNL     1      -3.040   9.875   3.609  0.00  0.00    +0.083 A 
ATOM     32 CL   UNL     1      -1.509   9.146   3.981  0.00  0.00    -0.080 Cl
ENDBRANCH  25  26
ENDBRANCH  24  25
ENDBRANCH  20  24
ENDBRANCH   4  16
BRANCH   3  33
ATOM     33  C   UNL     1      -0.316   3.807   0.530  0.00  0.00    +0.337 C 
ATOM     34  O   UNL     1       0.256   3.397  -0.463  0.00  0.00    -0.245 OA
BRANCH  33  35
ATOM     35  O   UNL     1      -0.440   5.135   0.738  0.00  0.00    -0.465 OA
ATOM     36  C   UNL     1       0.123   6.001  -0.249  0.00  0.00    +0.280 C 
ENDBRANCH  33  35
ENDBRANCH   3  33
TORSDOF 7
