REMARK  Name = ZINC08769955
REMARK  6 active torsions:
REMARK  status: ('A' for Active; 'I' for Inactive)
REMARK    1  A    between atoms: C_1  and  C_2
REMARK    2  A    between atoms: C_2  and  C_37
REMARK    3  A    between atoms: N_11  and  C_29
REMARK    4  A    between atoms: N_14  and  C_15
REMARK    5  A    between atoms: C_15  and  C_16
REMARK    6  A    between atoms: N_18  and  C_19
REMARK                            x       y       z     vdW  Elec       q    Type
REMARK                         _______ _______ _______ _____ _____    ______ ____
ROOT
ATOM      1  C   UNL     1      -3.075  -2.132   1.911  0.00  0.00    +0.041 C 
ATOM      2  C   UNL     1      -2.922  -2.458   0.424  0.00  0.00    +0.068 C 
ATOM      3  C   UNL     1      -1.482  -2.171  -0.013  0.00  0.00    +0.071 C 
ATOM      4  C   UNL     1      -1.281  -0.659  -0.006  0.00  0.00    -0.018 A 
ATOM      5  C   UNL     1      -2.353   0.161   0.000  0.00  0.00    +0.021 A 
ATOM      6  S   UNL     1      -1.673   1.793   0.002  0.00  0.00    -0.073 S 
ATOM      7  C   UNL     1       0.004   1.389   0.003  0.00  0.00    +0.098 A 
ATOM      8  C   UNL     1       0.026  -0.006  -0.005  0.00  0.00    +0.074 A 
ATOM      9  C   UNL     1       1.369  -0.625  -0.011  0.00  0.00    +0.265 A 
ATOM     10  O   UNL     1       1.489  -1.837  -0.018  0.00  0.00    -0.267 OA
ATOM     11  N   UNL     1       2.457   0.166  -0.010  0.00  0.00    -0.257 N 
ATOM     12  C   UNL     1       2.359   1.505  -0.003  0.00  0.00    +0.333 A 
ATOM     13  O   UNL     1       3.373   2.176  -0.002  0.00  0.00    -0.246 OA
ATOM     14  N   UNL     1       1.161   2.120   0.003  0.00  0.00    -0.278 N 
ATOM     15  C   UNL     1      -3.789  -0.262  -0.001  0.00  0.00    +0.203 C 
ATOM     16  O   UNL     1      -3.835  -1.659  -0.332  0.00  0.00    -0.368 OA
ATOM     17  C   UNL     1      -3.232  -3.938   0.195  0.00  0.00    +0.041 C 
ENDROOT
BRANCH  11  18
ATOM     18  C   UNL     1       3.786  -0.451  -0.018  0.00  0.00    +0.095 C 
ATOM     19  C   UNL     1       4.556  -0.019   1.232  0.00  0.00    +0.025 C 
ATOM     20  C   UNL     1       5.943  -0.663   1.224  0.00  0.00    +0.002 C 
ATOM     21  C   UNL     1       6.706  -0.217  -0.025  0.00  0.00    +0.000 C 
ATOM     22  C   UNL     1       5.936  -0.649  -1.274  0.00  0.00    +0.002 C 
ATOM     23  C   UNL     1       4.548  -0.005  -1.267  0.00  0.00    +0.025 C 
ENDBRANCH  11  18
BRANCH  14  24
ATOM     24  C   UNL     1       1.096   3.583   0.012  0.00  0.00    +0.223 C 
BRANCH  24  25
ATOM     25  C   UNL     1       1.077   4.077   1.436  0.00  0.00    +0.237 C 
ATOM     26  O   UNL     1       1.115   3.285   2.353  0.00  0.00    -0.274 OA
ATOM     27  N   UNL     1       1.019   5.399   1.690  0.00  0.00    -0.283 N 
ATOM     28  H   UNL     1       1.055   6.036   0.958  0.00  0.00    +0.155 HD
BRANCH  27  29
ATOM     29  C   UNL     1       0.907   5.853   3.005  0.00  0.00    +0.041 A 
ATOM     30  C   UNL     1       1.531   5.176   4.030  0.00  0.00    +0.024 A 
ATOM     31  C   UNL     1       1.425   5.619   5.345  0.00  0.00    +0.002 A 
ATOM     32  C   UNL     1       0.705   6.732   5.655  0.00  0.00    +0.008 A 
ATOM     33  C   UNL     1       0.054   7.453   4.639  0.00  0.00    -0.016 A 
ATOM     34  C   UNL     1       0.159   7.013   3.296  0.00  0.00    +0.003 A 
ATOM     35  C   UNL     1      -0.497   7.731   2.283  0.00  0.00    +0.010 A 
ATOM     36  C   UNL     1      -1.216   8.842   2.602  0.00  0.00    +0.001 A 
ATOM     37  C   UNL     1      -1.315   9.278   3.922  0.00  0.00    +0.001 A 
ATOM     38  C   UNL     1      -0.697   8.605   4.930  0.00  0.00    +0.008 A 
ENDBRANCH  27  29
ENDBRANCH  24  25
ENDBRANCH  14  24
TORSDOF 4
