REMARK  Name = ZINC35646560
REMARK  12 active torsions:
REMARK  status: ('A' for Active; 'I' for Inactive)
REMARK    1  A    between atoms: C_1  and  C_2
REMARK    2  A    between atoms: C_2  and  N_3
REMARK    3  A    between atoms: C_4  and  C_24
REMARK    4  A    between atoms: C_5  and  C_19
REMARK    5  A    between atoms: C_6  and  C_11
REMARK    6  A    between atoms: C_14  and  O_17
REMARK    7  A    between atoms: O_17  and  C_18
REMARK    8  A    between atoms: C_19  and  O_21
REMARK    9  A    between atoms: O_21  and  C_22
REMARK   10  A    between atoms: C_22  and  C_23
REMARK   11  A    between atoms: C_24  and  N_25
REMARK   12  A    between atoms: C_32  and  C_34
REMARK                            x       y       z     vdW  Elec       q    Type
REMARK                         _______ _______ _______ _____ _____    ______ ____
ROOT
ATOM      1  N   UNL     1       0.556  -1.166  -2.046  0.00  0.00    -0.261 N 
ATOM      2  C   UNL     1      -0.415  -1.997  -2.528  0.00  0.00    +0.010 C 
ATOM      3  C   UNL     1      -0.098  -3.165  -3.127  0.00  0.00    +0.076 C 
ATOM      4  C   UNL     1       1.370  -3.521  -3.246  0.00  0.00    +0.143 C 
ATOM      5  N   UNL     1       2.337  -2.557  -2.695  0.00  0.00    -0.288 N 
ATOM      6  C   UNL     1       1.866  -1.429  -2.129  0.00  0.00    +0.307 C 
ATOM      7  O   UNL     1       2.657  -0.625  -1.674  0.00  0.00    -0.252 OA
ATOM      8  H   UNL     1       3.291  -2.729  -2.741  0.00  0.00    +0.151 HD
ENDROOT
BRANCH   4   9
ATOM      9  C   UNL     1       1.586  -4.842  -2.553  0.00  0.00    -0.022 A 
ATOM     10  C   UNL     1       1.696  -4.889  -1.176  0.00  0.00    +0.009 A 
ATOM     11  C   UNL     1       1.894  -6.098  -0.538  0.00  0.00    +0.046 A 
ATOM     12  C   UNL     1       1.981  -7.267  -1.281  0.00  0.00    +0.120 A 
ATOM     13  C   UNL     1       1.870  -7.217  -2.663  0.00  0.00    +0.046 A 
ATOM     14  C   UNL     1       1.667  -6.006  -3.296  0.00  0.00    +0.009 A 
BRANCH  12  15
ATOM     15  O   UNL     1       2.176  -8.458  -0.656  0.00  0.00    -0.495 OA
ATOM     16  C   UNL     1       2.257  -9.619  -1.485  0.00  0.00    +0.277 C 
ENDBRANCH  12  15
ENDBRANCH   4   9
BRANCH   1  18
ATOM     17  C   UNL     1       0.232   1.229  -2.420  0.00  0.00    +0.025 C 
ATOM     18  C   UNL     1       0.140   0.085  -1.408  0.00  0.00    +0.111 C 
ENDBRANCH   1  18
BRANCH   3  19
ATOM     19  C   UNL     1      -1.102  -4.027  -3.626  0.00  0.00    +0.339 C 
ATOM     20  O   UNL     1      -2.276  -3.755  -3.458  0.00  0.00    -0.245 OA
BRANCH  19  21
ATOM     21  O   UNL     1      -0.758  -5.152  -4.287  0.00  0.00    -0.462 OA
BRANCH  21  22
ATOM     22  C   UNL     1      -1.824  -5.976  -4.764  0.00  0.00    +0.229 C 
ATOM     23  C   UNL     1      -1.244  -7.196  -5.483  0.00  0.00    +0.048 C 
ENDBRANCH  21  22
ENDBRANCH  19  21
ENDBRANCH   3  19
BRANCH   2  24
ATOM     24  C   UNL     1      -1.863  -1.604  -2.389  0.00  0.00    -0.026 C 
BRANCH  24  25
ATOM     25  N   UNL     1      -2.450  -2.298  -1.234  0.00  0.00    +0.384 N 
ATOM     26  C   UNL     1      -3.897  -2.104  -1.267  0.00  0.00    -0.077 C 
ATOM     27  C   UNL     1      -4.575  -3.292  -0.621  0.00  0.00    +0.000 C 
ATOM     28  C   UNL     1      -4.823  -2.993   0.869  0.00  0.00    +0.106 C 
ATOM     29  N   UNL     1      -3.677  -2.277   1.465  0.00  0.00    -0.303 N 
ATOM     30  C   UNL     1      -2.304  -2.629   1.167  0.00  0.00    +0.089 C 
ATOM     31  C   UNL     1      -1.812  -1.831  -0.063  0.00  0.00    -0.059 C 
ATOM     32  C   UNL     1      -3.917  -1.260   2.316  0.00  0.00    +0.219 C 
ATOM     33  O   UNL     1      -2.997  -0.594   2.740  0.00  0.00    -0.275 OA
ATOM     34  H   UNL     1      -2.261  -3.285  -1.328  0.00  0.00    -0.081 HD
BRANCH  32  35
ATOM     35  C   UNL     1      -5.330  -0.951   2.740  0.00  0.00    +0.075 C 
ATOM     36  C   UNL     1      -6.037  -0.114   1.654  0.00  0.00    +0.013 C 
ATOM     37  C   UNL     1      -6.919   0.877   2.453  0.00  0.00    +0.001 C 
ATOM     38  C   UNL     1      -6.022   1.233   3.664  0.00  0.00    +0.001 C 
ATOM     39  C   UNL     1      -5.320  -0.094   4.018  0.00  0.00    +0.013 C 
ENDBRANCH  32  35
ENDBRANCH  24  25
ENDBRANCH   2  24
TORSDOF 9
