REMARK  Name = ZINC09103133
REMARK  12 active torsions:
REMARK  status: ('A' for Active; 'I' for Inactive)
REMARK    1  A    between atoms: C_1  and  C_2
REMARK    2  A    between atoms: C_2  and  N_3
REMARK    3  A    between atoms: N_3  and  C_4
REMARK    4  A    between atoms: C_14  and  C_16
REMARK    5  A    between atoms: C_16  and  S_17
REMARK    6  A    between atoms: S_17  and  C_18
REMARK    7  A    between atoms: C_21  and  C_30
REMARK    8  A    between atoms: N_22  and  C_23
REMARK    9  A    between atoms: C_30  and  C_32
REMARK   10  A    between atoms: C_30  and  N_62
REMARK   11  A    between atoms: C_33  and  N_62
REMARK   12  A    between atoms: C_34  and  N_62
REMARK                            x       y       z     vdW  Elec       q    Type
REMARK                         _______ _______ _______ _____ _____    ______ ____
ROOT
ATOM      1  C   UNL     1       1.242  -0.434  -0.012  0.00  0.00    +0.197 A 
ATOM      2  N   UNL     1       0.002  -0.004   0.002  0.00  0.00    -0.122 NA
ATOM      3  N   UNL     1      -0.015   1.281   0.009  0.00  0.00    -0.135 NA
ATOM      4  C   UNL     1       1.202   1.746   0.000  0.00  0.00    +0.125 A 
ATOM      5  N   UNL     1       2.049   0.670  -0.014  0.00  0.00    -0.275 N 
ENDROOT
BRANCH   5   6
ATOM      6  C   UNL     1       3.452   0.696  -0.027  0.00  0.00    +0.050 A 
ATOM      7  C   UNL     1       4.147   1.216   1.056  0.00  0.00    +0.028 A 
ATOM      8  C   UNL     1       5.528   1.236   1.043  0.00  0.00    +0.022 A 
ATOM      9  C   UNL     1       6.218   0.747  -0.053  0.00  0.00    +0.041 A 
ATOM     10  C   UNL     1       5.527   0.232  -1.135  0.00  0.00    +0.022 A 
ATOM     11  C   UNL     1       4.146   0.206  -1.125  0.00  0.00    +0.028 A 
ATOM     12 CL   UNL     1       7.954   0.779  -0.069  0.00  0.00    -0.084 Cl
ENDBRANCH   5   6
BRANCH   4  13
ATOM     13  C   UNL     1       1.603   3.199   0.004  0.00  0.00    -0.003 C 
ATOM     14  C   UNL     1       1.365   3.797  -1.385  0.00  0.00    -0.005 C 
BRANCH  13  17
ATOM     15  C   UNL     1       1.243   5.322   1.111  0.00  0.00    -0.096 C 
ATOM     16  C   UNL     1      -0.632   3.855   0.667  0.00  0.00    -0.096 C 
ATOM     17  N   UNL     1       0.803   3.914   1.020  0.00  0.00    +0.382 N 
ATOM     18  H   UNL     1       0.941   3.462   1.931  0.00  0.00    -0.082 HD
ENDBRANCH  13  17
ENDBRANCH   4  13
BRANCH   1  19
ATOM     19  S   UNL     1       1.768  -2.116  -0.026  0.00  0.00    -0.076 S 
BRANCH  19  20
ATOM     20  C   UNL     1       0.161  -2.948  -0.015  0.00  0.00    +0.173 C 
BRANCH  20  22
ATOM     21  N   UNL     1      -0.696  -5.269  -0.019  0.00  0.00    -0.270 N 
ATOM     22  C   UNL     1       0.367  -4.441  -0.025  0.00  0.00    +0.230 C 
ATOM     23  O   UNL     1       1.491  -4.897  -0.037  0.00  0.00    -0.274 OA
BRANCH  21  24
ATOM     24  C   UNL     1      -0.504  -6.651  -0.028  0.00  0.00    +0.044 A 
ATOM     25  C   UNL     1      -0.398  -7.346   1.157  0.00  0.00    +0.024 A 
ATOM     26  C   UNL     1      -0.207  -8.725   1.160  0.00  0.00    +0.002 A 
ATOM     27  C   UNL     1      -0.120  -9.424  -0.005  0.00  0.00    +0.008 A 
ATOM     28  C   UNL     1      -0.224  -8.754  -1.236  0.00  0.00    -0.016 A 
ATOM     29  C   UNL     1      -0.424  -7.351  -1.251  0.00  0.00    +0.004 A 
ATOM     30  C   UNL     1      -0.523  -6.682  -2.481  0.00  0.00    +0.010 A 
ATOM     31  C   UNL     1      -0.436  -7.388  -3.641  0.00  0.00    +0.001 A 
ATOM     32  C   UNL     1      -0.244  -8.768  -3.628  0.00  0.00    +0.001 A 
ATOM     33  C   UNL     1      -0.139  -9.450  -2.454  0.00  0.00    +0.008 A 
ENDBRANCH  21  24
BRANCH  21  35
ATOM     34  C   UNL     1      -2.539  -4.518  -1.441  0.00  0.00    +0.025 C 
ATOM     35  C   UNL     1      -2.053  -4.717  -0.004  0.00  0.00    +0.110 C 
ENDBRANCH  21  35
ENDBRANCH  20  22
ENDBRANCH  19  20
ENDBRANCH   1  19
TORSDOF 8
