REMARK  Name = ZINC30588908
REMARK  10 active torsions:
REMARK  status: ('A' for Active; 'I' for Inactive)
REMARK    1  A    between atoms: C_1  and  C_2
REMARK    2  A    between atoms: C_2  and  N_3
REMARK    3  A    between atoms: N_3  and  C_4
REMARK    4  A    between atoms: N_3  and  S_6
REMARK    5  A    between atoms: C_4  and  C_5
REMARK    6  A    between atoms: S_6  and  C_9
REMARK    7  A    between atoms: C_13  and  N_15
REMARK    8  A    between atoms: C_16  and  C_18
REMARK    9  A    between atoms: C_18  and  N_19
REMARK   10  A    between atoms: C_27  and  C_29
REMARK                            x       y       z     vdW  Elec       q    Type
REMARK                         _______ _______ _______ _____ _____    ______ ____
ROOT
ATOM      1  N   UNL     1      -1.912  -5.758   0.101  0.00  0.00    -0.287 N 
ATOM      2  C   UNL     1      -1.131  -4.676   0.289  0.00  0.00    +0.201 C 
ATOM      3  O   UNL     1       0.059  -4.812   0.478  0.00  0.00    -0.278 OA
ATOM      4  H   UNL     1      -2.976  -5.632  -0.145  0.00  0.00    +0.155 HD
ENDROOT
BRANCH   1   9
ATOM      5  C   UNL     1      -1.591  -9.342   0.859  0.00  0.00    +0.107 A 
ATOM      6  C   UNL     1      -0.292  -9.581   0.451  0.00  0.00    +0.028 A 
ATOM      7  C   UNL     1       0.471  -8.553  -0.073  0.00  0.00    +0.004 A 
ATOM      8  C   UNL     1      -0.065  -7.286  -0.196  0.00  0.00    +0.023 A 
ATOM      9  C   UNL     1      -1.368  -7.042   0.218  0.00  0.00    +0.035 A 
ATOM     10  C   UNL     1      -2.131  -8.076   0.744  0.00  0.00    +0.051 A 
BRANCH   5  11
ATOM     11  S   UNL     1      -2.560 -10.655   1.525  0.00  0.00    +0.061 S 
ATOM     12  O   UNL     1      -1.645 -11.617   2.032  0.00  0.00    -0.153 OA
ATOM     13  O   UNL     1      -3.559 -10.052   2.336  0.00  0.00    -0.153 OA
BRANCH  11  14
ATOM     14  N   UNL     1      -3.349 -11.373   0.258  0.00  0.00    -0.177 NA
BRANCH  14  16
ATOM     15  C   UNL     1      -3.220 -13.812   0.127  0.00  0.00    +0.022 C 
ATOM     16  C   UNL     1      -2.723 -12.488  -0.457  0.00  0.00    +0.106 C 
ENDBRANCH  14  16
BRANCH  14  17
ATOM     17  C   UNL     1      -4.672 -10.893  -0.147  0.00  0.00    +0.106 C 
ATOM     18  C   UNL     1      -4.522  -9.885  -1.288  0.00  0.00    +0.022 C 
ENDBRANCH  14  17
ENDBRANCH  11  14
ENDBRANCH   5  11
ENDBRANCH   1   9
BRANCH   2  19
ATOM     19  C   UNL     1      -1.737  -3.296   0.263  0.00  0.00    +0.020 C 
BRANCH  19  20
ATOM     20  N   UNL     1      -0.672  -2.291   0.380  0.00  0.00    +0.395 N 
ATOM     21  C   UNL     1       0.067  -2.451   1.640  0.00  0.00    -0.055 C 
ATOM     22  C   UNL     1       0.896  -1.191   1.919  0.00  0.00    +0.103 C 
ATOM     23  N   UNL     1       1.666  -0.872   0.710  0.00  0.00    -0.353 N 
ATOM     24  C   UNL     1       2.742  -0.053   0.596  0.00  0.00    +0.086 A 
ATOM     25  C   UNL     1       3.137  -0.054  -0.696  0.00  0.00    +0.019 A 
ATOM     26  C   UNL     1       2.267  -0.909  -1.404  0.00  0.00    +0.021 A 
ATOM     27  C   UNL     1       1.378  -1.393  -0.524  0.00  0.00    +0.009 A 
ATOM     28  C   UNL     1       0.236  -2.347  -0.780  0.00  0.00    +0.011 C 
ATOM     29  H   UNL     1      -1.145  -1.298   0.393  0.00  0.00    -0.080 HD
BRANCH  28  30
ATOM     30  C   UNL     1      -0.503  -1.934  -2.026  0.00  0.00    -0.055 A 
ATOM     31  C   UNL     1      -1.429  -0.908  -1.973  0.00  0.00    +0.002 A 
ATOM     32  C   UNL     1      -2.104  -0.526  -3.117  0.00  0.00    +0.000 A 
ATOM     33  C   UNL     1      -1.861  -1.177  -4.312  0.00  0.00    +0.000 A 
ATOM     34  C   UNL     1      -0.939  -2.205  -4.365  0.00  0.00    +0.000 A 
ATOM     35  C   UNL     1      -0.260  -2.584  -3.221  0.00  0.00    +0.002 A 
ENDBRANCH  28  30
ENDBRANCH  19  20
ENDBRANCH   2  19
TORSDOF 8
