REMARK  Name = ZINC08816757
REMARK  9 active torsions:
REMARK  status: ('A' for Active; 'I' for Inactive)
REMARK    1  A    between atoms: C_1  and  C_2
REMARK    2  A    between atoms: C_4  and  C_36
REMARK    3  A    between atoms: C_12  and  C_26
REMARK    4  A    between atoms: C_14  and  C_19
REMARK    5  A    between atoms: C_19  and  C_21
REMARK    6  A    between atoms: C_30  and  O_34
REMARK    7  A    between atoms: C_31  and  O_32
REMARK    8  A    between atoms: O_32  and  C_33
REMARK    9  A    between atoms: O_34  and  C_35
REMARK                            x       y       z     vdW  Elec       q    Type
REMARK                         _______ _______ _______ _____ _____    ______ ____
ROOT
ATOM      1  C   UNL     1      -0.476   0.194   0.135  0.00  0.00    +0.044 C 
ATOM      2  C   UNL     1      -0.415   1.700   0.142  0.00  0.00    -0.049 A 
ATOM      3  C   UNL     1      -1.582   2.449   0.189  0.00  0.00    +0.009 A 
ATOM      4  C   UNL     1      -1.554   3.818   0.203  0.00  0.00    -0.024 A 
ATOM      5  C   UNL     1      -0.324   4.516   0.157  0.00  0.00    +0.083 A 
ATOM      6  C   UNL     1       0.843   3.721   0.104  0.00  0.00    +0.041 A 
ATOM      7  C   UNL     1       0.805   2.349   0.097  0.00  0.00    +0.020 A 
ATOM      8  S   UNL     1       2.132   4.944   0.060  0.00  0.00    -0.052 S 
ATOM      9  C   UNL     1       1.076   6.385   0.113  0.00  0.00    +0.169 A 
ATOM     10  N   UNL     1      -0.123   5.852   0.158  0.00  0.00    -0.224 NA
ATOM     11  N   UNL     1       1.431   7.722   0.107  0.00  0.00    -0.232 N 
ATOM     12  C   UNL     1       2.799   8.252   0.060  0.00  0.00    +0.155 C 
ATOM     13  C   UNL     1       2.667   9.757   0.070  0.00  0.00    +0.077 C 
ATOM     14  C   UNL     1       1.344  10.032   0.126  0.00  0.00    +0.250 C 
ATOM     15  C   UNL     1       0.585   8.767   0.149  0.00  0.00    +0.293 C 
ATOM     16  O   UNL     1      -0.626   8.681   0.198  0.00  0.00    -0.266 OA
ATOM     17  O   UNL     1       0.801  11.272   0.157  0.00  0.00    -0.282 OA
ATOM     18  C   UNL     1      -2.847   4.590   0.262  0.00  0.00    +0.046 C 
ENDROOT
BRANCH  12  19
ATOM     19  C   UNL     1       3.487   7.803  -1.203  0.00  0.00    +0.023 A 
ATOM     20  C   UNL     1       2.740   7.511  -2.330  0.00  0.00    +0.009 A 
ATOM     21  C   UNL     1       3.368   7.099  -3.491  0.00  0.00    +0.004 A 
ATOM     22  C   UNL     1       4.744   6.975  -3.530  0.00  0.00    +0.049 A 
ATOM     23  C   UNL     1       5.498   7.265  -2.404  0.00  0.00    +0.162 A 
ATOM     24  C   UNL     1       4.867   7.686  -1.237  0.00  0.00    +0.167 A 
BRANCH  24  25
ATOM     25  O   UNL     1       5.603   7.978  -0.131  0.00  0.00    -0.491 OA
ATOM     26  C   UNL     1       5.958   6.884   0.718  0.00  0.00    +0.277 C 
ENDBRANCH  24  25
BRANCH  23  27
ATOM     27  O   UNL     1       6.852   7.144  -2.441  0.00  0.00    -0.491 OA
ATOM     28  C   UNL     1       7.431   6.712  -3.674  0.00  0.00    +0.277 C 
ENDBRANCH  23  27
ENDBRANCH  12  19
BRANCH  13  29
ATOM     29  C   UNL     1       3.763  10.732   0.031  0.00  0.00    +0.202 C 
ATOM     30  O   UNL     1       3.894  11.463  -0.935  0.00  0.00    -0.286 OA
BRANCH  29  31
ATOM     31  C   UNL     1       4.700  10.827   1.154  0.00  0.00    +0.059 A 
ATOM     32  C   UNL     1       5.849  11.598   1.273  0.00  0.00    +0.019 A 
ATOM     33  C   UNL     1       6.548  11.498   2.449  0.00  0.00    +0.008 A 
ATOM     34  C   UNL     1       6.098  10.658   3.420  0.00  0.00    +0.046 A 
ATOM     35  S   UNL     1       4.666   9.975   2.721  0.00  0.00    -0.093 S 
ENDBRANCH  29  31
ENDBRANCH  13  29
TORSDOF 5
