REMARK  Name = ZINC21319008
REMARK  5 active torsions:
REMARK  status: ('A' for Active; 'I' for Inactive)
REMARK    1  A    between atoms: C_11  and  C_29
REMARK    2  A    between atoms: C_14  and  C_16
REMARK    3  A    between atoms: C_16  and  N_17
REMARK    4  A    between atoms: N_20  and  C_23
REMARK    5  A    between atoms: C_23  and  C_24
REMARK                            x       y       z     vdW  Elec       q    Type
REMARK                         _______ _______ _______ _____ _____    ______ ____
ROOT
ATOM      1  C   UNL     1      -0.024   8.128  -0.268  0.00  0.00    +0.002 A 
ATOM      2  C   UNL     1       0.507   7.423  -1.332  0.00  0.00    +0.002 A 
ATOM      3  C   UNL     1       1.500   6.484  -1.121  0.00  0.00    +0.025 A 
ATOM      4  C   UNL     1       1.963   6.247   0.163  0.00  0.00    +0.058 A 
ATOM      5  C   UNL     1       1.412   6.939   1.248  0.00  0.00    +0.055 A 
ATOM      6  C   UNL     1       0.425   7.887   1.032  0.00  0.00    +0.025 A 
ATOM      7  N   UNL     1       1.867   6.654   2.541  0.00  0.00    -0.284 N 
ATOM      8  C   UNL     1       3.191   6.613   2.811  0.00  0.00    +0.219 C 
ATOM      9  O   UNL     1       3.570   6.290   3.916  0.00  0.00    -0.275 OA
ATOM     10  C   UNL     1       4.198   6.966   1.749  0.00  0.00    +0.128 C 
ATOM     11  C   UNL     1       4.321   5.823   0.739  0.00  0.00    +0.194 C 
ATOM     12  N   UNL     1       2.990   5.322   0.392  0.00  0.00    -0.259 N 
ATOM     13  C   UNL     1       2.759   3.999   0.289  0.00  0.00    +0.204 C 
ATOM     14  O   UNL     1       3.659   3.209   0.485  0.00  0.00    -0.277 OA
ATOM     15  H   UNL     1       1.144   6.462   3.348  0.00  0.00    +0.155 HD
ENDROOT
BRANCH  11  16
ATOM     16  C   UNL     1       5.017   6.333  -0.524  0.00  0.00    +0.409 C 
ATOM     17  F   UNL     1       4.262   7.367  -1.088  0.00  0.00    -0.169 F 
ATOM     18  F   UNL     1       6.290   6.812  -0.194  0.00  0.00    -0.169 F 
ATOM     19  F   UNL     1       5.138   5.287  -1.445  0.00  0.00    -0.169 F 
ENDBRANCH  11  16
BRANCH  13  20
ATOM     20  C   UNL     1       1.383   3.500  -0.069  0.00  0.00    +0.019 C 
BRANCH  20  21
ATOM     21  N   UNL     1       1.425   2.044  -0.260  0.00  0.00    +0.387 N 
ATOM     22  C   UNL     1       2.234   1.690  -1.435  0.00  0.00    -0.063 C 
ATOM     23  C   UNL     1       2.318   0.167  -1.553  0.00  0.00    +0.066 C 
ATOM     24  N   UNL     1       0.962  -0.389  -1.665  0.00  0.00    -0.302 NA
ATOM     25  C   UNL     1       0.152  -0.035  -0.491  0.00  0.00    +0.066 C 
ATOM     26  C   UNL     1       0.069   1.488  -0.373  0.00  0.00    -0.063 C 
ATOM     27  H   UNL     1       1.901   1.601   0.627  0.00  0.00    -0.081 HD
BRANCH  24  28
ATOM     28  C   UNL     1       1.004  -1.845  -1.857  0.00  0.00    +0.120 C 
BRANCH  28  29
ATOM     29  C   UNL     1      -0.387  -2.409  -1.723  0.00  0.00    -0.026 A 
ATOM     30  C   UNL     1      -1.208  -2.523  -2.829  0.00  0.00    +0.012 A 
ATOM     31  C   UNL     1      -2.454  -3.034  -2.673  0.00  0.00    +0.045 A 
ATOM     32  S   UNL     1      -2.497  -3.375  -0.921  0.00  0.00    -0.105 S 
ATOM     33  C   UNL     1      -0.850  -2.818  -0.516  0.00  0.00    +0.050 A 
ENDBRANCH  28  29
ENDBRANCH  24  28
ENDBRANCH  20  21
ENDBRANCH  13  20
TORSDOF 5
