REMARK  Name = ZINC44877826
REMARK  13 active torsions:
REMARK  status: ('A' for Active; 'I' for Inactive)
REMARK    1  A    between atoms: C_1  and  C_2
REMARK    2  A    between atoms: N_7  and  C_9
REMARK    3  A    between atoms: C_9  and  C_10
REMARK    4  A    between atoms: C_13  and  C_16
REMARK    5  A    between atoms: C_16  and  N_17
REMARK    6  A    between atoms: C_18  and  C_20
REMARK    7  A    between atoms: C_20  and  N_21
REMARK    8  A    between atoms: N_21  and  C_22
REMARK    9  A    between atoms: N_21  and  S_31
REMARK   10  A    between atoms: C_25  and  C_28
REMARK   11  A    between atoms: C_28  and  C_29
REMARK   12  A    between atoms: C_28  and  C_30
REMARK   13  A    between atoms: S_31  and  C_34
REMARK                            x       y       z     vdW  Elec       q    Type
REMARK                         _______ _______ _______ _____ _____    ______ ____
ROOT
ATOM      1  N   UNL     1       1.885  -9.443   1.756  0.00  0.00    -0.310 N 
ATOM      2  C   UNL     1       1.640 -10.607   1.122  0.00  0.00    +0.232 C 
ATOM      3  O   UNL     1       2.003 -11.654   1.615  0.00  0.00    -0.274 OA
ATOM      4  H   UNL     1       1.595  -8.606   1.362  0.00  0.00    +0.149 HD
ENDROOT
BRANCH   1   5
ATOM      5  C   UNL     1       2.590  -9.443   3.040  0.00  0.00    +0.139 C 
BRANCH   5   9
ATOM      6  C   UNL     1       3.003  -5.428   4.439  0.00  0.00    -0.064 A 
ATOM      7  C   UNL     1       1.889  -6.170   4.786  0.00  0.00    +0.002 A 
ATOM      8  C   UNL     1       1.756  -7.469   4.333  0.00  0.00    +0.005 A 
ATOM      9  C   UNL     1       2.736  -8.026   3.533  0.00  0.00    -0.030 A 
ATOM     10  C   UNL     1       3.849  -7.284   3.185  0.00  0.00    +0.005 A 
ATOM     11  C   UNL     1       3.981  -5.984   3.635  0.00  0.00    +0.002 A 
BRANCH   6  12
ATOM     12  C   UNL     1       3.149  -4.012   4.933  0.00  0.00    -0.043 C 
BRANCH  12  18
ATOM     13  C   UNL     1       2.481   0.699   3.778  0.00  0.00    +0.005 C 
ATOM     14  C   UNL     1       2.216  -0.744   3.341  0.00  0.00    -0.031 C 
ATOM     15  C   UNL     1       0.707  -0.971   3.214  0.00  0.00    -0.001 C 
ATOM     16  C   UNL     1       0.451  -2.437   2.853  0.00  0.00    -0.018 C 
ATOM     17  C   UNL     1       1.086  -3.337   3.915  0.00  0.00    -0.078 C 
ATOM     18  N   UNL     1       2.532  -3.091   3.968  0.00  0.00    +0.383 N 
ATOM     19  C   UNL     1       2.788  -1.706   4.384  0.00  0.00    -0.075 C 
ATOM     20  H   UNL     1       2.933  -3.246   3.055  0.00  0.00    -0.081 HD
ENDBRANCH  12  18
ENDBRANCH   6  12
ENDBRANCH   5   9
ENDBRANCH   1   5
BRANCH   2  21
ATOM     21  C   UNL     1       0.916 -10.608  -0.199  0.00  0.00    +0.226 C 
BRANCH  21  22
ATOM     22  N   UNL     1       0.774 -11.985  -0.678  0.00  0.00    -0.199 N 
BRANCH  22  23
ATOM     23  C   UNL     1      -0.296 -12.769  -0.243  0.00  0.00    +0.051 A 
ATOM     24  C   UNL     1      -1.602 -12.348  -0.461  0.00  0.00    +0.025 A 
ATOM     25  C   UNL     1      -2.658 -13.127  -0.030  0.00  0.00    +0.006 A 
ATOM     26  C   UNL     1      -2.417 -14.324   0.619  0.00  0.00    -0.045 A 
ATOM     27  C   UNL     1      -1.118 -14.746   0.838  0.00  0.00    +0.006 A 
ATOM     28  C   UNL     1      -0.058 -13.975   0.404  0.00  0.00    +0.025 A 
BRANCH  26  29
ATOM     29  C   UNL     1      -3.572 -15.170   1.089  0.00  0.00    +0.013 C 
ATOM     30  C   UNL     1      -3.509 -16.540   0.412  0.00  0.00    +0.012 C 
ATOM     31  C   UNL     1      -3.490 -15.347   2.607  0.00  0.00    +0.012 C 
ENDBRANCH  26  29
ENDBRANCH  22  23
BRANCH  22  32
ATOM     32  S   UNL     1       1.884 -12.612  -1.736  0.00  0.00    +0.043 S 
ATOM     33  O   UNL     1       1.221 -13.710  -2.348  0.00  0.00    -0.155 OA
ATOM     34  O   UNL     1       2.313 -11.501  -2.511  0.00  0.00    -0.155 OA
ATOM     35  C   UNL     1       3.241 -13.206  -0.690  0.00  0.00    +0.218 C 
ENDBRANCH  22  32
ENDBRANCH  21  22
ENDBRANCH   2  21
TORSDOF 9
