REMARK  Name = ZINC35476876
REMARK  5 active torsions:
REMARK  status: ('A' for Active; 'I' for Inactive)
REMARK    1  A    between atoms: C_4  and  C_7
REMARK    2  A    between atoms: N_9  and  C_10
REMARK    3  A    between atoms: C_11  and  C_19
REMARK    4  A    between atoms: C_19  and  C_21
REMARK    5  A    between atoms: C_19  and  N_30
REMARK                            x       y       z     vdW  Elec       q    Type
REMARK                         _______ _______ _______ _____ _____    ______ ____
ROOT
ATOM      1  C   UNL     1       4.815  -2.664   0.314  0.00  0.00    +0.078 A 
ATOM      2  C   UNL     1       5.124  -3.986   0.245  0.00  0.00    +0.009 A 
ATOM      3  C   UNL     1       6.459  -4.389   0.272  0.00  0.00    -0.030 A 
ATOM      4  C   UNL     1       7.391  -3.404   0.369  0.00  0.00    -0.005 A 
ATOM      5  S   UNL     1       6.433  -1.913   0.416  0.00  0.00    -0.078 S 
ATOM      6  C   UNL     1       8.877  -3.558   0.420  0.00  0.00    +0.043 C 
ATOM      7  C   UNL     1       9.201  -5.030   0.715  0.00  0.00    +0.005 C 
ATOM      8  C   UNL     1       8.361  -5.912  -0.213  0.00  0.00    +0.005 C 
ATOM      9  C   UNL     1       6.889  -5.852   0.198  0.00  0.00    +0.036 C 
ENDROOT
BRANCH   1  12
ATOM     10  C   UNL     1       3.457  -0.721   0.494  0.00  0.00    +0.249 C 
ATOM     11  O   UNL     1       4.457  -0.054   0.677  0.00  0.00    -0.270 OA
ATOM     12  N   UNL     1       3.560  -2.051   0.302  0.00  0.00    -0.276 N 
ATOM     13  H   UNL     1       2.762  -2.583   0.156  0.00  0.00    +0.156 HD
BRANCH  10  17
ATOM     14  C   UNL     1      -0.360   1.142   0.457  0.00  0.00    +0.000 A 
ATOM     15  C   UNL     1       0.776   1.903   0.666  0.00  0.00    +0.001 A 
ATOM     16  C   UNL     1       2.019   1.304   0.680  0.00  0.00    +0.013 A 
ATOM     17  C   UNL     1       2.129  -0.073   0.481  0.00  0.00    +0.037 A 
ATOM     18  C   UNL     1       0.979  -0.835   0.271  0.00  0.00    +0.013 A 
ATOM     19  C   UNL     1      -0.258  -0.224   0.260  0.00  0.00    +0.001 A 
ENDBRANCH  10  17
ENDBRANCH   1  12
BRANCH   2  20
ATOM     20  C   UNL     1       4.026  -5.013   0.139  0.00  0.00    +0.135 C 
BRANCH  20  21
ATOM     21  C   UNL     1       3.334  -5.148   1.471  0.00  0.00    -0.019 A 
ATOM     22  C   UNL     1       2.243  -4.351   1.765  0.00  0.00    +0.009 A 
ATOM     23  C   UNL     1       1.605  -4.471   2.986  0.00  0.00    +0.050 A 
ATOM     24  C   UNL     1       2.058  -5.391   3.918  0.00  0.00    +0.166 A 
ATOM     25  C   UNL     1       3.157  -6.193   3.622  0.00  0.00    +0.167 A 
ATOM     26  C   UNL     1       3.788  -6.071   2.394  0.00  0.00    +0.055 A 
ATOM     27  O   UNL     1       3.404  -7.006   4.690  0.00  0.00    -0.453 OA
ATOM     28  C   UNL     1       2.702  -6.411   5.797  0.00  0.00    +0.466 C 
ATOM     29  O   UNL     1       1.616  -5.701   5.171  0.00  0.00    -0.453 OA
ENDBRANCH  20  21
BRANCH  20  30
ATOM     30  N   UNL     1       3.057  -4.590  -0.874  0.00  0.00    -0.320 N 
ATOM     31  C   UNL     1       2.183  -5.517  -1.430  0.00  0.00    +0.097 A 
ATOM     32  C   UNL     1       2.231  -6.845  -1.016  0.00  0.00    +0.041 A 
ATOM     33  C   UNL     1       1.356  -7.756  -1.577  0.00  0.00    +0.005 A 
ATOM     34  C   UNL     1       0.459  -7.309  -2.538  0.00  0.00    +0.018 A 
ATOM     35  C   UNL     1       0.466  -5.978  -2.902  0.00  0.00    +0.084 A 
ATOM     36  N   UNL     1       1.309  -5.128  -2.346  0.00  0.00    -0.350 N 
ATOM     37  H   UNL     1       3.024  -3.663  -1.157  0.00  0.00    +0.148 HD
ATOM     38  H   UNL     1       1.291  -4.197  -2.617  0.00  0.00    +0.166 HD
ENDBRANCH  20  30
ENDBRANCH   2  20
TORSDOF 5
