REMARK  Name = ZINC08841698
REMARK  11 active torsions:
REMARK  status: ('A' for Active; 'I' for Inactive)
REMARK    1  A    between atoms: C_1  and  C_2
REMARK    2  A    between atoms: C_2  and  O_3
REMARK    3  A    between atoms: O_3  and  C_4
REMARK    4  A    between atoms: C_4  and  C_5
REMARK    5  A    between atoms: C_5  and  N_6
REMARK    6  A    between atoms: C_10  and  S_34
REMARK    7  A    between atoms: N_15  and  C_16
REMARK    8  A    between atoms: C_16  and  C_18
REMARK    9  A    between atoms: N_23  and  S_24
REMARK   10  A    between atoms: S_24  and  C_27
REMARK   11  A    between atoms: S_34  and  C_35
REMARK                            x       y       z     vdW  Elec       q    Type
REMARK                         _______ _______ _______ _____ _____    ______ ____
ROOT
ATOM      1  N   UNL     1      -1.571   5.246   2.690  0.00  0.00    -0.319 N 
ATOM      2  C   UNL     1      -0.565   5.945   3.336  0.00  0.00    +0.058 A 
ATOM      3  C   UNL     1       0.601   5.439   3.933  0.00  0.00    +0.028 A 
ATOM      4  C   UNL     1       1.508   6.279   4.532  0.00  0.00    +0.017 A 
ATOM      5  C   UNL     1       1.304   7.655   4.560  0.00  0.00    +0.009 A 
ATOM      6  C   UNL     1       0.160   8.181   3.971  0.00  0.00    +0.032 A 
ATOM      7  C   UNL     1      -0.744   7.336   3.373  0.00  0.00    +0.040 A 
ATOM      8  S   UNL     1      -2.288   7.571   2.529  0.00  0.00    -0.052 S 
ATOM      9  C   UNL     1      -2.632   5.911   2.162  0.00  0.00    +0.167 A 
ATOM     10  N   UNL     1      -3.683   5.408   1.518  0.00  0.00    -0.155 NA
ENDROOT
BRANCH  10  11
ATOM     11  C   UNL     1      -4.635   6.218   1.067  0.00  0.00    +0.257 C 
ATOM     12  O   UNL     1      -4.545   7.418   1.242  0.00  0.00    -0.272 OA
BRANCH  11  13
ATOM     13  C   UNL     1      -5.825   5.650   0.338  0.00  0.00    +0.167 C 
ATOM     14  C   UNL     1      -6.605   4.698   1.269  0.00  0.00    +0.031 C 
ATOM     15  C   UNL     1      -8.085   4.992   0.906  0.00  0.00    +0.019 C 
ATOM     16  C   UNL     1      -8.038   6.514   0.621  0.00  0.00    +0.110 C 
ATOM     17  N   UNL     1      -6.741   6.734  -0.045  0.00  0.00    -0.165 NA
BRANCH  17  18
ATOM     18  S   UNL     1      -6.377   7.993  -1.057  0.00  0.00    +0.062 S 
ATOM     19  O   UNL     1      -7.269   9.050  -0.727  0.00  0.00    -0.153 OA
ATOM     20  O   UNL     1      -4.965   8.148  -1.021  0.00  0.00    -0.153 OA
BRANCH  18  21
ATOM     21  C   UNL     1      -6.786   7.482  -2.693  0.00  0.00    +0.106 A 
ATOM     22  C   UNL     1      -5.837   6.853  -3.477  0.00  0.00    +0.031 A 
ATOM     23  C   UNL     1      -6.157   6.446  -4.759  0.00  0.00    +0.040 A 
ATOM     24  C   UNL     1      -7.426   6.679  -5.261  0.00  0.00    +0.124 A 
ATOM     25  C   UNL     1      -8.374   7.314  -4.477  0.00  0.00    +0.040 A 
ATOM     26  C   UNL     1      -8.053   7.715  -3.193  0.00  0.00    +0.031 A 
ATOM     27  F   UNL     1      -7.739   6.288  -6.516  0.00  0.00    -0.205 F 
ENDBRANCH  18  21
ENDBRANCH  17  18
ENDBRANCH  11  13
ENDBRANCH  10  11
BRANCH   5  28
ATOM     28  S   UNL     1       2.479   8.716   5.333  0.00  0.00    -0.129 S 
ATOM     29  C   UNL     1       3.761   7.585   5.937  0.00  0.00    +0.090 C 
ENDBRANCH   5  28
BRANCH   1  30
ATOM     30  C   UNL     1      -1.494   3.787   2.582  0.00  0.00    +0.152 C 
BRANCH  30  31
ATOM     31  C   UNL     1      -0.762   3.410   1.292  0.00  0.00    +0.181 C 
BRANCH  31  32
ATOM     32  O   UNL     1      -0.688   1.987   1.186  0.00  0.00    -0.378 OA
BRANCH  32  34
ATOM     33  C   UNL     1       0.002  -0.004   0.002  0.00  0.00    +0.034 C 
ATOM     34  C   UNL     1      -0.019   1.526   0.010  0.00  0.00    +0.156 C 
ENDBRANCH  32  34
ENDBRANCH  31  32
ENDBRANCH  30  31
ENDBRANCH   1  30
TORSDOF 9
