REMARK  Name = ZINC08430828
REMARK  8 active torsions:
REMARK  status: ('A' for Active; 'I' for Inactive)
REMARK    1  A    between atoms: C_7  and  C_22
REMARK    2  A    between atoms: N_9  and  C_10
REMARK    3  A    between atoms: C_10  and  C_11
REMARK    4  A    between atoms: C_11  and  C_13
REMARK    5  A    between atoms: C_11  and  O_21
REMARK    6  A    between atoms: C_13  and  N_14
REMARK    7  A    between atoms: C_23  and  C_24
REMARK    8  A    between atoms: C_24  and  C_26
REMARK                            x       y       z     vdW  Elec       q    Type
REMARK                         _______ _______ _______ _____ _____    ______ ____
ROOT
ATOM      1  C   UNL     1      -0.075   0.505  -0.151  0.00  0.00    +0.001 A 
ATOM      2  C   UNL     1       1.028   1.346  -0.198  0.00  0.00    +0.002 A 
ATOM      3  C   UNL     1       2.305   0.833  -0.151  0.00  0.00    +0.026 A 
ATOM      4  C   UNL     1       2.498  -0.542  -0.055  0.00  0.00    +0.050 A 
ATOM      5  C   UNL     1       1.381  -1.391  -0.008  0.00  0.00    +0.007 A 
ATOM      6  C   UNL     1       0.096  -0.859  -0.056  0.00  0.00    +0.010 A 
ATOM      7  C   UNL     1       1.917  -2.762   0.091  0.00  0.00    +0.000 A 
ATOM      8  C   UNL     1       3.290  -2.641   0.096  0.00  0.00    +0.094 A 
ATOM      9  N   UNL     1       3.628  -1.331   0.010  0.00  0.00    -0.344 N 
ENDROOT
BRANCH   7  10
ATOM     10  C   UNL     1       1.147  -4.002   0.169  0.00  0.00    +0.014 C 
ATOM     11  C   UNL     1       1.788  -5.196   0.257  0.00  0.00    +0.052 C 
BRANCH  11  12
ATOM     12  C   UNL     1       1.043  -6.393   0.332  0.00  0.00    +0.186 C 
ATOM     13  O   UNL     1      -0.175  -6.355   0.317  0.00  0.00    -0.287 OA
BRANCH  12  14
ATOM     14  C   UNL     1       1.741  -7.694   0.427  0.00  0.00    +0.022 A 
ATOM     15  C   UNL     1       3.136  -7.740   0.450  0.00  0.00    +0.013 A 
ATOM     16  C   UNL     1       3.782  -8.956   0.540  0.00  0.00    +0.016 A 
ATOM     17  C   UNL     1       3.049 -10.129   0.607  0.00  0.00    +0.018 A 
ATOM     18  C   UNL     1       1.665 -10.089   0.586  0.00  0.00    +0.016 A 
ATOM     19  C   UNL     1       1.008  -8.879   0.502  0.00  0.00    +0.013 A 
ATOM     20 BR   UNL     1       3.942 -11.791   0.729  0.00  0.00    -0.050 Br
ENDBRANCH  12  14
ENDBRANCH  11  12
ENDBRANCH   7  10
BRANCH   9  21
ATOM     21  C   UNL     1       5.003  -0.824  -0.012  0.00  0.00    +0.151 C 
BRANCH  21  22
ATOM     22  C   UNL     1       5.423  -0.431   1.406  0.00  0.00    +0.118 C 
BRANCH  22  23
ATOM     23  O   UNL     1       5.464  -1.598   2.231  0.00  0.00    -0.392 OA
ATOM     24  H   UNL     1       6.084  -2.274   1.926  0.00  0.00    +0.210 HD
ENDBRANCH  22  23
BRANCH  22  25
ATOM     25  C   UNL     1       6.811   0.213   1.366  0.00  0.00    -0.045 C 
BRANCH  25  26
ATOM     26  N   UNL     1       7.231   0.555   2.731  0.00  0.00    +0.381 N 
ATOM     27  C   UNL     1       6.294   1.554   3.279  0.00  0.00    -0.079 C 
ATOM     28  C   UNL     1       6.327   1.459   4.784  0.00  0.00    -0.019 C 
ATOM     29  C   UNL     1       7.288   2.497   5.394  0.00  0.00    -0.002 C 
ATOM     30  C   UNL     1       8.586   2.626   4.572  0.00  0.00    -0.002 C 
ATOM     31  C   UNL     1       9.106   1.290   4.106  0.00  0.00    -0.019 C 
ATOM     32  C   UNL     1       8.554   0.999   2.694  0.00  0.00    -0.079 C 
ATOM     33  H   UNL     1       7.185  -0.277   3.301  0.00  0.00    -0.082 HD
ENDBRANCH  25  26
ENDBRANCH  22  25
ENDBRANCH  21  22
ENDBRANCH   9  21
TORSDOF 8
