REMARK  Name = ZINC00256166
REMARK  8 active torsions:
REMARK  status: ('A' for Active; 'I' for Inactive)
REMARK    1  A    between atoms: C_1  and  C_2
REMARK    2  A    between atoms: C_2  and  C_4
REMARK    3  A    between atoms: C_2  and  N_17
REMARK    4  A    between atoms: N_14  and  C_15
REMARK    5  A    between atoms: C_18  and  C_20
REMARK    6  A    between atoms: C_20  and  C_21
REMARK    7  A    between atoms: C_20  and  C_22
REMARK    8  A    between atoms: C_20  and  C_23
REMARK                            x       y       z     vdW  Elec       q    Type
REMARK                         _______ _______ _______ _____ _____    ______ ____
ROOT
ATOM      1  C   UNL     1      -3.546   1.750   0.047  0.00  0.00    +0.133 A 
ATOM      2  N   UNL     1      -2.586   1.395   0.847  0.00  0.00    -0.232 NA
ATOM      3  C   UNL     1      -1.408   2.066   0.884  0.00  0.00    +0.080 A 
ATOM      4  C   UNL     1      -0.377   1.691   1.748  0.00  0.00    +0.048 A 
ATOM      5  C   UNL     1       0.799   2.409   1.754  0.00  0.00    +0.043 A 
ATOM      6  C   UNL     1       0.969   3.503   0.914  0.00  0.00    +0.021 A 
ATOM      7  C   UNL     1      -0.028   3.892   0.064  0.00  0.00    +0.017 A 
ATOM      8  C   UNL     1      -1.228   3.183   0.039  0.00  0.00    +0.065 A 
ATOM      9  C   UNL     1      -2.334   3.558  -0.855  0.00  0.00    +0.262 A 
ATOM     10  O   UNL     1      -2.242   4.507  -1.611  0.00  0.00    -0.267 OA
ATOM     11  N   UNL     1      -3.458   2.806  -0.803  0.00  0.00    -0.298 N 
ATOM     12  C   UNL     1      -4.591   3.134  -1.672  0.00  0.00    +0.154 C 
ATOM     13 CL   UNL     1       2.085   1.940   2.823  0.00  0.00    -0.083 Cl
ENDROOT
BRANCH   1  15
ATOM     14  C   UNL     1      -5.731   1.459   1.182  0.00  0.00    +0.036 C 
ATOM     15  C   UNL     1      -4.822   0.949   0.062  0.00  0.00    +0.136 C 
BRANCH  15  16
ATOM     16  N   UNL     1      -4.509  -0.464   0.293  0.00  0.00    -0.305 N 
ATOM     17  C   UNL     1      -5.356  -1.421  -0.135  0.00  0.00    +0.219 C 
ATOM     18  O   UNL     1      -6.378  -1.112  -0.711  0.00  0.00    -0.275 OA
ATOM     19  H   UNL     1      -3.692  -0.711   0.754  0.00  0.00    +0.149 HD
BRANCH  17  20
ATOM     20  C   UNL     1      -5.034  -2.874   0.102  0.00  0.00    +0.039 C 
ATOM     21  C   UNL     1      -6.150  -3.745  -0.478  0.00  0.00    +0.020 C 
ATOM     22  C   UNL     1      -3.710  -3.220  -0.580  0.00  0.00    +0.020 C 
ATOM     23  C   UNL     1      -4.916  -3.131   1.606  0.00  0.00    +0.020 C 
ENDBRANCH  17  20
ENDBRANCH  15  16
ENDBRANCH   1  15
TORSDOF 3
