REMARK  Name = ZINC05584177
REMARK  5 active torsions:
REMARK  status: ('A' for Active; 'I' for Inactive)
REMARK    1  A    between atoms: C_3  and  O_12
REMARK    2  A    between atoms: C_6  and  C_7
REMARK    3  A    between atoms: O_12  and  C_13
REMARK    4  A    between atoms: C_13  and  C_14
REMARK    5  A    between atoms: N_16  and  C_17
REMARK                            x       y       z     vdW  Elec       q    Type
REMARK                         _______ _______ _______ _____ _____    ______ ____
ROOT
ATOM      1  O   UNL     1      -3.591   0.491  -3.180  0.00  0.00    -0.483 OA
ENDROOT
BRANCH   1   4
ATOM      2  C   UNL     1      -6.198   0.293  -5.709  0.00  0.00    +0.009 A 
ATOM      3  C   UNL     1      -5.414  -0.026  -4.617  0.00  0.00    +0.046 A 
ATOM      4  C   UNL     1      -4.363   0.803  -4.253  0.00  0.00    +0.121 A 
ATOM      5  C   UNL     1      -4.106   1.955  -4.983  0.00  0.00    +0.046 A 
ATOM      6  C   UNL     1      -4.890   2.267  -6.077  0.00  0.00    +0.009 A 
ATOM      7  C   UNL     1      -5.936   1.438  -6.438  0.00  0.00    -0.024 A 
BRANCH   7   8
ATOM      8  C   UNL     1      -6.793   1.784  -7.629  0.00  0.00    +0.133 C 
ATOM      9  S   UNL     1      -5.757   2.081  -9.118  0.00  0.00    -0.141 S 
ATOM     10  C   UNL     1      -6.592   3.510  -9.911  0.00  0.00    +0.081 C 
ATOM     11  C   UNL     1      -6.959   4.460  -8.743  0.00  0.00    +0.081 C 
ATOM     12  S   UNL     1      -7.610   3.410  -7.395  0.00  0.00    -0.141 S 
ENDBRANCH   7   8
ENDBRANCH   1   4
BRANCH   1  13
ATOM     13  C   UNL     1      -2.526   1.391  -2.863  0.00  0.00    +0.324 C 
BRANCH  13  14
ATOM     14  C   UNL     1      -1.784   0.885  -1.653  0.00  0.00    +0.251 C 
ATOM     15  O   UNL     1      -2.133  -0.144  -1.114  0.00  0.00    -0.272 OA
ATOM     16  N   UNL     1      -0.734   1.577  -1.169  0.00  0.00    -0.308 N 
ATOM     17  H   UNL     1      -0.455   2.400  -1.599  0.00  0.00    +0.149 HD
BRANCH  16  18
ATOM     18  C   UNL     1      -0.013   1.086   0.008  0.00  0.00    +0.095 C 
ATOM     19  C   UNL     1      -0.703   1.589   1.287  0.00  0.00    +0.046 C 
ATOM     20  C   UNL     1       0.216   1.352   2.510  0.00  0.00    +0.168 C 
ATOM     21  S   UNL     1       1.898   1.415   1.770  0.00  0.00    -0.029 S 
ATOM     22  O   UNL     1       2.523   0.149   1.935  0.00  0.00    -0.174 OA
ATOM     23  O   UNL     1       2.561   2.587   2.223  0.00  0.00    -0.174 OA
ATOM     24  C   UNL     1       1.444   1.631  -0.003  0.00  0.00    +0.188 C 
ENDBRANCH  16  18
ENDBRANCH  13  14
ENDBRANCH   1  13
TORSDOF 5
