REMARK  Name = ZINC64390179
REMARK  9 active torsions:
REMARK  status: ('A' for Active; 'I' for Inactive)
REMARK    1  A    between atoms: C_1  and  O_2
REMARK    2  A    between atoms: O_2  and  C_3
REMARK    3  A    between atoms: C_6  and  C_11
REMARK    4  A    between atoms: C_8  and  O_9
REMARK    5  A    between atoms: O_9  and  C_10
REMARK    6  A    between atoms: C_19  and  S_23
REMARK    7  A    between atoms: S_23  and  C_24
REMARK    8  A    between atoms: C_24  and  C_25
REMARK    9  A    between atoms: C_27  and  C_30
REMARK                            x       y       z     vdW  Elec       q    Type
REMARK                         _______ _______ _______ _____ _____    ______ ____
ROOT
ATOM      1  C   UNL     1       2.523  -2.817   3.874  0.00  0.00    +0.047 C 
ATOM      2  C   UNL     1       2.961  -2.079   4.922  0.00  0.00    +0.027 C 
ATOM      3  C   UNL     1       3.497  -3.096   5.893  0.00  0.00    +0.193 C 
ATOM      4  C   UNL     1       3.194  -2.862   7.342  0.00  0.00    +0.276 C 
ATOM      5  O   UNL     1       3.078  -1.749   7.798  0.00  0.00    -0.270 OA
ATOM      6  N   UNL     1       3.056  -3.970   8.114  0.00  0.00    -0.081 NA
ATOM      7  N   UNL     1       3.058  -5.120   7.667  0.00  0.00    -0.163 NA
ATOM      8  C   UNL     1       3.169  -5.432   6.230  0.00  0.00    +0.272 C 
ATOM      9  N   UNL     1       2.684  -4.289   5.492  0.00  0.00    -0.178 NA
ATOM     10  N   UNL     1       2.733  -4.190   4.147  0.00  0.00    -0.274 N 
ATOM     11  H   UNL     1       2.881  -4.905   3.508  0.00  0.00    +0.167 HD
ENDROOT
BRANCH   1  15
ATOM     12  C   UNL     1       0.776  -1.248   0.327  0.00  0.00    +0.162 A 
ATOM     13  C   UNL     1       1.193  -0.390   1.334  0.00  0.00    +0.050 A 
ATOM     14  C   UNL     1       1.760  -0.896   2.485  0.00  0.00    +0.013 A 
ATOM     15  C   UNL     1       1.915  -2.273   2.639  0.00  0.00    +0.000 A 
ATOM     16  C   UNL     1       1.496  -3.137   1.627  0.00  0.00    +0.059 A 
ATOM     17  C   UNL     1       0.924  -2.625   0.477  0.00  0.00    +0.162 A 
BRANCH  12  19
ATOM     18  C   UNL     1       0.098   0.676  -0.894  0.00  0.00    +0.277 C 
ATOM     19  O   UNL     1       0.219  -0.745  -0.806  0.00  0.00    -0.491 OA
ENDBRANCH  12  19
BRANCH  17  20
ATOM     20  O   UNL     1       0.509  -3.465  -0.508  0.00  0.00    -0.491 OA
ATOM     21  C   UNL     1       0.691  -4.865  -0.287  0.00  0.00    +0.277 C 
ENDBRANCH  17  20
ENDBRANCH   1  15
BRANCH   8  22
ATOM     22  S   UNL     1       4.904  -5.733   5.795  0.00  0.00    -0.106 S 
BRANCH  22  23
ATOM     23  C   UNL     1       5.243  -7.386   6.459  0.00  0.00    +0.171 C 
BRANCH  23  24
ATOM     24  C   UNL     1       6.654  -7.787   6.112  0.00  0.00    +0.238 A 
ATOM     25  N   UNL     1       7.710  -7.561   6.841  0.00  0.00    -0.191 NA
ATOM     26  C   UNL     1       8.803  -8.053   6.231  0.00  0.00    +0.202 A 
ATOM     27  N   UNL     1       8.440  -8.601   5.098  0.00  0.00    -0.056 NA
ATOM     28  O   UNL     1       7.033  -8.440   5.006  0.00  0.00    -0.337 OA
BRANCH  26  29
ATOM     29  C   UNL     1      10.190  -7.986   6.756  0.00  0.00    +0.024 A 
ATOM     30  C   UNL     1      10.445  -7.378   7.983  0.00  0.00    +0.012 A 
ATOM     31  C   UNL     1      11.737  -7.318   8.466  0.00  0.00    +0.002 A 
ATOM     32  C   UNL     1      12.778  -7.860   7.734  0.00  0.00    +0.020 A 
ATOM     33  C   UNL     1      12.531  -8.466   6.514  0.00  0.00    +0.042 A 
ATOM     34  C   UNL     1      11.241  -8.536   6.025  0.00  0.00    +0.031 A 
ATOM     35 CL   UNL     1      13.843  -9.143   5.602  0.00  0.00    -0.084 Cl
ENDBRANCH  26  29
ENDBRANCH  23  24
ENDBRANCH  22  23
ENDBRANCH   8  22
TORSDOF 7
