REMARK  Name = ZINC40054873
REMARK  13 active torsions:
REMARK  status: ('A' for Active; 'I' for Inactive)
REMARK    1  A    between atoms: C_1  and  N_2
REMARK    2  A    between atoms: N_2  and  C_3
REMARK    3  A    between atoms: N_2  and  C_4
REMARK    4  A    between atoms: C_7  and  C_10
REMARK    5  A    between atoms: C_12  and  C_22
REMARK    6  A    between atoms: N_16  and  C_17
REMARK    7  A    between atoms: C_17  and  C_18
REMARK    8  A    between atoms: C_18  and  C_19
REMARK    9  A    between atoms: C_19  and  O_20
REMARK   10  A    between atoms: C_22  and  C_24
REMARK   11  A    between atoms: C_28  and  O_30
REMARK   12  A    between atoms: O_30  and  C_31
REMARK   13  A    between atoms: C_31  and  C_32
REMARK                            x       y       z     vdW  Elec       q    Type
REMARK                         _______ _______ _______ _____ _____    ______ ____
ROOT
ATOM      1  C   UNL     1      -4.352  -2.603   0.169  0.00  0.00    +0.145 C 
ATOM      2  C   UNL     1      -5.184  -2.947   1.383  0.00  0.00    +0.076 C 
ATOM      3  C   UNL     1      -6.428  -2.465   1.153  0.00  0.00    +0.249 C 
ATOM      4  C   UNL     1      -6.458  -1.810  -0.172  0.00  0.00    +0.288 C 
ATOM      5  O   UNL     1      -7.433  -1.279  -0.665  0.00  0.00    -0.266 OA
ATOM      6  N   UNL     1      -5.245  -1.890  -0.752  0.00  0.00    -0.283 N 
ATOM      7  O   UNL     1      -7.476  -2.566   2.002  0.00  0.00    -0.282 OA
ENDROOT
BRANCH   1  11
ATOM      8  C   UNL     1      -1.083  -0.088   1.289  0.00  0.00    +0.029 A 
ATOM      9  C   UNL     1      -0.860  -1.423   0.979  0.00  0.00    +0.023 A 
ATOM     10  C   UNL     1      -1.918  -2.233   0.617  0.00  0.00    +0.007 A 
ATOM     11  C   UNL     1      -3.200  -1.717   0.565  0.00  0.00    -0.022 A 
ATOM     12  C   UNL     1      -3.426  -0.388   0.873  0.00  0.00    +0.007 A 
ATOM     13  C   UNL     1      -2.373   0.426   1.241  0.00  0.00    +0.023 A 
BRANCH   8  15
ATOM     14  C   UNL     1      -0.254   2.141   1.989  0.00  0.00    +0.129 C 
ATOM     15  N   UNL     1      -0.015   0.734   1.655  0.00  0.00    -0.336 N 
ATOM     16  C   UNL     1       1.344   0.190   1.706  0.00  0.00    +0.129 C 
ENDBRANCH   8  15
ENDBRANCH   1  11
BRANCH   2  17
ATOM     17  C   UNL     1      -4.731  -3.664   2.578  0.00  0.00    +0.195 C 
ATOM     18  O   UNL     1      -4.721  -3.103   3.658  0.00  0.00    -0.287 OA
BRANCH  17  19
ATOM     19  C   UNL     1      -4.286  -5.070   2.473  0.00  0.00    +0.026 A 
ATOM     20  C   UNL     1      -4.400  -5.752   1.259  0.00  0.00    +0.012 A 
ATOM     21  C   UNL     1      -3.983  -7.064   1.164  0.00  0.00    +0.004 A 
ATOM     22  C   UNL     1      -3.452  -7.707   2.267  0.00  0.00    +0.046 A 
ATOM     23  C   UNL     1      -3.335  -7.037   3.478  0.00  0.00    +0.122 A 
ATOM     24  C   UNL     1      -3.745  -5.719   3.583  0.00  0.00    +0.057 A 
BRANCH  23  25
ATOM     25  O   UNL     1      -2.813  -7.675   4.559  0.00  0.00    -0.487 OA
BRANCH  25  26
ATOM     26  C   UNL     1      -2.405  -9.032   4.377  0.00  0.00    +0.264 C 
BRANCH  26  27
ATOM     27  C   UNL     1      -1.855  -9.570   5.673  0.00  0.00    -0.010 A 
ATOM     28  C   UNL     1      -0.509  -9.441   5.959  0.00  0.00    +0.008 A 
ATOM     29  C   UNL     1      -0.004  -9.933   7.148  0.00  0.00    +0.020 A 
ATOM     30  C   UNL     1      -0.847 -10.556   8.052  0.00  0.00    +0.041 A 
ATOM     31  C   UNL     1      -2.194 -10.685   7.765  0.00  0.00    +0.020 A 
ATOM     32  C   UNL     1      -2.699 -10.187   6.578  0.00  0.00    +0.008 A 
ATOM     33 CL   UNL     1      -0.214 -11.175   9.544  0.00  0.00    -0.084 Cl
ENDBRANCH  26  27
ENDBRANCH  25  26
ENDBRANCH  23  25
ENDBRANCH  17  19
ENDBRANCH   2  17
BRANCH   6  34
ATOM     34  C   UNL     1      -4.880  -1.359  -2.068  0.00  0.00    +0.111 C 
BRANCH  34  35
ATOM     35  C   UNL     1      -5.126  -2.428  -3.135  0.00  0.00    +0.047 C 
BRANCH  35  36
ATOM     36  C   UNL     1      -4.746  -1.873  -4.509  0.00  0.00    +0.157 C 
BRANCH  36  37
ATOM     37  O   UNL     1      -4.976  -2.871  -5.506  0.00  0.00    -0.395 OA
ATOM     38  H   UNL     1      -4.755  -2.588  -6.404  0.00  0.00    +0.209 HD
ENDBRANCH  36  37
ENDBRANCH  35  36
ENDBRANCH  34  35
ENDBRANCH   6  34
TORSDOF 11
