REMARK  Name = ZINC00876525
REMARK  7 active torsions:
REMARK  status: ('A' for Active; 'I' for Inactive)
REMARK    1  A    between atoms: C_1  and  C_2
REMARK    2  A    between atoms: C_4  and  C_31
REMARK    3  A    between atoms: C_7  and  C_14
REMARK    4  A    between atoms: C_16  and  C_29
REMARK    5  A    between atoms: C_17  and  N_28
REMARK    6  A    between atoms: C_24  and  C_26
REMARK    7  A    between atoms: C_24  and  C_27
REMARK                            x       y       z     vdW  Elec       q    Type
REMARK                         _______ _______ _______ _____ _____    ______ ____
ROOT
ATOM      1  C   UNL     1      -2.518   4.282   0.047  0.00  0.00    +0.106 C 
ATOM      2  C   UNL     1      -2.561   5.137   1.283  0.00  0.00    +0.098 C 
ATOM      3  C   UNL     1      -2.279   6.458   1.216  0.00  0.00    +0.198 C 
ATOM      4  O   UNL     1      -1.950   7.043   0.053  0.00  0.00    -0.445 OA
ATOM      5  C   UNL     1      -2.307   6.467  -1.110  0.00  0.00    +0.115 C 
ATOM      6  C   UNL     1      -2.584   5.152  -1.185  0.00  0.00    +0.046 C 
ATOM      7  C   UNL     1      -2.940   4.548  -2.406  0.00  0.00    +0.164 C 
ATOM      8  O   UNL     1      -3.198   3.361  -2.430  0.00  0.00    -0.292 OA
ATOM      9  C   UNL     1      -3.006   5.345  -3.680  0.00  0.00    +0.086 C 
ATOM     10  C   UNL     1      -2.030   6.522  -3.579  0.00  0.00    -0.021 C 
ATOM     11  C   UNL     1      -2.387   7.343  -2.339  0.00  0.00    +0.081 C 
ATOM     12  C   UNL     1      -0.600   5.994  -3.454  0.00  0.00    +0.012 C 
ATOM     13  C   UNL     1      -2.148   7.395  -4.830  0.00  0.00    +0.012 C 
ENDROOT
BRANCH   1  20
ATOM     14  C   UNL     1       3.701  -0.711  -0.038  0.00  0.00    +0.044 C 
ATOM     15  C   UNL     1       2.394   0.039  -0.021  0.00  0.00    -0.048 A 
ATOM     16  C   UNL     1       1.197  -0.665  -0.013  0.00  0.00    +0.007 A 
ATOM     17  C   UNL     1       0.002  -0.004   0.002  0.00  0.00    -0.041 A 
ATOM     18  C   UNL     1      -0.017   1.395   0.010  0.00  0.00    +0.002 A 
ATOM     19  C   UNL     1      -1.280   2.135   0.032  0.00  0.00    +0.020 A 
ATOM     20  C   UNL     1      -1.237   3.490   0.032  0.00  0.00    +0.030 A 
ATOM     21  C   UNL     1       0.005   4.161   0.023  0.00  0.00    +0.253 A 
ATOM     22  O   UNL     1       0.021   5.380   0.030  0.00  0.00    -0.268 OA
ATOM     23  N   UNL     1       1.170   3.490   0.009  0.00  0.00    -0.322 N 
ATOM     24  H   UNL     1       2.031   3.998   0.004  0.00  0.00    +0.169 HD
ATOM     25  C   UNL     1       1.194   2.112   0.002  0.00  0.00    +0.050 A 
ATOM     26  C   UNL     1       2.399   1.417  -0.013  0.00  0.00    +0.029 A 
ATOM     27  C   UNL     1      -1.291  -0.778   0.011  0.00  0.00    +0.044 C 
ENDBRANCH   1  20
BRANCH   3  28
ATOM     28  N   UNL     1      -2.331   7.217   2.359  0.00  0.00    -0.328 N 
ATOM     29  H   UNL     1      -2.130   8.165   2.321  0.00  0.00    +0.145 HD
ATOM     30  H   UNL     1      -2.567   6.804   3.204  0.00  0.00    +0.145 HD
ENDBRANCH   3  28
BRANCH   2  31
ATOM     31  C   UNL     1      -2.903   4.549   2.543  0.00  0.00    +0.101 C 
ATOM     32  N   UNL     1      -3.175   4.083   3.543  0.00  0.00    -0.191 NA
ENDBRANCH   2  31
TORSDOF 3
