REMARK  Name = ZINC15279927
REMARK  10 active torsions:
REMARK  status: ('A' for Active; 'I' for Inactive)
REMARK    1  A    between atoms: C_1  and  C_2
REMARK    2  A    between atoms: C_3  and  N_15
REMARK    3  A    between atoms: N_6  and  C_9
REMARK    4  A    between atoms: N_7  and  C_8
REMARK    5  A    between atoms: C_16  and  C_18
REMARK    6  A    between atoms: C_18  and  C_20
REMARK    7  A    between atoms: C_18  and  O_21
REMARK    8  A    between atoms: O_21  and  C_22
REMARK    9  A    between atoms: C_22  and  C_24
REMARK   10  A    between atoms: C_24  and  C_25
REMARK                            x       y       z     vdW  Elec       q    Type
REMARK                         _______ _______ _______ _____ _____    ______ ____
ROOT
ATOM      1  C   UNL     1       4.813   6.238  -3.792  0.00  0.00    +0.259 C 
ATOM      2  C   UNL     1       5.293   7.451  -4.592  0.00  0.00    +0.062 C 
ENDROOT
BRANCH   1   4
ATOM      3  N   UNL     1       6.528   4.720  -4.727  0.00  0.00    -0.277 N 
ATOM      4  C   UNL     1       5.947   5.258  -3.636  0.00  0.00    +0.258 C 
ATOM      5  O   UNL     1       6.338   4.953  -2.529  0.00  0.00    -0.271 OA
ATOM      6  H   UNL     1       6.169   4.905  -5.609  0.00  0.00    +0.155 HD
BRANCH   3   9
ATOM      7  C   UNL     1       6.708   1.833  -5.751  0.00  0.00    +0.067 C 
ATOM      8  C   UNL     1       7.772   2.613  -5.024  0.00  0.00    +0.059 A 
ATOM      9  C   UNL     1       7.656   3.887  -4.587  0.00  0.00    +0.121 A 
ATOM     10  C   UNL     1       8.923   4.243  -3.946  0.00  0.00    +0.293 A 
ATOM     11  O   UNL     1       9.201   5.312  -3.434  0.00  0.00    -0.264 OA
ATOM     12  N   UNL     1       9.722   3.159  -4.028  0.00  0.00    -0.216 N 
ATOM     13  N   UNL     1       9.019   2.150  -4.696  0.00  0.00    -0.282 N 
ATOM     14  C   UNL     1       9.533   0.812  -4.995  0.00  0.00    +0.171 C 
BRANCH  12  15
ATOM     15  C   UNL     1      11.028   3.063  -3.536  0.00  0.00    +0.067 A 
ATOM     16  C   UNL     1      11.406   1.964  -2.776  0.00  0.00    +0.028 A 
ATOM     17  C   UNL     1      12.698   1.869  -2.297  0.00  0.00    +0.002 A 
ATOM     18  C   UNL     1      13.611   2.872  -2.564  0.00  0.00    +0.000 A 
ATOM     19  C   UNL     1      13.237   3.970  -3.316  0.00  0.00    +0.002 A 
ATOM     20  C   UNL     1      11.948   4.068  -3.803  0.00  0.00    +0.028 A 
ENDBRANCH  12  15
ENDBRANCH   3   9
ENDBRANCH   1   4
BRANCH   1  21
ATOM     21  O   UNL     1       4.363   6.670  -2.481  0.00  0.00    -0.452 OA
BRANCH  21  22
ATOM     22  C   UNL     1       3.069   7.005  -2.361  0.00  0.00    +0.312 C 
ATOM     23  O   UNL     1       2.336   6.940  -3.320  0.00  0.00    -0.250 OA
BRANCH  22  24
ATOM     24  C   UNL     1       2.529   7.463  -1.031  0.00  0.00    +0.159 C 
BRANCH  24  25
ATOM     25  C   UNL     1       1.061   7.776  -1.165  0.00  0.00    +0.009 A 
ATOM     26  C   UNL     1       0.510   8.979  -1.397  0.00  0.00    +0.200 A 
ATOM     27  O   UNL     1      -0.827   8.867  -1.452  0.00  0.00    -0.463 OA
ATOM     28  C   UNL     1      -1.211   7.588  -1.260  0.00  0.00    +0.136 A 
ATOM     29  C   UNL     1      -0.051   6.832  -1.069  0.00  0.00    +0.032 A 
ATOM     30  C   UNL     1      -0.163   5.399  -0.835  0.00  0.00    -0.007 A 
ATOM     31  C   UNL     1       0.962   4.591  -0.638  0.00  0.00    +0.009 A 
ATOM     32  C   UNL     1       0.806   3.254  -0.423  0.00  0.00    +0.001 A 
ATOM     33  C   UNL     1      -0.462   2.679  -0.397  0.00  0.00    +0.001 A 
ATOM     34  C   UNL     1      -1.578   3.434  -0.590  0.00  0.00    +0.008 A 
ATOM     35  C   UNL     1      -1.454   4.816  -0.808  0.00  0.00    -0.017 A 
ATOM     36  C   UNL     1      -2.586   5.630  -1.007  0.00  0.00    +0.012 A 
ATOM     37  C   UNL     1      -2.462   6.962  -1.224  0.00  0.00    +0.047 A 
ENDBRANCH  24  25
ENDBRANCH  22  24
ENDBRANCH  21  22
ENDBRANCH   1  21
TORSDOF 7
