REMARK  Name = ZINC59170411
REMARK  8 active torsions:
REMARK  status: ('A' for Active; 'I' for Inactive)
REMARK    1  A    between atoms: C_1  and  C_2
REMARK    2  A    between atoms: C_5  and  N_8
REMARK    3  A    between atoms: C_9  and  C_11
REMARK    4  A    between atoms: C_15  and  C_33
REMARK    5  A    between atoms: N_21  and  N_22
REMARK    6  A    between atoms: N_22  and  S_23
REMARK    7  A    between atoms: S_23  and  C_26
REMARK    8  A    between atoms: C_29  and  C_32
REMARK                            x       y       z     vdW  Elec       q    Type
REMARK                         _______ _______ _______ _____ _____    ______ ____
ROOT
ATOM      1  C   UNL     1       0.721  -6.434   0.944  0.00  0.00    +0.099 A 
ATOM      2  C   UNL     1       0.680  -7.079   2.157  0.00  0.00    +0.030 A 
ATOM      3  C   UNL     1       0.239  -8.479   2.169  0.00  0.00    +0.018 A 
ATOM      4  C   UNL     1      -0.084  -9.116   3.371  0.00  0.00    +0.015 A 
ATOM      5  C   UNL     1      -0.498 -10.430   3.356  0.00  0.00    -0.050 A 
ATOM      6  C   UNL     1      -0.596 -11.121   2.158  0.00  0.00    +0.007 A 
ATOM      7  C   UNL     1      -0.278 -10.504   0.963  0.00  0.00    +0.047 A 
ATOM      8  C   UNL     1       0.141  -9.184   0.956  0.00  0.00    +0.137 A 
ATOM      9  O   UNL     1       0.462  -8.567  -0.210  0.00  0.00    -0.437 OA
ATOM     10  C   UNL     1       0.309  -7.209  -0.249  0.00  0.00    +0.225 A 
ATOM     11  N   UNL     1      -0.178  -6.614  -1.301  0.00  0.00    -0.260 N 
ATOM     12  C   UNL     1      -0.846 -11.121   4.650  0.00  0.00    +0.044 C 
ATOM     13  H   UNL     1      -0.402  -5.671  -1.265  0.00  0.00    +0.189 HD
ENDROOT
BRANCH   1  15
ATOM     14  N   UNL     1       1.343  -4.296   1.951  0.00  0.00    -0.281 N 
ATOM     15  C   UNL     1       1.150  -5.030   0.836  0.00  0.00    +0.253 C 
ATOM     16  O   UNL     1       1.330  -4.531  -0.259  0.00  0.00    -0.270 OA
ATOM     17  H   UNL     1       1.300  -4.719   2.823  0.00  0.00    +0.155 HD
BRANCH  14  22
ATOM     18  C   UNL     1       2.407   1.260   1.542  0.00  0.00    +0.044 C 
ATOM     19  C   UNL     1       2.124  -0.216   1.650  0.00  0.00    -0.050 A 
ATOM     20  C   UNL     1       1.512  -0.720   2.783  0.00  0.00    +0.005 A 
ATOM     21  C   UNL     1       1.252  -2.072   2.886  0.00  0.00    +0.023 A 
ATOM     22  C   UNL     1       1.605  -2.927   1.850  0.00  0.00    +0.034 A 
ATOM     23  C   UNL     1       2.219  -2.417   0.713  0.00  0.00    +0.023 A 
ATOM     24  C   UNL     1       2.472  -1.063   0.614  0.00  0.00    +0.005 A 
ENDBRANCH  14  22
ENDBRANCH   1  15
BRANCH  11  25
ATOM     25  N   UNL     1      -0.378  -7.337  -2.485  0.00  0.00    -0.157 N 
ATOM     26  H   UNL     1      -0.233  -8.296  -2.498  0.00  0.00    +0.194 HD
BRANCH  25  27
ATOM     27  S   UNL     1      -0.864  -6.555  -3.861  0.00  0.00    +0.085 S 
ATOM     28  O   UNL     1      -0.681  -7.469  -4.934  0.00  0.00    -0.149 OA
ATOM     29  O   UNL     1      -2.122  -5.963  -3.570  0.00  0.00    -0.149 OA
BRANCH  27  30
ATOM     30  C   UNL     1       0.265  -5.229  -4.132  0.00  0.00    +0.110 A 
ATOM     31  C   UNL     1       0.032  -3.994  -3.556  0.00  0.00    +0.029 A 
ATOM     32  C   UNL     1       0.918  -2.954  -3.769  0.00  0.00    +0.005 A 
ATOM     33  C   UNL     1       2.037  -3.149  -4.557  0.00  0.00    -0.050 A 
ATOM     34  C   UNL     1       2.270  -4.384  -5.132  0.00  0.00    +0.005 A 
ATOM     35  C   UNL     1       1.387  -5.426  -4.916  0.00  0.00    +0.029 A 
ATOM     36  C   UNL     1       3.001  -2.015  -4.790  0.00  0.00    +0.044 C 
ENDBRANCH  27  30
ENDBRANCH  25  27
ENDBRANCH  11  25
TORSDOF 5
