REMARK  Name = ZINC16563090
REMARK  10 active torsions:
REMARK  status: ('A' for Active; 'I' for Inactive)
REMARK    1  A    between atoms: C_1  and  C_2
REMARK    2  A    between atoms: C_2  and  N_55
REMARK    3  A    between atoms: C_3  and  C_4
REMARK    4  A    between atoms: C_3  and  N_55
REMARK    5  A    between atoms: N_6  and  C_7
REMARK    6  A    between atoms: C_7  and  C_8
REMARK    7  A    between atoms: C_13  and  C_14
REMARK    8  A    between atoms: C_13  and  N_55
REMARK    9  A    between atoms: C_17  and  C_27
REMARK   10  A    between atoms: C_20  and  C_22
REMARK                            x       y       z     vdW  Elec       q    Type
REMARK                         _______ _______ _______ _____ _____    ______ ____
ROOT
ATOM      1  C   UNL     1      -6.894   7.800   4.629  0.00  0.00    +0.219 C 
ATOM      2  O   UNL     1      -7.315   8.239   3.579  0.00  0.00    -0.276 OA
ATOM      3  N   UNL     1      -7.480   8.153   5.790  0.00  0.00    -0.184 N 
ATOM      4  C   UNL     1      -8.627   9.063   5.927  0.00  0.00    +0.172 C 
ATOM      5  C   UNL     1      -8.877   9.107   7.448  0.00  0.00    +0.090 C 
ATOM      6  C   UNL     1      -7.810   8.199   8.018  0.00  0.00    +0.075 C 
ATOM      7  N   UNL     1      -7.093   7.721   7.057  0.00  0.00    -0.180 NA
ENDROOT
BRANCH   6   8
ATOM      8  C   UNL     1      -7.620   7.908   9.443  0.00  0.00    +0.035 A 
ATOM      9  C   UNL     1      -6.681   7.091  10.049  0.00  0.00    +0.017 A 
ATOM     10  C   UNL     1      -6.699   6.979  11.419  0.00  0.00    +0.008 A 
ATOM     11  C   UNL     1      -7.638   7.658  12.130  0.00  0.00    +0.046 A 
ATOM     12  S   UNL     1      -8.545   8.507  10.848  0.00  0.00    -0.095 S 
ENDBRANCH   6   8
BRANCH   4  13
ATOM     13  C   UNL     1      -8.282  10.434   5.405  0.00  0.00    +0.128 A 
ATOM     14  C   UNL     1      -9.104  11.241   4.710  0.00  0.00    +0.046 A 
ATOM     15  C   UNL     1      -8.376  12.419   4.424  0.00  0.00    +0.041 A 
ATOM     16  C   UNL     1      -7.153  12.261   4.962  0.00  0.00    +0.195 A 
ATOM     17  O   UNL     1      -7.104  11.060   5.559  0.00  0.00    -0.466 OA
ENDBRANCH   4  13
BRANCH   1  18
ATOM     18  C   UNL     1      -5.716   6.859   4.635  0.00  0.00    +0.021 C 
BRANCH  18  19
ATOM     19  N   UNL     1      -5.349   6.550   3.237  0.00  0.00    +0.391 N 
ATOM     20  H   UNL     1      -5.329   7.423   2.696  0.00  0.00    -0.080 HD
BRANCH  19  22
ATOM     21  C   UNL     1      -6.356   4.297   3.376  0.00  0.00    -0.017 C 
ATOM     22  C   UNL     1      -6.348   5.639   2.641  0.00  0.00    -0.081 C 
ENDBRANCH  19  22
BRANCH  19  23
ATOM     23  C   UNL     1      -4.008   5.928   3.192  0.00  0.00    +0.019 C 
BRANCH  23  24
ATOM     24  C   UNL     1      -3.567   5.827   1.755  0.00  0.00    +0.197 C 
ATOM     25  O   UNL     1      -4.297   6.214   0.868  0.00  0.00    -0.278 OA
ATOM     26  N   UNL     1      -2.361   5.306   1.456  0.00  0.00    -0.312 N 
ATOM     27  H   UNL     1      -1.776   4.996   2.166  0.00  0.00    +0.149 HD
BRANCH  26  28
ATOM     28  C   UNL     1      -1.931   5.207   0.059  0.00  0.00    +0.146 C 
BRANCH  28  29
ATOM     29  C   UNL     1      -0.556   4.594  -0.002  0.00  0.00    +0.007 A 
ATOM     30  C   UNL     1      -0.207   3.288  -0.107  0.00  0.00    +0.013 A 
ATOM     31  C   UNL     1       1.133   2.953  -0.142  0.00  0.00    +0.008 A 
ATOM     32  C   UNL     1       2.060   3.941  -0.082  0.00  0.00    +0.045 A 
ATOM     33  S   UNL     1       1.037   5.400   0.037  0.00  0.00    -0.100 S 
ENDBRANCH  28  29
ENDBRANCH  26  28
ENDBRANCH  23  24
ENDBRANCH  19  23
ENDBRANCH  18  19
ENDBRANCH   1  18
TORSDOF 9
