REMARK  Name = ZINC12279577
REMARK  9 active torsions:
REMARK  status: ('A' for Active; 'I' for Inactive)
REMARK    1  A    between atoms: C_1  and  C_2
REMARK    2  A    between atoms: C_6  and  C_8
REMARK    3  A    between atoms: C_8  and  N_64
REMARK    4  A    between atoms: C_10  and  N_19
REMARK    5  A    between atoms: C_13  and  C_15
REMARK    6  A    between atoms: C_15  and  O_17
REMARK    7  A    between atoms: O_17  and  C_18
REMARK    8  A    between atoms: C_20  and  C_22
REMARK    9  A    between atoms: C_23  and  C_33
REMARK                            x       y       z     vdW  Elec       q    Type
REMARK                         _______ _______ _______ _____ _____    ______ ____
ROOT
ATOM      1  N   UNL     1      -1.545   3.927  -3.844  0.00  0.00    -0.309 N 
ATOM      2  C   UNL     1      -2.821   3.718  -4.224  0.00  0.00    +0.261 C 
ATOM      3  O   UNL     1      -3.603   4.650  -4.271  0.00  0.00    -0.269 OA
ATOM      4  H   UNL     1      -0.922   3.184  -3.806  0.00  0.00    +0.149 HD
ENDROOT
BRANCH   2   5
ATOM      5  C   UNL     1      -3.268   2.367  -4.582  0.00  0.00    +0.111 A 
ATOM      6  C   UNL     1      -4.547   2.024  -4.982  0.00  0.00    +0.020 A 
ATOM      7  C   UNL     1      -4.529   0.579  -5.237  0.00  0.00    +0.010 A 
ATOM      8  C   UNL     1      -5.496  -0.337  -5.659  0.00  0.00    +0.030 A 
ATOM      9  C   UNL     1      -5.166  -1.655  -5.802  0.00  0.00    +0.042 A 
ATOM     10  C   UNL     1      -3.876  -2.093  -5.530  0.00  0.00    +0.022 A 
ATOM     11  C   UNL     1      -2.907  -1.208  -5.113  0.00  0.00    +0.027 A 
ATOM     12  C   UNL     1      -3.220   0.142  -4.961  0.00  0.00    +0.048 A 
ATOM     13  N   UNL     1      -2.482   1.234  -4.569  0.00  0.00    -0.350 N 
ATOM     14  H   UNL     1      -1.544   1.211  -4.321  0.00  0.00    +0.166 HD
ATOM     15 CL   UNL     1      -6.369  -2.792  -6.326  0.00  0.00    -0.084 Cl
BRANCH   6  16
ATOM     16  C   UNL     1      -5.704   2.935  -5.126  0.00  0.00    -0.015 A 
ATOM     17  C   UNL     1      -6.820   2.785  -4.302  0.00  0.00    +0.008 A 
ATOM     18  C   UNL     1      -7.894   3.641  -4.438  0.00  0.00    +0.001 A 
ATOM     19  C   UNL     1      -7.870   4.639  -5.396  0.00  0.00    +0.000 A 
ATOM     20  C   UNL     1      -6.768   4.789  -6.220  0.00  0.00    +0.001 A 
ATOM     21  C   UNL     1      -5.686   3.943  -6.090  0.00  0.00    +0.008 A 
ENDBRANCH   6  16
ENDBRANCH   2   5
BRANCH   1  23
ATOM     22  C   UNL     1      -1.388   5.558  -2.000  0.00  0.00    -0.055 C 
ATOM     23  C   UNL     1      -1.099   5.276  -3.486  0.00  0.00    +0.056 C 
ATOM     24  C   UNL     1       0.436   5.388  -3.627  0.00  0.00    +0.016 C 
ATOM     25  C   UNL     1       0.935   5.156  -2.179  0.00  0.00    +0.045 C 
ATOM     26  N   UNL     1      -0.088   5.840  -1.380  0.00  0.00    +0.392 N 
ATOM     27  H   UNL     1       0.087   6.852  -1.385  0.00  0.00    -0.080 HD
BRANCH  25  28
ATOM     28  C   UNL     1       2.290   5.784  -1.976  0.00  0.00    +0.293 C 
ATOM     29  O   UNL     1       2.417   6.717  -1.220  0.00  0.00    -0.253 OA
BRANCH  28  30
ATOM     30  O   UNL     1       3.357   5.306  -2.637  0.00  0.00    -0.469 OA
ATOM     31  C   UNL     1       4.630   5.959  -2.393  0.00  0.00    +0.280 C 
ENDBRANCH  28  30
ENDBRANCH  25  28
BRANCH  26  32
ATOM     32  C   UNL     1      -0.070   5.347   0.030  0.00  0.00    -0.042 C 
BRANCH  32  38
ATOM     33  C   UNL     1       2.490   1.048  -0.016  0.00  0.00    +0.044 C 
ATOM     34  C   UNL     1       1.175   1.783   0.000  0.00  0.00    -0.050 A 
ATOM     35  C   UNL     1      -0.013   1.076   0.008  0.00  0.00    +0.003 A 
ATOM     36  C   UNL     1      -1.219   1.750   0.017  0.00  0.00    +0.000 A 
ATOM     37  C   UNL     1      -1.238   3.133   0.029  0.00  0.00    +0.002 A 
ATOM     38  C   UNL     1      -0.050   3.840   0.022  0.00  0.00    -0.064 A 
ATOM     39  C   UNL     1       1.157   3.165   0.008  0.00  0.00    +0.005 A 
ENDBRANCH  32  38
ENDBRANCH  26  32
ENDBRANCH   1  23
TORSDOF 7
