REMARK  Name = ZINC34799455
REMARK  10 active torsions:
REMARK  status: ('A' for Active; 'I' for Inactive)
REMARK    1  A    between atoms: C_1  and  C_2
REMARK    2  A    between atoms: C_5  and  C_8
REMARK    3  A    between atoms: C_8  and  C_9
REMARK    4  A    between atoms: C_17  and  C_20
REMARK    5  A    between atoms: C_20  and  N_21
REMARK    6  A    between atoms: N_21  and  S_22
REMARK    7  A    between atoms: S_22  and  C_25
REMARK    8  A    between atoms: C_25  and  C_26
REMARK    9  A    between atoms: C_31  and  C_32
REMARK   10  A    between atoms: C_31  and  C_33
REMARK                            x       y       z     vdW  Elec       q    Type
REMARK                         _______ _______ _______ _____ _____    ______ ____
ROOT
ATOM      1  C   UNL     1       1.487  -4.759  -0.032  0.00  0.00    +0.145 A 
ATOM      2  N   UNL     1       2.121  -4.965  -1.165  0.00  0.00    -0.208 NA
ATOM      3  C   UNL     1       3.372  -5.390  -1.100  0.00  0.00    +0.181 A 
ATOM      4  S   UNL     1       3.635  -5.493   0.557  0.00  0.00    +0.049 S 
ATOM      5  N   UNL     1       2.130  -4.981   1.087  0.00  0.00    -0.192 NA
ATOM      6  N   UNL     1       4.244  -5.678  -2.135  0.00  0.00    -0.308 N 
ATOM      7  C   UNL     1       3.824  -5.518  -3.533  0.00  0.00    +0.107 C 
ATOM      8  C   UNL     1       4.838  -4.623  -4.253  0.00  0.00    +0.024 C 
ATOM      9  C   UNL     1       6.242  -5.209  -4.081  0.00  0.00    +0.007 C 
ATOM     10  C   UNL     1       6.602  -5.247  -2.594  0.00  0.00    +0.024 C 
ATOM     11  C   UNL     1       5.609  -6.143  -1.855  0.00  0.00    +0.107 C 
ENDROOT
BRANCH   1  12
ATOM     12  C   UNL     1       0.059  -4.275  -0.021  0.00  0.00    +0.112 C 
BRANCH  12  17
ATOM     13  C   UNL     1      -0.018   1.503   0.010  0.00  0.00    +0.044 C 
ATOM     14  C   UNL     1       0.002  -0.004   0.002  0.00  0.00    -0.050 A 
ATOM     15  C   UNL     1       0.006  -0.689  -1.199  0.00  0.00    +0.003 A 
ATOM     16  C   UNL     1       0.025  -2.071  -1.206  0.00  0.00    +0.004 A 
ATOM     17  C   UNL     1       0.040  -2.768  -0.013  0.00  0.00    -0.040 A 
ATOM     18  C   UNL     1       0.037  -2.084   1.188  0.00  0.00    +0.004 A 
ATOM     19  C   UNL     1       0.023  -0.702   1.195  0.00  0.00    +0.003 A 
ENDBRANCH  12  17
ENDBRANCH   1  12
BRANCH   9  20
ATOM     20  C   UNL     1       7.253  -4.337  -4.828  0.00  0.00    +0.109 C 
BRANCH  20  21
ATOM     21  N   UNL     1       8.577  -4.961  -4.764  0.00  0.00    -0.194 NA
ATOM     22  H   UNL     1       8.748  -5.672  -4.126  0.00  0.00    +0.148 HD
BRANCH  21  23
ATOM     23  S   UNL     1       9.782  -4.453  -5.780  0.00  0.00    +0.030 S 
ATOM     24  O   UNL     1      10.895  -5.277  -5.463  0.00  0.00    -0.158 OA
ATOM     25  O   UNL     1       9.201  -4.487  -7.076  0.00  0.00    -0.158 OA
BRANCH  23  26
ATOM     26  C   UNL     1      10.114  -2.738  -5.288  0.00  0.00    +0.200 C 
BRANCH  26  27
ATOM     27  C   UNL     1      11.223  -2.161  -6.170  0.00  0.00    +0.055 C 
ATOM     28  C   UNL     1      12.608  -2.871  -6.073  0.00  0.00    +0.017 C 
ATOM     29  C   UNL     1      13.617  -1.832  -6.612  0.00  0.00    +0.005 C 
ATOM     30  C   UNL     1      12.742  -0.597  -6.989  0.00  0.00    +0.003 C 
ATOM     31  C   UNL     1      11.637  -0.676  -5.876  0.00  0.00    -0.018 C 
ATOM     32  C   UNL     1      10.489   0.303  -6.135  0.00  0.00    +0.012 C 
ATOM     33  C   UNL     1      12.222  -0.508  -4.473  0.00  0.00    +0.012 C 
ATOM     34  C   UNL     1      11.937  -1.064  -8.241  0.00  0.00    +0.079 C 
ATOM     35  C   UNL     1      10.912  -2.083  -7.671  0.00  0.00    +0.142 C 
ATOM     36  O   UNL     1      10.070  -2.700  -8.278  0.00  0.00    -0.297 OA
ENDBRANCH  26  27
ENDBRANCH  23  26
ENDBRANCH  21  23
ENDBRANCH  20  21
ENDBRANCH   9  20
TORSDOF 7
