REMARK  Name = ZINC10817086
REMARK  12 active torsions:
REMARK  status: ('A' for Active; 'I' for Inactive)
REMARK    1  A    between atoms: C_1  and  C_2
REMARK    2  A    between atoms: C_2  and  N_56
REMARK    3  A    between atoms: C_3  and  C_4
REMARK    4  A    between atoms: C_3  and  N_56
REMARK    5  A    between atoms: C_5  and  C_6
REMARK    6  A    between atoms: C_5  and  N_56
REMARK    7  A    between atoms: C_6  and  N_7
REMARK    8  A    between atoms: C_13  and  S_17
REMARK    9  A    between atoms: S_17  and  C_18
REMARK   10  A    between atoms: C_19  and  C_21
REMARK   11  A    between atoms: C_23  and  N_30
REMARK   12  A    between atoms: C_25  and  N_27
REMARK                            x       y       z     vdW  Elec       q    Type
REMARK                         _______ _______ _______ _____ _____    ______ ____
ROOT
ATOM      1  N   UNL     1      -0.360   4.799   0.223  0.00  0.00    -0.248 N 
ATOM      2  C   UNL     1       0.001   3.732  -0.582  0.00  0.00    +0.168 A 
ATOM      3  N   UNL     1       1.202   3.291  -0.874  0.00  0.00    -0.224 NA
ATOM      4  C   UNL     1       1.409   2.228  -1.683  0.00  0.00    +0.080 A 
ATOM      5  C   UNL     1       2.642   1.656  -2.074  0.00  0.00    +0.030 A 
ATOM      6  C   UNL     1       2.682   0.578  -2.901  0.00  0.00    +0.017 A 
ATOM      7  C   UNL     1       1.516  -0.006  -3.396  0.00  0.00    +0.009 A 
ATOM      8  C   UNL     1       0.286   0.528  -3.034  0.00  0.00    +0.032 A 
ATOM      9  C   UNL     1       0.243   1.616  -2.199  0.00  0.00    +0.042 A 
ATOM     10  S   UNL     1      -1.050   2.611  -1.495  0.00  0.00    -0.052 S 
ATOM     11  C   UNL     1      -1.662   5.099   0.402  0.00  0.00    +0.252 C 
ATOM     12  O   UNL     1      -2.521   4.389  -0.085  0.00  0.00    -0.270 OA
ENDROOT
BRANCH  11  13
ATOM     13  C   UNL     1      -2.046   6.289   1.189  0.00  0.00    +0.042 A 
ATOM     14  C   UNL     1      -1.255   7.439   1.152  0.00  0.00    +0.046 A 
ATOM     15  C   UNL     1      -1.621   8.548   1.885  0.00  0.00    +0.129 A 
ATOM     16  C   UNL     1      -2.764   8.520   2.664  0.00  0.00    +0.065 A 
ATOM     17  C   UNL     1      -3.550   7.382   2.709  0.00  0.00    +0.129 A 
ATOM     18  C   UNL     1      -3.198   6.268   1.977  0.00  0.00    +0.046 A 
BRANCH  17  19
ATOM     19  N   UNL     1      -4.771   7.361   3.545  0.00  0.00    +0.057 N 
ATOM     20  O   UNL     1      -5.465   6.361   3.585  0.00  0.00    -0.126 OA
ATOM     21  O   UNL     1      -5.083   8.345   4.192  0.00  0.00    -0.126 OA
ENDBRANCH  17  19
BRANCH  15  22
ATOM     22  N   UNL     1      -0.786   9.770   1.843  0.00  0.00    +0.057 N 
ATOM     23  O   UNL     1      -1.037  10.705   2.582  0.00  0.00    -0.126 OA
ATOM     24  O   UNL     1       0.152   9.840   1.069  0.00  0.00    -0.126 OA
ENDBRANCH  15  22
ENDBRANCH  11  13
BRANCH   7  25
ATOM     25  S   UNL     1       1.603  -1.403  -4.466  0.00  0.00    -0.129 S 
ATOM     26  C   UNL     1       3.382  -1.716  -4.636  0.00  0.00    +0.090 C 
ENDBRANCH   7  25
BRANCH   1  27
ATOM     27  C   UNL     1       0.673   5.603   0.882  0.00  0.00    +0.097 C 
BRANCH  27  28
ATOM     28  C   UNL     1       1.699   6.063  -0.155  0.00  0.00    -0.059 C 
BRANCH  28  29
ATOM     29  N   UNL     1       2.709   6.909   0.513  0.00  0.00    +0.380 N 
ATOM     30  H   UNL     1       2.237   7.706   0.956  0.00  0.00    -0.082 HD
BRANCH  29  32
ATOM     31  C   UNL     1       4.287   7.080   2.375  0.00  0.00    -0.017 C 
ATOM     32  C   UNL     1       3.413   6.130   1.553  0.00  0.00    -0.082 C 
ENDBRANCH  29  32
BRANCH  29  33
ATOM     33  C   UNL     1       3.679   7.418  -0.480  0.00  0.00    -0.082 C 
ATOM     34  C   UNL     1       3.049   8.600  -1.219  0.00  0.00    -0.017 C 
ENDBRANCH  29  33
ENDBRANCH  28  29
ENDBRANCH  27  28
ENDBRANCH   1  27
TORSDOF 9
