REMARK  Name = ZINC22399831
REMARK  12 active torsions:
REMARK  status: ('A' for Active; 'I' for Inactive)
REMARK    1  A    between atoms: C_1  and  C_2
REMARK    2  A    between atoms: C_2  and  C_3
REMARK    3  A    between atoms: C_2  and  O_4
REMARK    4  A    between atoms: O_4  and  C_5
REMARK    5  A    between atoms: C_8  and  N_11
REMARK    6  A    between atoms: N_11  and  C_12
REMARK    7  A    between atoms: N_11  and  S_31
REMARK    8  A    between atoms: C_12  and  C_13
REMARK    9  A    between atoms: N_15  and  C_16
REMARK   10  A    between atoms: C_21  and  C_22
REMARK   11  A    between atoms: C_22  and  C_24
REMARK   12  A    between atoms: S_31  and  C_34
REMARK                            x       y       z     vdW  Elec       q    Type
REMARK                         _______ _______ _______ _____ _____    ______ ____
ROOT
ATOM      1  C   UNL     1      -0.035  -0.465   0.815  0.00  0.00    +0.236 C 
ATOM      2  O   UNL     1      -0.116   0.152  -0.227  0.00  0.00    -0.274 OA
ATOM      3  N   UNL     1      -1.028  -1.298   1.183  0.00  0.00    -0.284 N 
ATOM      4  H   UNL     1      -0.995  -1.793   2.164  0.00  0.00    +0.155 HD
ENDROOT
BRANCH   3   5
ATOM      5  C   UNL     1      -2.097  -1.532   0.321  0.00  0.00    +0.044 A 
ATOM      6  C   UNL     1      -2.545  -0.525  -0.524  0.00  0.00    +0.025 A 
ATOM      7  C   UNL     1      -3.600  -0.760  -1.382  0.00  0.00    +0.022 A 
ATOM      8  C   UNL     1      -4.229  -1.996  -1.399  0.00  0.00    +0.042 A 
ATOM      9  C   UNL     1      -3.802  -3.006  -0.564  0.00  0.00    +0.033 A 
ATOM     10  C   UNL     1      -2.731  -2.784   0.307  0.00  0.00    +0.045 A 
ATOM     11 CL   UNL     1      -5.560  -2.273  -2.479  0.00  0.00    -0.084 Cl
BRANCH  10  12
ATOM     12  C   UNL     1      -2.269  -3.859   1.203  0.00  0.00    +0.195 C 
ATOM     13  O   UNL     1      -2.903  -4.131   2.204  0.00  0.00    -0.287 OA
BRANCH  12  14
ATOM     14  C   UNL     1      -1.034  -4.607   0.885  0.00  0.00    +0.022 A 
ATOM     15  C   UNL     1      -0.260  -4.246  -0.220  0.00  0.00    +0.012 A 
ATOM     16  C   UNL     1       0.894  -4.945  -0.508  0.00  0.00    +0.001 A 
ATOM     17  C   UNL     1       1.279  -6.009   0.289  0.00  0.00    +0.000 A 
ATOM     18  C   UNL     1       0.514  -6.376   1.382  0.00  0.00    +0.001 A 
ATOM     19  C   UNL     1      -0.639  -5.682   1.685  0.00  0.00    +0.012 A 
ENDBRANCH  12  14
ENDBRANCH  10  12
ENDBRANCH   3   5
BRANCH   1  20
ATOM     20  C   UNL     1       1.176  -0.299   1.696  0.00  0.00    +0.227 C 
BRANCH  20  21
ATOM     21  N   UNL     1       2.103   0.653   1.079  0.00  0.00    -0.199 N 
BRANCH  21  25
ATOM     22  C   UNL     1       1.597   4.745   1.688  0.00  0.00    +0.121 A 
ATOM     23  C   UNL     1       0.511   3.889   1.797  0.00  0.00    +0.047 A 
ATOM     24  C   UNL     1       0.678   2.533   1.595  0.00  0.00    +0.028 A 
ATOM     25  C   UNL     1       1.933   2.027   1.283  0.00  0.00    +0.052 A 
ATOM     26  C   UNL     1       3.019   2.885   1.174  0.00  0.00    +0.028 A 
ATOM     27  C   UNL     1       2.851   4.241   1.376  0.00  0.00    +0.047 A 
BRANCH  22  28
ATOM     28  O   UNL     1       1.432   6.081   1.886  0.00  0.00    -0.489 OA
BRANCH  28  30
ATOM     29  C   UNL     1      -0.247   6.514   3.570  0.00  0.00    +0.051 C 
ATOM     30  C   UNL     1       0.095   6.548   2.079  0.00  0.00    +0.167 C 
ATOM     31  C   UNL     1      -0.023   7.982   1.561  0.00  0.00    +0.051 C 
ENDBRANCH  28  30
ENDBRANCH  22  28
ENDBRANCH  21  25
BRANCH  21  32
ATOM     32  S   UNL     1       3.351   0.103   0.141  0.00  0.00    +0.043 S 
ATOM     33  O   UNL     1       2.870  -1.106  -0.431  0.00  0.00    -0.155 OA
ATOM     34  O   UNL     1       3.698   1.207  -0.684  0.00  0.00    -0.155 OA
ATOM     35  C   UNL     1       4.693  -0.249   1.310  0.00  0.00    +0.218 C 
ENDBRANCH  21  32
ENDBRANCH  20  21
ENDBRANCH   1  20
TORSDOF 9
