REMARK  Name = ZINC09672623
REMARK  15 active torsions:
REMARK  status: ('A' for Active; 'I' for Inactive)
REMARK    1  A    between atoms: C_1  and  C_2
REMARK    2  A    between atoms: C_2  and  C_3
REMARK    3  A    between atoms: C_3  and  C_5
REMARK    4  A    between atoms: C_3  and  N_70
REMARK    5  A    between atoms: C_8  and  S_17
REMARK    6  A    between atoms: N_9  and  C_10
REMARK    7  A    between atoms: C_10  and  C_11
REMARK    8  A    between atoms: S_17  and  C_18
REMARK    9  A    between atoms: C_18  and  C_19
REMARK   10  A    between atoms: C_19  and  C_21
REMARK   11  A    between atoms: C_23  and  C_32
REMARK   12  A    between atoms: C_23  and  C_33
REMARK   13  A    between atoms: N_30  and  C_31
REMARK   14  A    between atoms: C_34  and  N_70
REMARK   15  A    between atoms: C_35  and  N_70
REMARK                            x       y       z     vdW  Elec       q    Type
REMARK                         _______ _______ _______ _____ _____    ______ ____
ROOT
ATOM      1  C   UNL     1      -9.477  -1.701   0.197  0.00  0.00    +0.121 A 
ATOM      2  N   UNL     1      -9.005  -0.487   0.174  0.00  0.00    -0.135 NA
ATOM      3  N   UNL     1      -7.726  -0.513   0.049  0.00  0.00    -0.123 NA
ATOM      4  C   UNL     1      -7.311  -1.756  -0.024  0.00  0.00    +0.192 A 
ATOM      5  N   UNL     1      -8.415  -2.553   0.072  0.00  0.00    -0.303 N 
ENDROOT
BRANCH   1   6
ATOM      6  C   UNL     1     -10.926  -2.093   0.337  0.00  0.00    +0.000 C 
BRANCH   6   9
ATOM      7  C   UNL     1     -12.946  -1.699   1.612  0.00  0.00    -0.096 C 
ATOM      8  C   UNL     1     -10.780  -1.390   2.649  0.00  0.00    -0.096 C 
ATOM      9  N   UNL     1     -11.549  -1.268   1.393  0.00  0.00    +0.383 N 
ATOM     10  H   UNL     1     -11.546  -0.286   1.093  0.00  0.00    -0.082 HD
ENDBRANCH   6   9
BRANCH   6  12
ATOM     11  C   UNL     1     -11.036  -2.707  -2.083  0.00  0.00    +0.002 C 
ATOM     12  C   UNL     1     -11.653  -1.838  -0.985  0.00  0.00    -0.011 C 
ENDBRANCH   6  12
ENDBRANCH   1   6
BRANCH   5  13
ATOM     13  C   UNL     1      -8.454  -4.017   0.046  0.00  0.00    +0.160 C 
BRANCH  13  14
ATOM     14  C   UNL     1      -8.325  -4.548   1.450  0.00  0.00    -0.028 A 
ATOM     15  C   UNL     1      -7.075  -4.827   1.971  0.00  0.00    +0.005 A 
ATOM     16  C   UNL     1      -6.955  -5.309   3.261  0.00  0.00    +0.000 A 
ATOM     17  C   UNL     1      -8.086  -5.522   4.027  0.00  0.00    +0.000 A 
ATOM     18  C   UNL     1      -9.337  -5.250   3.504  0.00  0.00    +0.000 A 
ATOM     19  C   UNL     1      -9.456  -4.762   2.216  0.00  0.00    +0.005 A 
ENDBRANCH  13  14
ENDBRANCH   5  13
BRANCH   4  20
ATOM     20  S   UNL     1      -5.643  -2.294  -0.204  0.00  0.00    -0.078 S 
BRANCH  20  21
ATOM     21  C   UNL     1      -4.800  -0.693  -0.257  0.00  0.00    +0.156 C 
BRANCH  21  22
ATOM     22  C   UNL     1      -3.317  -0.911  -0.412  0.00  0.00    +0.168 C 
ATOM     23  O   UNL     1      -2.872  -2.040  -0.479  0.00  0.00    -0.292 OA
BRANCH  22  24
ATOM     24  C   UNL     1      -2.450   0.189  -0.478  0.00  0.00    +0.067 C 
ATOM     25  C   UNL     1      -1.108  -0.005  -0.488  0.00  0.00    +0.024 C 
ATOM     26  C   UNL     1      -0.390  -1.337  -0.439  0.00  0.00    +0.030 C 
ATOM     27  C   UNL     1       1.075  -0.968  -0.483  0.00  0.00    -0.015 A 
ATOM     28  C   UNL     1       2.228  -1.722  -0.469  0.00  0.00    +0.006 A 
ATOM     29  C   UNL     1       3.462  -1.099  -0.522  0.00  0.00    +0.000 A 
ATOM     30  C   UNL     1       3.534   0.281  -0.589  0.00  0.00    +0.002 A 
ATOM     31  C   UNL     1       2.381   1.039  -0.603  0.00  0.00    +0.024 A 
ATOM     32  C   UNL     1       1.134   0.418  -0.550  0.00  0.00    +0.038 A 
ATOM     33  N   UNL     1      -0.151   0.958  -0.552  0.00  0.00    -0.305 N 
ATOM     34  C   UNL     1      -0.436   2.394  -0.615  0.00  0.00    +0.135 C 
ATOM     35  C   UNL     1      -0.717  -2.074   0.862  0.00  0.00    +0.022 C 
ATOM     36  C   UNL     1      -0.764  -2.193  -1.650  0.00  0.00    +0.022 C 
ENDBRANCH  22  24
ENDBRANCH  21  22
ENDBRANCH  20  21
ENDBRANCH   4  20
TORSDOF 9
