REMARK  Name = ZINC09541500
REMARK  7 active torsions:
REMARK  status: ('A' for Active; 'I' for Inactive)
REMARK    1  A    between atoms: C_1  and  C_2
REMARK    2  A    between atoms: C_2  and  O_3
REMARK    3  A    between atoms: O_3  and  C_4
REMARK    4  A    between atoms: C_7  and  C_10
REMARK    5  A    between atoms: C_12  and  C_25
REMARK    6  A    between atoms: C_14  and  C_17
REMARK    7  A    between atoms: C_22  and  O_23
REMARK                            x       y       z     vdW  Elec       q    Type
REMARK                         _______ _______ _______ _____ _____    ______ ____
ROOT
ATOM      1  C   UNL     1       1.170   3.561   0.009  0.00  0.00    +0.040 C 
ATOM      2  N   UNL     1       0.038   4.159   0.018  0.00  0.00    -0.299 NA
ATOM      3  C   UNL     1      -0.121   5.608   0.021  0.00  0.00    +0.081 C 
ATOM      4  C   UNL     1       2.253   5.756  -0.381  0.00  0.00    -0.028 C 
ATOM      5  C   UNL     1       2.485   4.290   0.001  0.00  0.00    +0.044 C 
ATOM      6  N   UNL     1       1.128   6.271   0.425  0.00  0.00    +0.401 N 
ATOM      7  H   UNL     1       1.307   6.084   1.418  0.00  0.00    -0.081 HD
ATOM      8  H   UNL     1       1.039   7.283   0.278  0.00  0.00    -0.081 HD
ENDROOT
BRANCH   4   9
ATOM      9  C   UNL     1       3.493   6.560  -0.088  0.00  0.00    -0.018 A 
ATOM     10  C   UNL     1       3.609   7.242   1.108  0.00  0.00    +0.025 A 
ATOM     11  C   UNL     1       4.750   7.976   1.378  0.00  0.00    +0.041 A 
ATOM     12  C   UNL     1       5.773   8.037   0.448  0.00  0.00    +0.023 A 
ATOM     13  C   UNL     1       5.658   7.362  -0.751  0.00  0.00    +0.047 A 
ATOM     14  C   UNL     1       4.517   6.620  -1.022  0.00  0.00    +0.119 A 
ATOM     15 CL   UNL     1       4.896   8.828   2.884  0.00  0.00    -0.084 Cl
BRANCH  14  16
ATOM     16  O   UNL     1       4.402   5.955  -2.202  0.00  0.00    -0.507 OA
ATOM     17  H   UNL     1       3.994   6.474  -2.908  0.00  0.00    +0.292 HD
ENDBRANCH  14  16
ENDBRANCH   4   9
BRANCH   3  18
ATOM     18  C   UNL     1      -0.501   6.064  -1.365  0.00  0.00    -0.040 A 
ATOM     19  C   UNL     1      -0.151   7.330  -1.796  0.00  0.00    +0.005 A 
ATOM     20  C   UNL     1      -0.495   7.746  -3.068  0.00  0.00    +0.015 A 
ATOM     21  C   UNL     1      -1.199   6.900  -3.906  0.00  0.00    +0.018 A 
ATOM     22  C   UNL     1      -1.554   5.636  -3.472  0.00  0.00    +0.015 A 
ATOM     23  C   UNL     1      -1.204   5.218  -2.202  0.00  0.00    +0.005 A 
ATOM     24 BR   UNL     1      -1.677   7.473  -5.644  0.00  0.00    -0.050 Br
ENDBRANCH   3  18
BRANCH   1  28
ATOM     25  C   UNL     1       1.214  -0.684  -0.014  0.00  0.00    +0.121 A 
ATOM     26  C   UNL     1       0.002  -0.004   0.002  0.00  0.00    +0.046 A 
ATOM     27  C   UNL     1      -0.017   1.373   0.010  0.00  0.00    +0.013 A 
ATOM     28  C   UNL     1       1.185   2.086   0.002  0.00  0.00    -0.004 A 
ATOM     29  C   UNL     1       2.401   1.398  -0.013  0.00  0.00    +0.013 A 
ATOM     30  C   UNL     1       2.411   0.021  -0.021  0.00  0.00    +0.046 A 
BRANCH  25  31
ATOM     31  O   UNL     1       1.228  -2.042  -0.022  0.00  0.00    -0.492 OA
BRANCH  31  33
ATOM     32  C   UNL     1       2.322  -4.196  -0.045  0.00  0.00    +0.048 C 
ATOM     33  C   UNL     1       2.507  -2.678  -0.038  0.00  0.00    +0.225 C 
ENDBRANCH  31  33
ENDBRANCH  25  31
ENDBRANCH   1  28
TORSDOF 6
