REMARK  Name = ZINC13525776
REMARK  6 active torsions:
REMARK  status: ('A' for Active; 'I' for Inactive)
REMARK    1  A    between atoms: C_1  and  C_2
REMARK    2  A    between atoms: C_2  and  C_4
REMARK    3  A    between atoms: C_2  and  O_14
REMARK    4  A    between atoms: O_14  and  C_15
REMARK    5  A    between atoms: C_15  and  C_17
REMARK    6  A    between atoms: C_31  and  C_32
REMARK                            x       y       z     vdW  Elec       q    Type
REMARK                         _______ _______ _______ _____ _____    ______ ____
ROOT
ATOM      1  C   UNL     1       4.671  -1.254  -1.954  0.00  0.00    +0.073 A 
ATOM      2  C   UNL     1       5.009  -0.297  -3.008  0.00  0.00    +0.015 A 
ATOM      3  C   UNL     1       5.175   1.064  -2.734  0.00  0.00    +0.011 A 
ATOM      4  C   UNL     1       5.491   1.922  -3.746  0.00  0.00    +0.001 A 
ATOM      5  C   UNL     1       5.652   1.460  -5.050  0.00  0.00    +0.002 A 
ATOM      6  C   UNL     1       5.497   0.141  -5.351  0.00  0.00    +0.028 A 
ATOM      7  C   UNL     1       5.170  -0.774  -4.333  0.00  0.00    +0.072 A 
ATOM      8  N   UNL     1       5.011  -2.070  -4.597  0.00  0.00    -0.247 NA
ATOM      9  C   UNL     1       4.704  -2.957  -3.662  0.00  0.00    +0.072 A 
ATOM     10  C   UNL     1       4.534  -2.588  -2.315  0.00  0.00    -0.007 A 
ATOM     11  C   UNL     1       4.207  -3.597  -1.250  0.00  0.00    +0.038 C 
ATOM     12  C   UNL     1       3.571  -4.848  -1.849  0.00  0.00    +0.009 C 
ATOM     13  C   UNL     1       4.487  -5.406  -2.947  0.00  0.00    +0.037 C 
ATOM     14  C   UNL     1       4.542  -4.372  -4.054  0.00  0.00    -0.021 C 
ATOM     15  C   UNL     1       4.463  -4.731  -5.352  0.00  0.00    +0.020 C 
ENDROOT
BRANCH  15  16
ATOM     16  C   UNL     1       4.581  -6.140  -5.730  0.00  0.00    +0.013 A 
ATOM     17  C   UNL     1       4.396  -6.732  -6.970  0.00  0.00    +0.015 A 
ATOM     18  C   UNL     1       4.566  -8.091  -7.077  0.00  0.00    +0.008 A 
ATOM     19  C   UNL     1       4.908  -8.808  -5.973  0.00  0.00    +0.046 A 
ATOM     20  S   UNL     1       5.010  -7.545  -4.715  0.00  0.00    -0.097 S 
ENDBRANCH  15  16
BRANCH   1  21
ATOM     21  C   UNL     1       4.487  -0.818  -0.554  0.00  0.00    +0.341 C 
ATOM     22  O   UNL     1       5.436  -0.793   0.204  0.00  0.00    -0.245 OA
BRANCH  21  23
ATOM     23  O   UNL     1       3.268  -0.448  -0.118  0.00  0.00    -0.449 OA
BRANCH  23  25
ATOM     24  C   UNL     1       3.400   1.471   1.345  0.00  0.00    +0.062 C 
ATOM     25  C   UNL     1       3.163  -0.037   1.247  0.00  0.00    +0.259 C 
BRANCH  25  26
ATOM     26  C   UNL     1       1.787  -0.364   1.766  0.00  0.00    +0.259 C 
ATOM     27  O   UNL     1       0.947  -0.813   1.016  0.00  0.00    -0.271 OA
ATOM     28  N   UNL     1       1.490  -0.159   3.065  0.00  0.00    -0.267 N 
ATOM     29  C   UNL     1       0.190  -0.366   3.524  0.00  0.00    +0.125 A 
ATOM     30  C   UNL     1      -0.138  -0.039   4.835  0.00  0.00    +0.045 A 
ATOM     31  C   UNL     1      -1.431  -0.250   5.278  0.00  0.00    +0.025 A 
ATOM     32  C   UNL     1      -2.357  -0.783   4.391  0.00  0.00    +0.059 A 
ATOM     33  C   UNL     1      -1.962  -1.085   3.102  0.00  0.00    +0.132 A 
ATOM     34  N   UNL     1      -0.722  -0.868   2.706  0.00  0.00    -0.239 NA
ATOM     35 CL   UNL     1      -3.994  -1.068   4.896  0.00  0.00    -0.082 Cl
ATOM     36  H   UNL     1       2.181   0.134   3.680  0.00  0.00    +0.156 HD
ENDBRANCH  25  26
ENDBRANCH  23  25
ENDBRANCH  21  23
ENDBRANCH   1  21
TORSDOF 5
