REMARK  Name = ZINC10066692
REMARK  10 active torsions:
REMARK  status: ('A' for Active; 'I' for Inactive)
REMARK    1  A    between atoms: C_1  and  C_2
REMARK    2  A    between atoms: C_2  and  N_63
REMARK    3  A    between atoms: C_3  and  C_4
REMARK    4  A    between atoms: C_3  and  N_63
REMARK    5  A    between atoms: C_5  and  C_6
REMARK    6  A    between atoms: C_5  and  N_63
REMARK    7  A    between atoms: C_6  and  N_7
REMARK    8  A    between atoms: C_11  and  O_17
REMARK    9  A    between atoms: O_17  and  C_18
REMARK   10  A    between atoms: C_19  and  C_21
REMARK                            x       y       z     vdW  Elec       q    Type
REMARK                         _______ _______ _______ _____ _____    ______ ____
ROOT
ATOM      1  N   UNL     1      -0.248   4.918   0.335  0.00  0.00    -0.248 N 
ATOM      2  C   UNL     1       0.470   4.380   1.391  0.00  0.00    +0.168 A 
ATOM      3  N   UNL     1       1.697   4.646   1.772  0.00  0.00    -0.221 NA
ATOM      4  C   UNL     1       2.276   4.039   2.832  0.00  0.00    +0.122 A 
ATOM      5  C   UNL     1       3.583   4.233   3.345  0.00  0.00    +0.146 A 
ATOM      6  C   UNL     1       4.017   3.525   4.441  0.00  0.00    +0.048 A 
ATOM      7  C   UNL     1       3.199   2.605   5.079  0.00  0.00    +0.005 A 
ATOM      8  C   UNL     1       1.918   2.393   4.604  0.00  0.00    +0.017 A 
ATOM      9  C   UNL     1       1.474   3.094   3.509  0.00  0.00    +0.044 A 
ATOM     10  S   UNL     1      -0.037   3.143   2.576  0.00  0.00    -0.052 S 
ATOM     11  C   UNL     1       0.318   5.849  -0.459  0.00  0.00    +0.259 C 
ATOM     12  O   UNL     1       1.470   6.190  -0.271  0.00  0.00    -0.269 OA
ENDROOT
BRANCH  11  13
ATOM     13  C   UNL     1      -0.459   6.451  -1.554  0.00  0.00    +0.122 A 
ATOM     14  C   UNL     1      -1.828   6.652  -1.426  0.00  0.00    +0.032 A 
ATOM     15  C   UNL     1      -2.528   7.237  -2.498  0.00  0.00    +0.026 A 
ATOM     16  C   UNL     1      -3.972   7.473  -2.404  0.00  0.00    -0.007 A 
ATOM     17  C   UNL     1      -4.695   7.136  -1.258  0.00  0.00    +0.009 A 
ATOM     18  C   UNL     1      -6.039   7.373  -1.213  0.00  0.00    +0.001 A 
ATOM     19  C   UNL     1      -6.698   7.947  -2.295  0.00  0.00    +0.001 A 
ATOM     20  C   UNL     1      -6.021   8.288  -3.428  0.00  0.00    +0.008 A 
ATOM     21  C   UNL     1      -4.638   8.057  -3.507  0.00  0.00    -0.017 A 
ATOM     22  C   UNL     1      -3.905   8.395  -4.661  0.00  0.00    +0.012 A 
ATOM     23  C   UNL     1      -2.569   8.171  -4.734  0.00  0.00    +0.047 A 
ATOM     24  C   UNL     1      -1.857   7.596  -3.675  0.00  0.00    +0.140 A 
ATOM     25  O   UNL     1      -0.528   7.394  -3.797  0.00  0.00    -0.422 OA
ATOM     26  C   UNL     1       0.194   6.846  -2.805  0.00  0.00    +0.350 A 
ATOM     27  O   UNL     1       1.391   6.677  -2.946  0.00  0.00    -0.244 OA
ENDBRANCH  11  13
BRANCH   5  28
ATOM     28  O   UNL     1       4.415   5.127   2.748  0.00  0.00    -0.493 OA
ATOM     29  C   UNL     1       5.720   5.276   3.313  0.00  0.00    +0.277 C 
ENDBRANCH   5  28
BRANCH   1  30
ATOM     30  C   UNL     1      -1.621   4.476   0.083  0.00  0.00    +0.097 C 
BRANCH  30  31
ATOM     31  C   UNL     1      -2.481   4.751   1.317  0.00  0.00    -0.059 C 
BRANCH  31  32
ATOM     32  N   UNL     1      -3.895   4.453   1.004  0.00  0.00    +0.380 N 
ATOM     33  H   UNL     1      -4.286   5.229   0.458  0.00  0.00    -0.082 HD
BRANCH  32  35
ATOM     34  C   UNL     1      -5.421   3.048  -0.293  0.00  0.00    -0.017 C 
ATOM     35  C   UNL     1      -3.984   3.212   0.205  0.00  0.00    -0.082 C 
ENDBRANCH  32  35
BRANCH  32  36
ATOM     36  C   UNL     1      -4.670   4.306   2.254  0.00  0.00    -0.082 C 
ATOM     37  C   UNL     1      -4.681   5.647   2.990  0.00  0.00    -0.017 C 
ENDBRANCH  32  36
ENDBRANCH  31  32
ENDBRANCH  30  31
ENDBRANCH   1  30
TORSDOF 7
