REMARK  Name = ZINC32582150
REMARK  9 active torsions:
REMARK  status: ('A' for Active; 'I' for Inactive)
REMARK    1  A    between atoms: C_4  and  C_7
REMARK    2  A    between atoms: C_7  and  N_8
REMARK    3  A    between atoms: C_10  and  N_29
REMARK    4  A    between atoms: C_13  and  C_15
REMARK    5  A    between atoms: N_17  and  C_18
REMARK    6  A    between atoms: C_18  and  C_19
REMARK    7  A    between atoms: C_19  and  C_20
REMARK    8  A    between atoms: N_29  and  C_30
REMARK    9  A    between atoms: C_30  and  C_31
REMARK                            x       y       z     vdW  Elec       q    Type
REMARK                         _______ _______ _______ _____ _____    ______ ____
ROOT
ATOM      1  N   UNL     1       4.153  -0.953   1.342  0.00  0.00    +0.391 N 
ATOM      2  C   UNL     1       4.457   0.334   2.004  0.00  0.00    -0.059 C 
ATOM      3  C   UNL     1       5.671   0.032   2.916  0.00  0.00    +0.036 C 
ATOM      4  C   UNL     1       6.479  -0.965   2.044  0.00  0.00    +0.010 C 
ATOM      5  C   UNL     1       5.376  -1.776   1.331  0.00  0.00    +0.021 C 
ATOM      6  H   UNL     1       3.426  -1.432   1.852  0.00  0.00    -0.080 HD
ENDROOT
BRANCH   5   7
ATOM      7  C   UNL     1       5.132  -3.067   2.070  0.00  0.00    +0.200 C 
ATOM      8  O   UNL     1       4.045  -3.288   2.561  0.00  0.00    -0.278 OA
ATOM      9  N   UNL     1       6.121  -3.975   2.184  0.00  0.00    -0.316 N 
ATOM     10  H   UNL     1       6.990  -3.798   1.792  0.00  0.00    +0.149 HD
BRANCH   9  11
ATOM     11  C   UNL     1       5.883  -5.230   2.902  0.00  0.00    +0.109 C 
BRANCH  11  12
ATOM     12  C   UNL     1       7.158  -6.076   2.886  0.00  0.00    +0.054 C 
BRANCH  12  13
ATOM     13  C   UNL     1       6.914  -7.367   3.624  0.00  0.00    -0.042 A 
ATOM     14  C   UNL     1       7.152  -7.440   4.984  0.00  0.00    +0.007 A 
ATOM     15  C   UNL     1       6.929  -8.622   5.665  0.00  0.00    +0.050 A 
ATOM     16  C   UNL     1       6.466  -9.737   4.986  0.00  0.00    +0.166 A 
ATOM     17  C   UNL     1       6.226  -9.664   3.616  0.00  0.00    +0.166 A 
ATOM     18  C   UNL     1       6.446  -8.474   2.941  0.00  0.00    +0.053 A 
ATOM     19  O   UNL     1       5.780 -10.880   3.186  0.00  0.00    -0.453 OA
ATOM     20  C   UNL     1       6.138 -11.810   4.225  0.00  0.00    +0.466 C 
ATOM     21  O   UNL     1       6.171 -10.999   5.414  0.00  0.00    -0.453 OA
ENDBRANCH  12  13
ENDBRANCH  11  12
ENDBRANCH   9  11
ENDBRANCH   5   7
BRANCH   3  22
ATOM     22  N   UNL     1       6.448   1.251   3.179  0.00  0.00    -0.311 NA
ATOM     23  H   UNL     1       7.067   1.458   2.410  0.00  0.00    +0.122 HD
BRANCH  22  24
ATOM     24  C   UNL     1       7.193   1.139   4.440  0.00  0.00    +0.118 C 
BRANCH  24  25
ATOM     25  C   UNL     1       7.975   2.405   4.676  0.00  0.00    -0.015 A 
ATOM     26  C   UNL     1       9.323   2.451   4.374  0.00  0.00    +0.006 A 
ATOM     27  C   UNL     1      10.041   3.613   4.590  0.00  0.00    +0.000 A 
ATOM     28  C   UNL     1       9.411   4.729   5.108  0.00  0.00    +0.001 A 
ATOM     29  C   UNL     1       8.063   4.684   5.410  0.00  0.00    +0.020 A 
ATOM     30  C   UNL     1       7.343   3.523   5.189  0.00  0.00    +0.045 A 
ATOM     31 CL   UNL     1       5.648   3.469   5.562  0.00  0.00    -0.083 Cl
ENDBRANCH  24  25
ENDBRANCH  22  24
ENDBRANCH   3  22
BRANCH   1  32
ATOM     32  C   UNL     1       3.711  -0.707  -0.038  0.00  0.00    -0.042 C 
BRANCH  32  36
ATOM     33  C   UNL     1      -0.017   1.378   0.010  0.00  0.00    +0.000 A 
ATOM     34  C   UNL     1       1.171   2.086   0.002  0.00  0.00    +0.000 A 
ATOM     35  C   UNL     1       2.377   1.411  -0.013  0.00  0.00    +0.002 A 
ATOM     36  C   UNL     1       2.396   0.029  -0.020  0.00  0.00    -0.064 A 
ATOM     37  C   UNL     1       1.208  -0.679  -0.012  0.00  0.00    +0.002 A 
ATOM     38  C   UNL     1       0.002  -0.004   0.002  0.00  0.00    +0.000 A 
ENDBRANCH  32  36
ENDBRANCH   1  32
TORSDOF 9
