REMARK  Name = ZINC60245107
REMARK  6 active torsions:
REMARK  status: ('A' for Active; 'I' for Inactive)
REMARK    1  A    between atoms: C_12  and  C_14
REMARK    2  A    between atoms: C_14  and  N_15
REMARK    3  A    between atoms: N_15  and  C_16
REMARK    4  A    between atoms: N_15  and  C_24
REMARK    5  A    between atoms: C_16  and  C_17
REMARK    6  A    between atoms: C_24  and  C_25
REMARK                            x       y       z     vdW  Elec       q    Type
REMARK                         _______ _______ _______ _____ _____    ______ ____
ROOT
ATOM      1  C   UNL     1      -0.125   2.024  -1.404  0.00  0.00    +0.002 A 
ATOM      2  C   UNL     1       1.046   2.629  -0.987  0.00  0.00    +0.002 A 
ATOM      3  C   UNL     1       2.179   1.867  -0.761  0.00  0.00    +0.025 A 
ATOM      4  C   UNL     1       2.136   0.499  -0.955  0.00  0.00    +0.058 A 
ATOM      5  C   UNL     1       0.955  -0.115  -1.375  0.00  0.00    +0.055 A 
ATOM      6  C   UNL     1      -0.175   0.656  -1.598  0.00  0.00    +0.025 A 
ATOM      7  N   UNL     1       0.924  -1.500  -1.574  0.00  0.00    -0.282 N 
ATOM      8  C   UNL     1       1.917  -2.284  -1.110  0.00  0.00    +0.241 C 
ATOM      9  O   UNL     1       1.887  -3.478  -1.322  0.00  0.00    -0.273 OA
ATOM     10  C   UNL     1       3.061  -1.695  -0.334  0.00  0.00    +0.118 C 
ATOM     11  N   UNL     1       3.270  -0.299  -0.731  0.00  0.00    -0.256 N 
ATOM     12  C   UNL     1       4.513   0.203  -0.877  0.00  0.00    +0.204 C 
ATOM     13  O   UNL     1       5.473  -0.438  -0.506  0.00  0.00    -0.277 OA
ATOM     14  C   UNL     1       2.768  -1.767   1.175  0.00  0.00    +0.036 C 
ATOM     15  C   UNL     1       3.494  -3.055   1.641  0.00  0.00    +0.003 C 
ATOM     16  C   UNL     1       4.792  -3.042   0.795  0.00  0.00    +0.003 C 
ATOM     17  C   UNL     1       4.342  -2.505  -0.581  0.00  0.00    +0.036 C 
ATOM     18  H   UNL     1       0.179  -1.899  -2.050  0.00  0.00    +0.155 HD
ENDROOT
BRANCH  12  19
ATOM     19  C   UNL     1       4.708   1.560  -1.503  0.00  0.00    +0.020 C 
BRANCH  19  20
ATOM     20  N   UNL     1       6.093   1.686  -1.978  0.00  0.00    +0.390 N 
ATOM     21  H   UNL     1       6.727   1.539  -1.207  0.00  0.00    -0.081 HD
BRANCH  20  22
ATOM     22  C   UNL     1       6.300   3.030  -2.533  0.00  0.00    -0.042 C 
BRANCH  22  23
ATOM     23  C   UNL     1       7.745   3.194  -2.925  0.00  0.00    -0.061 A 
ATOM     24  C   UNL     1       8.681   3.564  -1.977  0.00  0.00    +0.002 A 
ATOM     25  C   UNL     1      10.007   3.715  -2.335  0.00  0.00    +0.003 A 
ATOM     26  C   UNL     1      10.400   3.497  -3.642  0.00  0.00    +0.038 A 
ATOM     27  C   UNL     1       9.464   3.125  -4.593  0.00  0.00    +0.124 A 
ATOM     28  C   UNL     1       8.136   2.968  -4.231  0.00  0.00    +0.040 A 
ATOM     29  F   UNL     1       9.847   2.912  -5.871  0.00  0.00    -0.205 F 
ENDBRANCH  22  23
ENDBRANCH  20  22
BRANCH  20  30
ATOM     30  C   UNL     1       6.346   0.681  -3.019  0.00  0.00    -0.046 C 
BRANCH  30  31
ATOM     31  C   UNL     1       5.484   0.988  -4.245  0.00  0.00    +0.102 C 
ATOM     32  C   UNL     1       5.804  -0.006  -5.390  0.00  0.00    +0.032 C 
ATOM     33  C   UNL     1       4.477   0.036  -6.196  0.00  0.00    +0.030 C 
ATOM     34  C   UNL     1       3.424   0.230  -5.084  0.00  0.00    +0.160 C 
ATOM     35  O   UNL     1       4.095   0.780  -3.942  0.00  0.00    -0.378 OA
ENDBRANCH  30  31
ENDBRANCH  20  30
ENDBRANCH  19  20
ENDBRANCH  12  19
TORSDOF 6
