REMARK  Name = ZINC02124825
REMARK  8 active torsions:
REMARK  status: ('A' for Active; 'I' for Inactive)
REMARK    1  A    between atoms: C_1  and  C_2
REMARK    2  A    between atoms: C_2  and  C_3
REMARK    3  A    between atoms: C_3  and  C_4
REMARK    4  A    between atoms: C_4  and  C_5
REMARK    5  A    between atoms: C_19  and  C_20
REMARK    6  A    between atoms: C_19  and  N_62
REMARK    7  A    between atoms: C_20  and  C_21
REMARK    8  A    between atoms: C_20  and  C_27
REMARK                            x       y       z     vdW  Elec       q    Type
REMARK                         _______ _______ _______ _____ _____    ______ ____
ROOT
ATOM      1  C   UNL     1       0.463  -3.917   3.753  0.00  0.00    -0.030 A 
ATOM      2  C   UNL     1      -0.047  -4.715   2.777  0.00  0.00    +0.096 A 
ATOM      3  C   UNL     1      -0.472  -4.144   1.562  0.00  0.00    +0.337 A 
ATOM      4  O   UNL     1      -0.927  -4.876   0.702  0.00  0.00    -0.245 OA
ATOM      5  O   UNL     1      -0.399  -2.832   1.313  0.00  0.00    -0.422 OA
ATOM      6  C   UNL     1       0.098  -1.991   2.241  0.00  0.00    +0.144 A 
ATOM      7  C   UNL     1       0.545  -2.479   3.482  0.00  0.00    +0.021 A 
ATOM      8  C   UNL     1       1.060  -1.598   4.439  0.00  0.00    +0.015 A 
ATOM      9  C   UNL     1       1.126  -0.264   4.165  0.00  0.00    +0.046 A 
ATOM     10  C   UNL     1       0.684   0.231   2.936  0.00  0.00    +0.123 A 
ATOM     11  C   UNL     1       0.174  -0.628   1.979  0.00  0.00    +0.021 A 
ATOM     12  C   UNL     1      -0.303  -0.107   0.647  0.00  0.00    -0.031 C 
ATOM     13  C   UNL     1       0.653   1.996   1.340  0.00  0.00    +0.157 C 
ATOM     14  O   UNL     1       0.761   1.567   2.700  0.00  0.00    -0.509 OA
ATOM     15  N   UNL     1      -0.536   1.346   0.752  0.00  0.00    +0.406 N 
ATOM     16  H   UNL     1      -1.345   1.513   1.361  0.00  0.00    -0.076 HD
ENDROOT
BRANCH   1  17
ATOM     17  C   UNL     1       0.929  -4.491   5.066  0.00  0.00    +0.036 C 
BRANCH  17  18
ATOM     18  C   UNL     1      -0.200  -4.393   6.094  0.00  0.00    +0.004 C 
BRANCH  18  20
ATOM     19  C   UNL     1      -0.857  -4.878   8.456  0.00  0.00    +0.004 C 
ATOM     20  C   UNL     1       0.272  -4.976   7.427  0.00  0.00    -0.003 C 
ENDBRANCH  18  20
ENDBRANCH  17  18
ENDBRANCH   1  17
BRANCH  15  21
ATOM     21  C   UNL     1      -0.814   1.912  -0.588  0.00  0.00    -0.061 C 
BRANCH  21  22
ATOM     22  C   UNL     1      -2.257   1.581  -0.976  0.00  0.00    +0.033 C 
BRANCH  22  23
ATOM     23  C   UNL     1      -3.202   2.226   0.005  0.00  0.00    -0.042 A 
ATOM     24  C   UNL     1      -4.162   1.464   0.643  0.00  0.00    +0.004 A 
ATOM     25  C   UNL     1      -5.026   2.056   1.546  0.00  0.00    +0.000 A 
ATOM     26  C   UNL     1      -4.936   3.411   1.803  0.00  0.00    +0.000 A 
ATOM     27  C   UNL     1      -3.979   4.174   1.160  0.00  0.00    +0.000 A 
ATOM     28  C   UNL     1      -3.112   3.582   0.261  0.00  0.00    +0.004 A 
ENDBRANCH  22  23
BRANCH  22  29
ATOM     29  C   UNL     1      -2.537   2.103  -2.361  0.00  0.00    -0.042 A 
ATOM     30  C   UNL     1      -2.267   3.423  -2.670  0.00  0.00    +0.004 A 
ATOM     31  C   UNL     1      -2.519   3.900  -3.943  0.00  0.00    +0.000 A 
ATOM     32  C   UNL     1      -3.050   3.060  -4.904  0.00  0.00    +0.000 A 
ATOM     33  C   UNL     1      -3.325   1.741  -4.593  0.00  0.00    +0.000 A 
ATOM     34  C   UNL     1      -3.068   1.262  -3.322  0.00  0.00    +0.004 A 
ENDBRANCH  22  29
ENDBRANCH  21  22
ENDBRANCH  15  21
TORSDOF 7
