REMARK  Name = ZINC34734789
REMARK  10 active torsions:
REMARK  status: ('A' for Active; 'I' for Inactive)
REMARK    1  A    between atoms: C_1  and  C_2
REMARK    2  A    between atoms: C_5  and  C_9
REMARK    3  A    between atoms: C_6  and  C_8
REMARK    4  A    between atoms: C_9  and  N_10
REMARK    5  A    between atoms: N_23  and  C_26
REMARK    6  A    between atoms: C_26  and  C_27
REMARK    7  A    between atoms: C_27  and  C_28
REMARK    8  A    between atoms: C_27  and  C_29
REMARK    9  A    between atoms: C_32  and  C_34
REMARK   10  A    between atoms: C_32  and  C_35
REMARK                            x       y       z     vdW  Elec       q    Type
REMARK                         _______ _______ _______ _____ _____    ______ ____
ROOT
ATOM      1  N   UNL     1      -1.060  -4.677   0.382  0.00  0.00    -0.276 N 
ATOM      2  C   UNL     1      -1.383  -4.874   1.673  0.00  0.00    +0.264 A 
ATOM      3  O   UNL     1      -0.547  -4.725   2.548  0.00  0.00    -0.267 OA
ATOM      4  C   UNL     1      -2.720  -5.259   2.005  0.00  0.00    +0.076 A 
ATOM      5  C   UNL     1      -3.289  -5.525   3.325  0.00  0.00    -0.018 A 
ATOM      6  C   UNL     1      -4.592  -5.877   3.374  0.00  0.00    +0.021 A 
ATOM      7  S   UNL     1      -5.132  -5.874   1.688  0.00  0.00    -0.071 S 
ATOM      8  C   UNL     1      -3.603  -5.401   0.920  0.00  0.00    +0.118 A 
ATOM      9  N   UNL     1      -3.219  -5.191  -0.334  0.00  0.00    -0.208 NA
ATOM     10  C   UNL     1      -1.983  -4.832  -0.611  0.00  0.00    +0.202 A 
ATOM     11  N   UNL     1      -1.616  -4.616  -1.916  0.00  0.00    -0.304 N 
ATOM     12  C   UNL     1      -2.011  -5.555  -2.977  0.00  0.00    +0.089 C 
ATOM     13  C   UNL     1      -2.645  -4.756  -4.121  0.00  0.00    -0.060 C 
ATOM     14  N   UNL     1      -1.716  -3.705  -4.556  0.00  0.00    +0.382 N 
ATOM     15  C   UNL     1      -1.508  -2.740  -3.469  0.00  0.00    -0.060 C 
ATOM     16  C   UNL     1      -0.823  -3.436  -2.293  0.00  0.00    +0.089 C 
ATOM     17  C   UNL     1      -5.378  -6.196   4.608  0.00  0.00    +0.203 C 
ATOM     18  O   UNL     1      -4.449  -6.377   5.689  0.00  0.00    -0.368 OA
ATOM     19  C   UNL     1      -3.477  -5.332   5.785  0.00  0.00    +0.068 C 
ATOM     20  C   UNL     1      -2.487  -5.423   4.620  0.00  0.00    +0.071 C 
ATOM     21  C   UNL     1      -4.185  -3.976   5.745  0.00  0.00    +0.041 C 
ATOM     22  C   UNL     1      -2.719  -5.466   7.107  0.00  0.00    +0.041 C 
ATOM     23  H   UNL     1      -0.833  -4.122  -4.808  0.00  0.00    -0.082 HD
ENDROOT
BRANCH   1  24
ATOM     24  C   UNL     1       0.308  -4.282   0.035  0.00  0.00    +0.163 C 
BRANCH  24  29
ATOM     25  C   UNL     1       3.998  -8.343   1.848  0.00  0.00    +0.044 C 
ATOM     26  C   UNL     1       3.036  -7.284   1.375  0.00  0.00    -0.050 A 
ATOM     27  C   UNL     1       2.906  -6.103   2.082  0.00  0.00    +0.004 A 
ATOM     28  C   UNL     1       2.023  -5.131   1.648  0.00  0.00    +0.006 A 
ATOM     29  C   UNL     1       1.271  -5.341   0.507  0.00  0.00    -0.025 A 
ATOM     30  C   UNL     1       1.401  -6.521  -0.199  0.00  0.00    -0.045 A 
ATOM     31  C   UNL     1       2.287  -7.491   0.232  0.00  0.00    +0.007 A 
ATOM     32  C   UNL     1       0.580  -6.750  -1.442  0.00  0.00    +0.044 C 
ENDBRANCH  24  29
ENDBRANCH   1  24
BRANCH  14  33
ATOM     33  C   UNL     1      -2.277  -3.011  -5.723  0.00  0.00    -0.076 C 
BRANCH  33  34
ATOM     34  C   UNL     1      -1.259  -2.000  -6.253  0.00  0.00    -0.034 C 
ATOM     35  C   UNL     1      -0.028  -2.744  -6.777  0.00  0.00    +0.005 C 
ATOM     36  C   UNL     1      -1.888  -1.191  -7.389  0.00  0.00    +0.005 C 
ENDBRANCH  33  34
ENDBRANCH  14  33
TORSDOF 4
