REMARK  Name = ZINC25080103
REMARK  10 active torsions:
REMARK  status: ('A' for Active; 'I' for Inactive)
REMARK    1  A    between atoms: C_1  and  C_2
REMARK    2  A    between atoms: C_3  and  N_31
REMARK    3  A    between atoms: C_4  and  C_30
REMARK    4  A    between atoms: N_5  and  C_7
REMARK    5  A    between atoms: C_7  and  C_8
REMARK    6  A    between atoms: C_11  and  C_14
REMARK    7  A    between atoms: N_16  and  C_17
REMARK    8  A    between atoms: C_17  and  C_18
REMARK    9  A    between atoms: C_18  and  C_20
REMARK   10  A    between atoms: C_18  and  N_25
REMARK                            x       y       z     vdW  Elec       q    Type
REMARK                         _______ _______ _______ _____ _____    ______ ____
ROOT
ATOM      1  C   UNL     1       0.993   4.295   0.987  0.00  0.00    -0.026 A 
ATOM      2  C   UNL     1       0.186   5.126   1.743  0.00  0.00    +0.006 A 
ATOM      3  C   UNL     1       0.443   5.307   3.086  0.00  0.00    +0.013 A 
ATOM      4  C   UNL     1       1.525   4.657   3.680  0.00  0.00    +0.037 A 
ATOM      5  C   UNL     1       2.339   3.823   2.911  0.00  0.00    +0.013 A 
ATOM      6  C   UNL     1       2.068   3.647   1.570  0.00  0.00    +0.006 A 
ENDROOT
BRANCH   4   7
ATOM      7  C   UNL     1       1.810   4.850   5.118  0.00  0.00    +0.244 C 
ATOM      8  O   UNL     1       2.753   4.283   5.633  0.00  0.00    -0.270 OA
ATOM      9  N   UNL     1       1.022   5.655   5.858  0.00  0.00    -0.313 N 
ATOM     10  H   UNL     1       0.168   6.169   5.393  0.00  0.00    +0.149 HD
BRANCH   9  11
ATOM     11  C   UNL     1       1.304   5.847   7.283  0.00  0.00    +0.094 C 
BRANCH  11  12
ATOM     12  C   UNL     1       0.185   6.675   7.918  0.00  0.00    -0.013 C 
BRANCH  12  13
ATOM     13  N   UNL     1      -1.080   5.933   7.836  0.00  0.00    +0.386 N 
ATOM     14  C   UNL     1      -2.126   6.570   8.677  0.00  0.00    -0.078 C 
ATOM     15  C   UNL     1      -3.445   6.017   8.080  0.00  0.00    -0.020 C 
ATOM     16  C   UNL     1      -3.147   5.974   6.564  0.00  0.00    -0.020 C 
ATOM     17  C   UNL     1      -1.612   5.940   6.456  0.00  0.00    -0.078 C 
ATOM     18  H   UNL     1      -0.850   4.911   8.174  0.00  0.00    -0.081 HD
ENDBRANCH  12  13
BRANCH  12  19
ATOM     19  C   UNL     1       0.517   6.946   9.362  0.00  0.00    -0.022 A 
ATOM     20  C   UNL     1       0.945   8.095   9.939  0.00  0.00    +0.009 A 
ATOM     21  C   UNL     1       1.189   8.111  11.300  0.00  0.00    +0.008 A 
ATOM     22  C   UNL     1       0.993   6.978  12.017  0.00  0.00    +0.045 A 
ATOM     23  S   UNL     1       0.441   5.837  10.760  0.00  0.00    -0.103 S 
ENDBRANCH  12  19
ENDBRANCH  11  12
ENDBRANCH   9  11
ENDBRANCH   4   7
BRANCH   1  24
ATOM     24  C   UNL     1       0.704   4.098  -0.479  0.00  0.00    +0.179 C 
BRANCH  24  29
ATOM     25  C   UNL     1      -3.510   1.405  -0.915  0.00  0.00    +0.070 C 
ATOM     26  C   UNL     1      -2.058   1.802  -0.838  0.00  0.00    +0.090 A 
ATOM     27  C   UNL     1      -0.965   0.935  -0.940  0.00  0.00    +0.169 A 
ATOM     28  C   UNL     1       0.164   1.672  -0.821  0.00  0.00    +0.067 A 
ATOM     29  N   UNL     1      -0.202   2.960  -0.649  0.00  0.00    -0.262 N 
ATOM     30  N   UNL     1      -1.602   3.016  -0.664  0.00  0.00    -0.174 NA
ATOM     31  C   UNL     1       1.576   1.149  -0.871  0.00  0.00    +0.068 C 
BRANCH  27  32
ATOM     32  N   UNL     1      -1.030  -0.530  -1.143  0.00  0.00    +0.060 N 
ATOM     33  O   UNL     1      -1.042  -0.989  -2.271  0.00  0.00    -0.126 OA
ATOM     34  O   UNL     1      -1.074  -1.276  -0.181  0.00  0.00    -0.126 OA
ENDBRANCH  27  32
ENDBRANCH  24  29
ENDBRANCH   1  24
TORSDOF 8
