REMARK  Name = ZINC40322754
REMARK  16 active torsions:
REMARK  status: ('A' for Active; 'I' for Inactive)
REMARK    1  A    between atoms: C_1  and  C_2
REMARK    2  A    between atoms: C_2  and  N_3
REMARK    3  A    between atoms: N_3  and  C_4
REMARK    4  A    between atoms: N_3  and  C_6
REMARK    5  A    between atoms: C_4  and  C_5
REMARK    6  A    between atoms: C_6  and  C_8
REMARK    7  A    between atoms: C_6  and  C_27
REMARK    8  A    between atoms: C_8  and  N_9
REMARK    9  A    between atoms: C_10  and  C_12
REMARK   10  A    between atoms: C_15  and  S_17
REMARK   11  A    between atoms: S_17  and  C_20
REMARK   12  A    between atoms: C_23  and  C_26
REMARK   13  A    between atoms: C_30  and  O_35
REMARK   14  A    between atoms: C_31  and  O_33
REMARK   15  A    between atoms: O_33  and  C_34
REMARK   16  A    between atoms: O_35  and  C_36
REMARK                            x       y       z     vdW  Elec       q    Type
REMARK                         _______ _______ _______ _____ _____    ______ ____
ROOT
ATOM      1  N   UNL     1       0.205   0.886   1.813  0.00  0.00    -0.310 N 
ATOM      2  C   UNL     1      -0.263   1.807   2.679  0.00  0.00    +0.279 C 
ATOM      3  O   UNL     1       0.192   1.869   3.806  0.00  0.00    -0.267 OA
ATOM      4  H   UNL     1      -0.105   0.882   0.894  0.00  0.00    +0.149 HD
ENDROOT
BRANCH   2   5
ATOM      5  C   UNL     1      -1.321   2.733   2.263  0.00  0.00    +0.192 A 
ATOM      6  C   UNL     1      -1.814   3.771   3.000  0.00  0.00    +0.056 A 
ATOM      7  C   UNL     1      -2.806   4.386   2.219  0.00  0.00    +0.070 A 
ATOM      8  C   UNL     1      -2.873   3.704   1.054  0.00  0.00    +0.246 A 
ATOM      9  O   UNL     1      -1.974   2.712   1.082  0.00  0.00    -0.433 OA
BRANCH   8  10
ATOM     10  S   UNL     1      -3.962   4.065  -0.284  0.00  0.00    +0.058 S 
ATOM     11  O   UNL     1      -4.117   2.858  -1.018  0.00  0.00    -0.161 OA
ATOM     12  O   UNL     1      -5.066   4.768   0.269  0.00  0.00    -0.161 OA
BRANCH  10  13
ATOM     13  C   UNL     1      -3.125   5.196  -1.345  0.00  0.00    +0.097 A 
ATOM     14  C   UNL     1      -3.249   6.557  -1.140  0.00  0.00    +0.028 A 
ATOM     15  C   UNL     1      -2.593   7.444  -1.972  0.00  0.00    +0.005 A 
ATOM     16  C   UNL     1      -1.813   6.970  -3.010  0.00  0.00    -0.050 A 
ATOM     17  C   UNL     1      -1.688   5.608  -3.215  0.00  0.00    +0.005 A 
ATOM     18  C   UNL     1      -2.341   4.721  -2.380  0.00  0.00    +0.028 A 
ATOM     19  C   UNL     1      -1.098   7.937  -3.919  0.00  0.00    +0.044 C 
ENDBRANCH  10  13
ENDBRANCH   8  10
ENDBRANCH   2   5
BRANCH   1  20
ATOM     20  C   UNL     1       1.183  -0.109   2.260  0.00  0.00    +0.094 C 
BRANCH  20  21
ATOM     21  C   UNL     1       1.640  -0.948   1.065  0.00  0.00    -0.020 C 
BRANCH  21  22
ATOM     22  C   UNL     1       2.523  -2.070   1.547  0.00  0.00    -0.056 A 
ATOM     23  C   UNL     1       2.407  -2.530   2.845  0.00  0.00    +0.006 A 
ATOM     24  C   UNL     1       3.215  -3.559   3.292  0.00  0.00    +0.049 A 
ATOM     25  C   UNL     1       4.144  -4.131   2.438  0.00  0.00    +0.161 A 
ATOM     26  C   UNL     1       4.261  -3.668   1.131  0.00  0.00    +0.162 A 
ATOM     27  C   UNL     1       3.444  -2.640   0.688  0.00  0.00    +0.051 A 
BRANCH  26  28
ATOM     28  O   UNL     1       5.170  -4.227   0.289  0.00  0.00    -0.491 OA
ATOM     29  C   UNL     1       5.235  -3.701  -1.038  0.00  0.00    +0.277 C 
ENDBRANCH  26  28
BRANCH  25  30
ATOM     30  O   UNL     1       4.940  -5.143   2.876  0.00  0.00    -0.491 OA
ATOM     31  C   UNL     1       4.765  -5.567   4.230  0.00  0.00    +0.277 C 
ENDBRANCH  25  30
ENDBRANCH  21  22
BRANCH  21  32
ATOM     32  N   UNL     1       0.466  -1.508   0.382  0.00  0.00    +0.385 N 
ATOM     33  H   UNL     1      -0.166  -0.762   0.134  0.00  0.00    -0.081 HD
BRANCH  32  35
ATOM     34  C   UNL     1       1.482  -1.204  -1.825  0.00  0.00    -0.017 C 
ATOM     35  C   UNL     1       0.896  -2.211  -0.834  0.00  0.00    -0.081 C 
ENDBRANCH  32  35
BRANCH  32  36
ATOM     36  C   UNL     1      -0.217  -2.451   1.278  0.00  0.00    -0.081 C 
ATOM     37  C   UNL     1      -1.248  -1.697   2.121  0.00  0.00    -0.017 C 
ENDBRANCH  32  36
ENDBRANCH  21  32
ENDBRANCH  20  21
ENDBRANCH   1  20
TORSDOF 11
