REMARK  Name = ZINC22137876
REMARK  19 active torsions:
REMARK  status: ('A' for Active; 'I' for Inactive)
REMARK    1  A    between atoms: C_1  and  C_2
REMARK    2  A    between atoms: C_2  and  C_4
REMARK    3  A    between atoms: C_2  and  S_14
REMARK    4  A    between atoms: N_6  and  C_7
REMARK    5  A    between atoms: C_7  and  C_8
REMARK    6  A    between atoms: C_7  and  C_9
REMARK    7  A    between atoms: C_7  and  C_11
REMARK    8  A    between atoms: C_11  and  C_12
REMARK    9  A    between atoms: C_11  and  C_13
REMARK   10  A    between atoms: S_14  and  C_15
REMARK   11  A    between atoms: N_25  and  C_26
REMARK   12  A    between atoms: C_26  and  C_27
REMARK   13  A    between atoms: C_27  and  N_28
REMARK   14  A    between atoms: N_28  and  C_29
REMARK   15  A    between atoms: N_28  and  C_32
REMARK   16  A    between atoms: C_29  and  C_30
REMARK   17  A    between atoms: C_29  and  C_31
REMARK   18  A    between atoms: C_32  and  C_33
REMARK   19  A    between atoms: C_32  and  C_34
REMARK                            x       y       z     vdW  Elec       q    Type
REMARK                         _______ _______ _______ _____ _____    ______ ____
ROOT
ATOM      1  C   UNL     1      -0.631  -0.608   3.628  0.00  0.00    +0.173 A 
ATOM      2  N   UNL     1      -1.829  -0.105   3.462  0.00  0.00    -0.223 NA
ATOM      3  C   UNL     1      -2.546   0.370   4.500  0.00  0.00    +0.079 A 
ATOM      4  C   UNL     1      -3.825   0.906   4.322  0.00  0.00    +0.028 A 
ATOM      5  C   UNL     1      -4.517   1.377   5.403  0.00  0.00    +0.002 A 
ATOM      6  C   UNL     1      -3.968   1.331   6.678  0.00  0.00    +0.001 A 
ATOM      7  C   UNL     1      -2.719   0.813   6.883  0.00  0.00    +0.015 A 
ATOM      8  C   UNL     1      -1.991   0.325   5.799  0.00  0.00    +0.065 A 
ATOM      9  C   UNL     1      -0.646  -0.243   5.960  0.00  0.00    +0.262 A 
ATOM     10  O   UNL     1      -0.115  -0.310   7.053  0.00  0.00    -0.267 OA
ATOM     11  N   UNL     1      -0.022  -0.696   4.847  0.00  0.00    -0.289 N 
ENDROOT
BRANCH   1  12
ATOM     12  S   UNL     1       0.233  -1.206   2.213  0.00  0.00    -0.075 S 
BRANCH  12  14
ATOM     13  C   UNL     1      -1.111   0.604   0.664  0.00  0.00    +0.029 C 
ATOM     14  C   UNL     1      -0.912  -0.903   0.840  0.00  0.00    +0.137 C 
BRANCH  14  15
ATOM     15  C   UNL     1      -0.342  -1.485  -0.428  0.00  0.00    +0.227 C 
ATOM     16  O   UNL     1       0.846  -1.718  -0.508  0.00  0.00    -0.275 OA
ATOM     17  N   UNL     1      -1.151  -1.748  -1.473  0.00  0.00    -0.296 N 
ATOM     18  H   UNL     1      -2.101  -1.562  -1.409  0.00  0.00    +0.150 HD
BRANCH  17  19
ATOM     19  C   UNL     1      -0.597  -2.314  -2.705  0.00  0.00    +0.121 C 
ATOM     20  C   UNL     1       0.450  -1.357  -3.280  0.00  0.00    +0.048 C 
BRANCH  19  21
ATOM     21  C   UNL     1      -1.719  -2.513  -3.725  0.00  0.00    +0.020 C 
ATOM     22  C   UNL     1      -2.292  -1.153  -4.127  0.00  0.00    +0.010 C 
ATOM     23  C   UNL     1      -1.163  -3.218  -4.964  0.00  0.00    +0.010 C 
ENDBRANCH  19  21
BRANCH  19  24
ATOM     24  C   UNL     1       0.034  -3.611  -2.409  0.00  0.00    +0.088 C 
ATOM     25  N   UNL     1       0.520  -4.611  -2.181  0.00  0.00    -0.194 NA
ENDBRANCH  19  24
ENDBRANCH  17  19
ENDBRANCH  14  15
ENDBRANCH  12  14
ENDBRANCH   1  12
BRANCH  11  26
ATOM     26  C   UNL     1       1.319  -1.277   4.951  0.00  0.00    +0.109 C 
BRANCH  26  27
ATOM     27  C   UNL     1       2.367  -0.175   4.790  0.00  0.00    -0.056 C 
BRANCH  27  28
ATOM     28  N   UNL     1       3.705  -0.731   5.035  0.00  0.00    +0.384 N 
ATOM     29  H   UNL     1       3.721  -1.183   5.938  0.00  0.00    -0.081 HD
BRANCH  28  30
ATOM     30  C   UNL     1       4.026  -1.713   3.991  0.00  0.00    -0.074 C 
ATOM     31  C   UNL     1       4.587  -0.989   2.765  0.00  0.00    -0.014 C 
ATOM     32  C   UNL     1       5.067  -2.700   4.522  0.00  0.00    -0.014 C 
ENDBRANCH  28  30
BRANCH  28  33
ATOM     33  C   UNL     1       4.697   0.351   5.011  0.00  0.00    -0.074 C 
ATOM     34  C   UNL     1       4.284   1.444   5.999  0.00  0.00    -0.014 C 
ATOM     35  C   UNL     1       6.067  -0.204   5.408  0.00  0.00    -0.014 C 
ENDBRANCH  28  33
ENDBRANCH  27  28
ENDBRANCH  26  27
ENDBRANCH  11  26
TORSDOF 11
