REMARK  Name = ZINC14472793
REMARK  4 active torsions:
REMARK  status: ('A' for Active; 'I' for Inactive)
REMARK    1  A    between atoms: C_4  and  C_10
REMARK    2  A    between atoms: C_6  and  N_7
REMARK    3  A    between atoms: C_21  and  S_26
REMARK    4  A    between atoms: S_26  and  N_29
REMARK                            x       y       z     vdW  Elec       q    Type
REMARK                         _______ _______ _______ _____ _____    ______ ____
ROOT
ATOM      1  C   UNL     1       1.553   3.304   0.458  0.00  0.00    +0.106 C 
ATOM      2  C   UNL     1       1.492   1.817   0.159  0.00  0.00    +0.029 C 
ATOM      3  C   UNL     1       1.927   0.860   1.277  0.00  0.00    +0.033 C 
ATOM      4  C   UNL     1       1.079  -0.376   0.971  0.00  0.00    -0.030 C 
ATOM      5  C   UNL     1      -0.021  -0.021   0.317  0.00  0.00    -0.023 C 
ATOM      6  C   UNL     1      -0.024   1.456   0.160  0.00  0.00    +0.049 C 
ATOM      7  C   UNL     1      -0.649   2.117  -1.006  0.00  0.00    -0.018 A 
ATOM      8  C   UNL     1      -1.687   1.546  -1.711  0.00  0.00    +0.034 A 
ATOM      9  C   UNL     1      -2.249   2.211  -2.785  0.00  0.00    +0.106 A 
ATOM     10  C   UNL     1      -1.771   3.456  -3.154  0.00  0.00    +0.030 A 
ATOM     11  C   UNL     1      -0.729   4.033  -2.458  0.00  0.00    +0.025 A 
ATOM     12  C   UNL     1      -0.153   3.370  -1.381  0.00  0.00    +0.031 A 
ATOM     13  N   UNL     1       0.914   3.969  -0.700  0.00  0.00    -0.336 N 
ATOM     14  H   UNL     1       1.239   4.835  -0.991  0.00  0.00    +0.147 HD
ENDROOT
BRANCH   1  18
ATOM     15  C   UNL     1       5.617   4.570   0.827  0.00  0.00    +0.034 A 
ATOM     16  C   UNL     1       4.598   5.368   1.314  0.00  0.00    +0.022 A 
ATOM     17  C   UNL     1       3.282   4.959   1.194  0.00  0.00    +0.046 A 
ATOM     18  C   UNL     1       2.986   3.751   0.588  0.00  0.00    -0.007 A 
ATOM     19  C   UNL     1       4.006   2.951   0.107  0.00  0.00    +0.039 A 
ATOM     20  C   UNL     1       5.321   3.364   0.222  0.00  0.00    +0.127 A 
ATOM     21 CL   UNL     1       2.003   5.960   1.806  0.00  0.00    -0.083 Cl
BRANCH  20  22
ATOM     22  N   UNL     1       6.411   2.510  -0.299  0.00  0.00    +0.056 N 
ATOM     23  O   UNL     1       7.570   2.870  -0.194  0.00  0.00    -0.126 OA
ATOM     24  O   UNL     1       6.151   1.446  -0.833  0.00  0.00    -0.126 OA
ENDBRANCH  20  22
ENDBRANCH   1  18
BRANCH   9  25
ATOM     25  S   UNL     1      -3.574   1.474  -3.682  0.00  0.00    +0.061 S 
ATOM     26  O   UNL     1      -4.197   0.551  -2.800  0.00  0.00    -0.153 OA
ATOM     27  O   UNL     1      -4.286   2.537  -4.301  0.00  0.00    -0.153 OA
BRANCH  25  28
ATOM     28  N   UNL     1      -2.901   0.581  -4.904  0.00  0.00    -0.177 NA
ATOM     29  C   UNL     1      -2.647   1.184  -6.220  0.00  0.00    +0.109 C 
ATOM     30  C   UNL     1      -1.173   0.956  -6.585  0.00  0.00    +0.017 C 
ATOM     31  C   UNL     1      -0.860  -0.540  -6.509  0.00  0.00    +0.003 C 
ATOM     32  C   UNL     1      -1.083  -1.037  -5.079  0.00  0.00    +0.017 C 
ATOM     33  C   UNL     1      -2.552  -0.830  -4.694  0.00  0.00    +0.109 C 
ENDBRANCH  25  28
ENDBRANCH   9  25
TORSDOF 4
