REMARK  Name = ZINC00803874
REMARK  6 active torsions:
REMARK  status: ('A' for Active; 'I' for Inactive)
REMARK    1  A    between atoms: C_3  and  O_26
REMARK    2  A    between atoms: C_6  and  N_7
REMARK    3  A    between atoms: C_8  and  C_10
REMARK    4  A    between atoms: C_11  and  N_25
REMARK    5  A    between atoms: C_15  and  C_19
REMARK    6  A    between atoms: O_26  and  C_27
REMARK                            x       y       z     vdW  Elec       q    Type
REMARK                         _______ _______ _______ _____ _____    ______ ____
ROOT
ATOM      1  C   UNL     1      -2.404  -2.781  -0.198  0.00  0.00    +0.097 A 
ATOM      2  C   UNL     1      -2.587  -4.142  -0.309  0.00  0.00    +0.053 A 
ATOM      3  C   UNL     1      -3.947  -4.651  -0.396  0.00  0.00    +0.029 A 
ATOM      4  C   UNL     1      -4.381  -5.996  -0.515  0.00  0.00    +0.014 A 
ATOM      5  C   UNL     1      -5.716  -6.261  -0.582  0.00  0.00    +0.029 A 
ATOM      6  C   UNL     1      -6.647  -5.220  -0.535  0.00  0.00    +0.072 A 
ATOM      7  N   UNL     1      -6.239  -3.963  -0.423  0.00  0.00    -0.239 NA
ATOM      8  C   UNL     1      -4.960  -3.665  -0.355  0.00  0.00    +0.111 A 
ATOM      9  S   UNL     1      -4.066  -2.139  -0.199  0.00  0.00    -0.062 S 
ENDROOT
BRANCH   6  10
ATOM     10  C   UNL     1      -8.097  -5.522  -0.610  0.00  0.00    +0.003 A 
ATOM     11  C   UNL     1      -8.552  -6.839  -0.723  0.00  0.00    +0.030 A 
ATOM     12  C   UNL     1      -9.910  -7.075  -0.790  0.00  0.00    +0.111 A 
ATOM     13  N   UNL     1     -10.773  -6.079  -0.750  0.00  0.00    -0.263 NA
ATOM     14  C   UNL     1     -10.386  -4.822  -0.644  0.00  0.00    +0.111 A 
ATOM     15  C   UNL     1      -9.047  -4.497  -0.565  0.00  0.00    +0.030 A 
ENDBRANCH   6  10
BRANCH   1  17
ATOM     16  N   UNL     1      -1.201  -0.721   0.010  0.00  0.00    -0.281 N 
ATOM     17  C   UNL     1      -1.185  -2.064  -0.099  0.00  0.00    +0.257 C 
ATOM     18  O   UNL     1      -0.124  -2.662  -0.113  0.00  0.00    -0.269 OA
ATOM     19  H   UNL     1      -2.045  -0.251   0.098  0.00  0.00    +0.155 HD
BRANCH  16  25
ATOM     20  C   UNL     1       1.071  -0.454  -0.767  0.00  0.00    +0.027 A 
ATOM     21  C   UNL     1       2.256   0.254  -0.781  0.00  0.00    +0.048 A 
ATOM     22  C   UNL     1       2.379   1.415  -0.032  0.00  0.00    +0.130 A 
ATOM     23  C   UNL     1       1.312   1.866   0.731  0.00  0.00    +0.048 A 
ATOM     24  C   UNL     1       0.126   1.159   0.746  0.00  0.00    +0.027 A 
ATOM     25  C   UNL     1       0.002  -0.004  -0.004  0.00  0.00    +0.034 A 
BRANCH  22  26
ATOM     26  O   UNL     1       3.547   2.112  -0.045  0.00  0.00    -0.406 OA
BRANCH  26  27
ATOM     27  C   UNL     1       3.604   3.298   0.750  0.00  0.00    +0.575 C 
ATOM     28  F   UNL     1       3.376   2.972   2.091  0.00  0.00    -0.133 F 
ATOM     29  F   UNL     1       4.867   3.885   0.621  0.00  0.00    -0.133 F 
ATOM     30  F   UNL     1       2.625   4.198   0.315  0.00  0.00    -0.133 F 
ENDBRANCH  26  27
ENDBRANCH  22  26
ENDBRANCH  16  25
ENDBRANCH   1  17
BRANCH   2  31
ATOM     31  N   UNL     1      -1.501  -5.006  -0.338  0.00  0.00    -0.356 N 
ATOM     32  H   UNL     1      -0.599  -4.654  -0.280  0.00  0.00    +0.142 HD
ATOM     33  H   UNL     1      -1.644  -5.963  -0.417  0.00  0.00    +0.142 HD
ENDBRANCH   2  31
TORSDOF 6
