REMARK  Name = ZINC36494963
REMARK  16 active torsions:
REMARK  status: ('A' for Active; 'I' for Inactive)
REMARK    1  A    between atoms: C_1  and  C_2
REMARK    2  A    between atoms: C_2  and  C_3
REMARK    3  A    between atoms: C_3  and  C_4
REMARK    4  A    between atoms: C_4  and  N_5
REMARK    5  A    between atoms: C_6  and  C_8
REMARK    6  A    between atoms: C_8  and  C_10
REMARK    7  A    between atoms: C_8  and  N_19
REMARK    8  A    between atoms: C_11  and  O_18
REMARK    9  A    between atoms: C_13  and  O_17
REMARK   10  A    between atoms: C_15  and  O_16
REMARK   11  A    between atoms: N_19  and  C_20
REMARK   12  A    between atoms: C_20  and  C_21
REMARK   13  A    between atoms: C_26  and  C_28
REMARK   14  A    between atoms: C_28  and  C_30
REMARK   15  A    between atoms: C_28  and  O_36
REMARK   16  A    between atoms: O_36  and  C_37
REMARK                            x       y       z     vdW  Elec       q    Type
REMARK                         _______ _______ _______ _____ _____    ______ ____
ROOT
ATOM      1  C   UNL     1       1.537  -4.375   4.299  0.00  0.00    +0.200 C 
ENDROOT
BRANCH   1   2
ATOM      2  C   UNL     1       0.216  -4.375   5.023  0.00  0.00    +0.065 A 
ATOM      3  C   UNL     1       0.109  -4.968   6.272  0.00  0.00    +0.129 A 
ATOM      4  C   UNL     1      -1.107  -4.967   6.939  0.00  0.00    +0.091 A 
ATOM      5  C   UNL     1      -2.217  -4.374   6.356  0.00  0.00    +0.124 A 
ATOM      6  C   UNL     1      -2.110  -3.780   5.107  0.00  0.00    +0.091 A 
ATOM      7  C   UNL     1      -0.893  -3.777   4.443  0.00  0.00    +0.129 A 
BRANCH   7   8
ATOM      8  O   UNL     1      -0.787  -3.191   3.221  0.00  0.00    -0.506 OA
ATOM      9  H   UNL     1      -0.968  -3.788   2.482  0.00  0.00    +0.292 HD
ENDBRANCH   7   8
BRANCH   5  10
ATOM     10  O   UNL     1      -3.409  -4.374   7.008  0.00  0.00    -0.507 OA
ATOM     11  H   UNL     1      -3.544  -3.606   7.580  0.00  0.00    +0.292 HD
ENDBRANCH   5  10
BRANCH   3  12
ATOM     12  O   UNL     1       1.197  -5.549   6.843  0.00  0.00    -0.506 OA
ATOM     13  H   UNL     1       1.762  -4.934   7.330  0.00  0.00    +0.292 HD
ENDBRANCH   3  12
ENDBRANCH   1   2
BRANCH   1  15
ATOM     14  N   UNL     1       1.248  -2.730   2.475  0.00  0.00    -0.313 N 
ATOM     15  C   UNL     1       1.317  -4.022   2.851  0.00  0.00    +0.238 C 
ATOM     16  O   UNL     1       1.201  -4.902   2.023  0.00  0.00    -0.273 OA
ATOM     17  H   UNL     1       1.341  -2.027   3.137  0.00  0.00    +0.149 HD
BRANCH  14  18
ATOM     18  C   UNL     1       1.034  -2.387   1.067  0.00  0.00    +0.104 C 
BRANCH  18  19
ATOM     19  C   UNL     1       0.997  -0.865   0.913  0.00  0.00    +0.018 C 
BRANCH  19  21
ATOM     20  C   UNL     1       0.736   1.015  -0.712  0.00  0.00    +0.004 C 
ATOM     21  C   UNL     1       0.773  -0.507  -0.558  0.00  0.00    -0.002 C 
ENDBRANCH  19  21
ENDBRANCH  18  19
ENDBRANCH  14  18
ENDBRANCH   1  15
BRANCH   1  22
ATOM     22  N   UNL     1       2.144  -5.706   4.391  0.00  0.00    -0.276 N 
ATOM     23  C   UNL     1       1.442  -6.794   4.016  0.00  0.00    +0.250 C 
ATOM     24  O   UNL     1       0.369  -6.663   3.465  0.00  0.00    -0.272 OA
BRANCH  22  25
ATOM     25  C   UNL     1       3.513  -5.854   4.890  0.00  0.00    +0.183 C 
BRANCH  25  26
ATOM     26  C   UNL     1       4.487  -5.571   3.775  0.00  0.00    +0.122 A 
ATOM     27  C   UNL     1       5.126  -4.406   3.565  0.00  0.00    +0.046 A 
ATOM     28  C   UNL     1       5.936  -4.584   2.420  0.00  0.00    +0.041 A 
ATOM     29  C   UNL     1       5.743  -5.846   1.998  0.00  0.00    +0.195 A 
ATOM     30  O   UNL     1       4.869  -6.442   2.826  0.00  0.00    -0.466 OA
ENDBRANCH  25  26
ENDBRANCH  22  25
BRANCH  23  31
ATOM     31  C   UNL     1       1.990  -8.172   4.281  0.00  0.00    +0.233 C 
BRANCH  31  32
ATOM     32  C   UNL     1       3.104  -8.465   3.309  0.00  0.00    -0.010 A 
ATOM     33  C   UNL     1       2.830  -8.587   1.960  0.00  0.00    +0.006 A 
ATOM     34  C   UNL     1       3.851  -8.856   1.068  0.00  0.00    +0.000 A 
ATOM     35  C   UNL     1       5.147  -9.003   1.526  0.00  0.00    +0.000 A 
ATOM     36  C   UNL     1       5.422  -8.880   2.876  0.00  0.00    +0.000 A 
ATOM     37  C   UNL     1       4.401  -8.607   3.766  0.00  0.00    +0.006 A 
ENDBRANCH  31  32
BRANCH  31  38
ATOM     38  O   UNL     1       0.950  -9.138   4.119  0.00  0.00    -0.366 OA
ATOM     39  C   UNL     1       0.217  -9.411   5.315  0.00  0.00    +0.195 C 
ENDBRANCH  31  38
ENDBRANCH  23  31
ENDBRANCH   1  22
TORSDOF 14
