REMARK  Name = ZINC35325870
REMARK  5 active torsions:
REMARK  status: ('A' for Active; 'I' for Inactive)
REMARK    1  A    between atoms: C_4  and  C_7
REMARK    2  A    between atoms: C_7  and  N_8
REMARK    3  A    between atoms: C_15  and  N_31
REMARK    4  A    between atoms: C_16  and  C_20
REMARK    5  A    between atoms: C_20  and  C_22
REMARK                            x       y       z     vdW  Elec       q    Type
REMARK                         _______ _______ _______ _____ _____    ______ ____
ROOT
ATOM      1  N   UNL     1       3.867   0.259   1.954  0.00  0.00    -0.294 NA
ATOM      2  C   UNL     1       5.211  -0.318   1.800  0.00  0.00    +0.091 C 
ATOM      3  C   UNL     1       5.836  -0.471   3.187  0.00  0.00    +0.071 C 
ATOM      4  C   UNL     1       4.878  -1.187   4.106  0.00  0.00    +0.048 A 
ATOM      5  C   UNL     1       3.532  -1.301   3.804  0.00  0.00    -0.011 A 
ATOM      6  C   UNL     1       2.683  -1.957   4.671  0.00  0.00    +0.019 A 
ATOM      7  C   UNL     1       3.201  -2.514   5.865  0.00  0.00    +0.029 A 
ATOM      8  C   UNL     1       2.498  -3.240   6.911  0.00  0.00    +0.052 A 
ATOM      9  C   UNL     1       3.226  -3.694   7.994  0.00  0.00    +0.083 A 
ATOM     10  S   UNL     1       4.884  -3.151   7.632  0.00  0.00    -0.064 S 
ATOM     11  C   UNL     1       4.588  -2.346   6.078  0.00  0.00    +0.111 A 
ATOM     12  N   UNL     1       5.356  -1.710   5.223  0.00  0.00    -0.244 NA
ATOM     13  C   UNL     1       2.953  -0.729   2.536  0.00  0.00    +0.121 C 
ENDROOT
BRANCH   8  14
ATOM     14  N   UNL     1       1.134  -3.471   6.824  0.00  0.00    -0.356 N 
ATOM     15  H   UNL     1       0.635  -3.147   6.058  0.00  0.00    +0.142 HD
ATOM     16  H   UNL     1       0.678  -3.957   7.529  0.00  0.00    +0.142 HD
ENDBRANCH   8  14
BRANCH   9  17
ATOM     17  C   UNL     1       2.764  -4.416   9.120  0.00  0.00    +0.202 C 
ATOM     18  O   UNL     1       1.615  -4.820   9.157  0.00  0.00    -0.286 OA
BRANCH  17  19
ATOM     19  C   UNL     1       3.676  -4.680  10.253  0.00  0.00    +0.027 A 
ATOM     20  C   UNL     1       4.751  -3.822  10.501  0.00  0.00    +0.015 A 
ATOM     21  C   UNL     1       5.600  -4.070  11.557  0.00  0.00    +0.050 A 
ATOM     22  C   UNL     1       5.393  -5.171  12.378  0.00  0.00    +0.166 A 
ATOM     23  C   UNL     1       4.321  -6.031  12.135  0.00  0.00    +0.167 A 
ATOM     24  C   UNL     1       3.463  -5.784  11.081  0.00  0.00    +0.061 A 
ATOM     25  O   UNL     1       4.338  -7.023  13.073  0.00  0.00    -0.453 OA
ATOM     26  C   UNL     1       5.661  -6.992  13.640  0.00  0.00    +0.466 C 
ATOM     27  O   UNL     1       6.077  -5.625  13.466  0.00  0.00    -0.453 OA
ENDBRANCH  17  19
ENDBRANCH   9  17
BRANCH   1  28
ATOM     28  C   UNL     1       3.357   0.755   0.669  0.00  0.00    +0.120 C 
BRANCH  28  32
ATOM     29  C   UNL     1      -0.243   2.961   1.320  0.00  0.00    +0.000 A 
ATOM     30  C   UNL     1       0.978   3.607   1.349  0.00  0.00    +0.000 A 
ATOM     31  C   UNL     1       2.143   2.893   1.139  0.00  0.00    +0.005 A 
ATOM     32  C   UNL     1       2.087   1.533   0.899  0.00  0.00    -0.033 A 
ATOM     33  C   UNL     1       0.865   0.887   0.871  0.00  0.00    +0.005 A 
ATOM     34  C   UNL     1      -0.300   1.601   1.080  0.00  0.00    +0.000 A 
ENDBRANCH  28  32
ENDBRANCH   1  28
TORSDOF 5
