REMARK  Name = ZINC40156511
REMARK  3 active torsions:
REMARK  status: ('A' for Active; 'I' for Inactive)
REMARK    1  A    between atoms: C_8  and  C_11
REMARK    2  A    between atoms: C_17  and  S_24
REMARK    3  A    between atoms: S_24  and  N_27
REMARK                            x       y       z     vdW  Elec       q    Type
REMARK                         _______ _______ _______ _____ _____    ______ ____
ROOT
ATOM      1  C   UNL     1       2.576  -4.224   0.295  0.00  0.00    +0.190 C 
ATOM      2  N   UNL     1       3.472  -4.645  -0.779  0.00  0.00    -0.322 N 
ATOM      3  C   UNL     1       3.146  -4.548  -2.130  0.00  0.00    +0.057 A 
ATOM      4  C   UNL     1       4.175  -4.528  -3.070  0.00  0.00    +0.047 A 
ATOM      5  C   UNL     1       3.884  -4.450  -4.416  0.00  0.00    +0.069 A 
ATOM      6  C   UNL     1       2.568  -4.392  -4.843  0.00  0.00    +0.125 A 
ATOM      7  C   UNL     1       1.543  -4.405  -3.916  0.00  0.00    +0.060 A 
ATOM      8  C   UNL     1       1.831  -4.474  -2.569  0.00  0.00    +0.128 A 
ATOM      9  S   UNL     1       0.517  -4.450  -1.386  0.00  0.00    +0.062 S 
ATOM     10  O   UNL     1      -0.349  -5.530  -1.706  0.00  0.00    -0.153 OA
ATOM     11  O   UNL     1       0.069  -3.106  -1.291  0.00  0.00    -0.153 OA
ATOM     12  N   UNL     1       1.247  -4.826   0.070  0.00  0.00    -0.166 NA
ATOM     13 CL   UNL     1       5.173  -4.423  -5.579  0.00  0.00    -0.081 Cl
ATOM     14  H   UNL     1       4.338  -5.010  -0.540  0.00  0.00    +0.148 HD
ATOM     15  H   UNL     1       0.826  -5.404   0.726  0.00  0.00    +0.150 HD
ENDROOT
BRANCH   1  23
ATOM     16  C   UNL     1       3.258   1.636  -1.543  0.00  0.00    +0.001 A 
ATOM     17  C   UNL     1       2.707   2.213  -0.412  0.00  0.00    +0.004 A 
ATOM     18  C   UNL     1       2.310   1.429   0.656  0.00  0.00    +0.046 A 
ATOM     19  C   UNL     1       2.461   0.056   0.593  0.00  0.00    +0.128 A 
ATOM     20  C   UNL     1       3.006  -0.532  -0.556  0.00  0.00    +0.017 A 
ATOM     21  C   UNL     1       3.411   0.265  -1.621  0.00  0.00    +0.011 A 
ATOM     22  C   UNL     1       3.118  -2.005  -0.610  0.00  0.00    +0.017 C 
ATOM     23  C   UNL     1       2.458  -2.721   0.294  0.00  0.00    +0.004 C 
ATOM     24  C   UNL     1       1.591  -2.037   1.319  0.00  0.00    +0.263 C 
ATOM     25  O   UNL     1       2.102  -0.742   1.632  0.00  0.00    -0.487 OA
ENDBRANCH   1  23
BRANCH   6  26
ATOM     26  S   UNL     1       2.202  -4.301  -6.564  0.00  0.00    +0.057 S 
ATOM     27  O   UNL     1       2.964  -5.321  -7.196  0.00  0.00    -0.153 OA
ATOM     28  O   UNL     1       0.787  -4.228  -6.675  0.00  0.00    -0.153 OA
BRANCH  26  29
ATOM     29  N   UNL     1       2.795  -2.857  -7.116  0.00  0.00    -0.203 NA
ATOM     30  H   UNL     1       3.245  -2.252  -6.505  0.00  0.00    +0.144 HD
ATOM     31  H   UNL     1       2.693  -2.615  -8.050  0.00  0.00    +0.144 HD
ENDBRANCH  26  29
ENDBRANCH   6  26
TORSDOF 3
