REMARK  Name = ZINC12434150
REMARK  9 active torsions:
REMARK  status: ('A' for Active; 'I' for Inactive)
REMARK    1  A    between atoms: C_1  and  C_2
REMARK    2  A    between atoms: C_2  and  C_3
REMARK    3  A    between atoms: C_2  and  C_4
REMARK    4  A    between atoms: C_4  and  N_53
REMARK    5  A    between atoms: C_10  and  C_12
REMARK    6  A    between atoms: C_12  and  C_13
REMARK    7  A    between atoms: N_15  and  C_16
REMARK    8  A    between atoms: N_15  and  C_17
REMARK    9  A    between atoms: C_17  and  C_18
REMARK                            x       y       z     vdW  Elec       q    Type
REMARK                         _______ _______ _______ _____ _____    ______ ____
ROOT
ATOM      1  C   UNL     1      -0.787   0.609   3.715  0.00  0.00    +0.215 C 
ATOM      2  O   UNL     1      -0.343   1.476   2.993  0.00  0.00    -0.276 OA
ATOM      3  N   UNL     1       0.041  -0.089   4.517  0.00  0.00    -0.297 N 
ATOM      4  C   UNL     1      -0.494  -1.137   5.390  0.00  0.00    +0.132 C 
ENDROOT
BRANCH   1   5
ATOM      5  C   UNL     1      -2.264   0.311   3.716  0.00  0.00    +0.090 C 
BRANCH   5  11
ATOM      6  C   UNL     1      -3.155   3.353   1.703  0.00  0.00    -0.059 C 
ATOM      7  C   UNL     1      -2.235   3.061   0.516  0.00  0.00    +0.085 C 
ATOM      8  N   UNL     1      -2.101   1.620   0.329  0.00  0.00    -0.318 N 
ATOM      9  C   UNL     1      -2.406   0.732   1.281  0.00  0.00    +0.200 C 
ATOM     10  O   UNL     1      -2.236  -0.447   1.052  0.00  0.00    -0.278 OA
ATOM     11  C   UNL     1      -2.950   1.133   2.623  0.00  0.00    +0.028 C 
ATOM     12  H   UNL     1      -1.777   1.291  -0.524  0.00  0.00    +0.149 HD
ATOM     13  N   UNL     1      -2.678   2.563   2.856  0.00  0.00    +0.389 N 
ATOM     14  H   UNL     1      -1.666   2.700   2.961  0.00  0.00    -0.081 HD
BRANCH  13  15
ATOM     15  C   UNL     1      -3.355   3.012   4.094  0.00  0.00    -0.075 C 
BRANCH  15  17
ATOM     16  C   UNL     1      -3.115   3.179   6.575  0.00  0.00    +0.005 C 
ATOM     17  C   UNL     1      -2.388   2.856   5.269  0.00  0.00    -0.034 C 
ATOM     18  C   UNL     1      -1.209   3.815   5.090  0.00  0.00    +0.005 C 
ENDBRANCH  15  17
ENDBRANCH  13  15
ENDBRANCH   5  11
ENDBRANCH   1   5
BRANCH   3  19
ATOM     19  C   UNL     1       1.478   0.200   4.517  0.00  0.00    +0.181 C 
BRANCH  19  20
ATOM     20  C   UNL     1       1.777   1.257   5.549  0.00  0.00    +0.126 A 
ATOM     21  N   UNL     1       2.181   1.009   6.824  0.00  0.00    -0.341 N 
ATOM     22  H   UNL     1       2.326   0.109   7.235  0.00  0.00    +0.167 HD
ATOM     23  C   UNL     1       2.353   2.230   7.445  0.00  0.00    +0.066 A 
ATOM     24  C   UNL     1       2.746   2.618   8.719  0.00  0.00    +0.029 A 
ATOM     25  C   UNL     1       2.813   3.957   9.037  0.00  0.00    +0.022 A 
ATOM     26  C   UNL     1       2.490   4.923   8.093  0.00  0.00    +0.043 A 
ATOM     27  C   UNL     1       2.098   4.556   6.825  0.00  0.00    +0.050 A 
ATOM     28  C   UNL     1       2.025   3.202   6.486  0.00  0.00    +0.091 A 
ATOM     29  N   UNL     1       1.683   2.539   5.351  0.00  0.00    -0.231 NA
ATOM     30 CL   UNL     1       2.581   6.604   8.514  0.00  0.00    -0.083 Cl
ENDBRANCH  19  20
ENDBRANCH   3  19
TORSDOF 6
