REMARK  Name = ZINC15828579
REMARK  2 active torsions:
REMARK  status: ('A' for Active; 'I' for Inactive)
REMARK    1  A    between atoms: N_14  and  S_17
REMARK    2  A    between atoms: S_17  and  C_20
REMARK                            x       y       z     vdW  Elec       q    Type
REMARK                         _______ _______ _______ _____ _____    ______ ____
ROOT
ATOM      1  C   UNL     1       3.660   3.410   0.028  0.00  0.00    +0.001 A 
ATOM      2  C   UNL     1       2.565   4.018  -0.566  0.00  0.00    +0.002 A 
ATOM      3  C   UNL     1       1.335   3.390  -0.582  0.00  0.00    +0.024 A 
ATOM      4  C   UNL     1       1.196   2.143   0.002  0.00  0.00    +0.041 A 
ATOM      5  C   UNL     1       2.303   1.524   0.610  0.00  0.00    +0.058 A 
ATOM      6  C   UNL     1       3.538   2.168   0.616  0.00  0.00    +0.015 A 
ATOM      7  C   UNL     1       2.115   0.199   1.227  0.00  0.00    +0.247 C 
ATOM      8  O   UNL     1       2.961  -0.259   1.970  0.00  0.00    -0.270 OA
ATOM      9  N   UNL     1       0.993  -0.500   0.958  0.00  0.00    -0.290 N 
ATOM     10  C   UNL     1       0.002  -0.004   0.002  0.00  0.00    +0.101 C 
ATOM     11  N   UNL     1      -0.018   1.464   0.010  0.00  0.00    -0.323 N 
ATOM     12  C   UNL     1       0.362  -0.493  -1.403  0.00  0.00    +0.062 C 
ATOM     13  C   UNL     1      -0.656   0.057  -2.407  0.00  0.00    +0.113 C 
ATOM     14  N   UNL     1      -2.006  -0.319  -1.966  0.00  0.00    -0.176 NA
ATOM     15  C   UNL     1      -2.422   0.021  -0.599  0.00  0.00    +0.113 C 
ATOM     16  C   UNL     1      -1.384  -0.528   0.385  0.00  0.00    +0.062 C 
ATOM     17  H   UNL     1       0.840  -1.347   1.406  0.00  0.00    +0.151 HD
ATOM     18  H   UNL     1      -0.858   1.950   0.017  0.00  0.00    +0.148 HD
ENDROOT
BRANCH  14  19
ATOM     19  S   UNL     1      -3.038  -1.110  -2.990  0.00  0.00    +0.061 S 
ATOM     20  O   UNL     1      -2.228  -1.771  -3.953  0.00  0.00    -0.153 OA
ATOM     21  O   UNL     1      -3.969  -1.806  -2.172  0.00  0.00    -0.153 OA
BRANCH  19  22
ATOM     22  C   UNL     1      -3.954   0.119  -3.860  0.00  0.00    +0.107 A 
ATOM     23  C   UNL     1      -5.152   0.580  -3.347  0.00  0.00    +0.031 A 
ATOM     24  C   UNL     1      -5.868   1.548  -4.025  0.00  0.00    +0.042 A 
ATOM     25  C   UNL     1      -5.391   2.048  -5.224  0.00  0.00    +0.142 A 
ATOM     26  C   UNL     1      -4.193   1.582  -5.741  0.00  0.00    +0.078 A 
ATOM     27  C   UNL     1      -3.475   0.618  -5.057  0.00  0.00    +0.051 A 
ATOM     28 CL   UNL     1      -3.593   2.209  -7.245  0.00  0.00    -0.081 Cl
ATOM     29  F   UNL     1      -6.094   2.991  -5.891  0.00  0.00    -0.204 F 
ENDBRANCH  19  22
ENDBRANCH  14  19
TORSDOF 2
