REMARK  Name = ZINC09116115
REMARK  8 active torsions:
REMARK  status: ('A' for Active; 'I' for Inactive)
REMARK    1  A    between atoms: C_4  and  C_7
REMARK    2  A    between atoms: C_7  and  N_67
REMARK    3  A    between atoms: C_10  and  N_13
REMARK    4  A    between atoms: C_14  and  C_16
REMARK    5  A    between atoms: C_16  and  C_17
REMARK    6  A    between atoms: C_17  and  C_18
REMARK    7  A    between atoms: N_20  and  C_27
REMARK    8  A    between atoms: C_27  and  C_28
REMARK                            x       y       z     vdW  Elec       q    Type
REMARK                         _______ _______ _______ _____ _____    ______ ____
ROOT
ATOM      1  C   UNL     1      -1.537   5.924   1.514  0.00  0.00    +0.100 C 
ENDROOT
BRANCH   1   3
ATOM      2  N   UNL     1      -3.258   7.204   2.745  0.00  0.00    -0.313 N 
ATOM      3  C   UNL     1      -2.673   6.912   1.567  0.00  0.00    +0.214 C 
ATOM      4  O   UNL     1      -3.061   7.446   0.549  0.00  0.00    -0.276 OA
ATOM      5  H   UNL     1      -2.948   6.777   3.560  0.00  0.00    +0.149 HD
BRANCH   2   8
ATOM      6  C   UNL     1      -6.349   8.922   4.106  0.00  0.00    -0.077 C 
ATOM      7  C   UNL     1      -5.233   7.878   4.024  0.00  0.00    +0.003 C 
ATOM      8  C   UNL     1      -4.363   8.165   2.797  0.00  0.00    +0.069 C 
ATOM      9  C   UNL     1      -3.800   9.585   2.901  0.00  0.00    +0.003 C 
ATOM     10  C   UNL     1      -4.958  10.580   3.016  0.00  0.00    -0.077 C 
ATOM     11  N   UNL     1      -5.743  10.265   4.228  0.00  0.00    +0.382 N 
ATOM     12  H   UNL     1      -5.116  10.274   5.042  0.00  0.00    -0.081 HD
BRANCH  11  13
ATOM     13  C   UNL     1      -6.798  11.280   4.424  0.00  0.00    -0.043 C 
BRANCH  13  17
ATOM     14  C   UNL     1      -4.957  15.012   5.385  0.00  0.00    +0.000 A 
ATOM     15  C   UNL     1      -5.223  14.692   4.067  0.00  0.00    +0.000 A 
ATOM     16  C   UNL     1      -5.819  13.484   3.756  0.00  0.00    +0.002 A 
ATOM     17  C   UNL     1      -6.149  12.597   4.763  0.00  0.00    -0.064 A 
ATOM     18  C   UNL     1      -5.887  12.919   6.082  0.00  0.00    +0.002 A 
ATOM     19  C   UNL     1      -5.287  14.125   6.392  0.00  0.00    +0.000 A 
ENDBRANCH  13  17
ENDBRANCH  11  13
ENDBRANCH   2   8
ENDBRANCH   1   3
BRANCH   1  20
ATOM     20  C   UNL     1      -1.057   5.775   0.069  0.00  0.00    +0.046 C 
BRANCH  20  21
ATOM     21  C   UNL     1       0.079   4.787   0.016  0.00  0.00    -0.022 A 
ATOM     22  C   UNL     1       1.390   5.074   0.046  0.00  0.00    +0.090 A 
ATOM     23  N   UNL     1       2.122   3.920  -0.021  0.00  0.00    -0.342 N 
ATOM     24  C   UNL     1       1.279   2.834  -0.098  0.00  0.00    +0.050 A 
ATOM     25  C   UNL     1      -0.038   3.329  -0.078  0.00  0.00    +0.003 A 
ATOM     26  C   UNL     1      -1.115   2.444  -0.145  0.00  0.00    +0.010 A 
ATOM     27  C   UNL     1      -0.885   1.100  -0.234  0.00  0.00    +0.001 A 
ATOM     28  C   UNL     1       0.412   0.607  -0.248  0.00  0.00    +0.002 A 
ATOM     29  C   UNL     1       1.491   1.462  -0.183  0.00  0.00    +0.026 A 
BRANCH  23  30
ATOM     30  C   UNL     1       3.586   3.851  -0.012  0.00  0.00    +0.159 C 
BRANCH  30  31
ATOM     31  C   UNL     1       4.069   3.628   1.398  0.00  0.00    +0.007 A 
ATOM     32  C   UNL     1       4.363   2.350   1.835  0.00  0.00    +0.008 A 
ATOM     33  C   UNL     1       4.807   2.146   3.128  0.00  0.00    +0.000 A 
ATOM     34  C   UNL     1       4.958   3.220   3.986  0.00  0.00    +0.003 A 
ATOM     35  C   UNL     1       4.666   4.498   3.551  0.00  0.00    +0.039 A 
ATOM     36  C   UNL     1       4.225   4.705   2.255  0.00  0.00    +0.128 A 
ATOM     37  F   UNL     1       3.944   5.955   1.827  0.00  0.00    -0.205 F 
ENDBRANCH  30  31
ENDBRANCH  23  30
ENDBRANCH  20  21
ENDBRANCH   1  20
TORSDOF 8
