REMARK  Name = ZINC02198595
REMARK  7 active torsions:
REMARK  status: ('A' for Active; 'I' for Inactive)
REMARK    1  A    between atoms: C_4  and  C_7
REMARK    2  A    between atoms: C_7  and  C_9
REMARK    3  A    between atoms: C_14  and  N_15
REMARK    4  A    between atoms: C_16  and  C_18
REMARK    5  A    between atoms: C_18  and  N_19
REMARK    6  A    between atoms: C_20  and  C_22
REMARK    7  A    between atoms: C_22  and  N_23
REMARK                            x       y       z     vdW  Elec       q    Type
REMARK                         _______ _______ _______ _____ _____    ______ ____
ROOT
ATOM      1  N   UNL     1       6.003  -2.270   0.042  0.00  0.00    -0.284 N 
ATOM      2  C   UNL     1       7.151  -2.974  -0.017  0.00  0.00    +0.234 C 
ATOM      3  O   UNL     1       7.118  -4.185  -0.063  0.00  0.00    -0.274 OA
ATOM      4  H   UNL     1       6.030  -1.306   0.149  0.00  0.00    +0.155 HD
ENDROOT
BRANCH   1  10
ATOM      5  C   UNL     1       3.691  -2.304  -0.682  0.00  0.00    +0.044 A 
ATOM      6  C   UNL     1       2.468  -2.976  -0.774  0.00  0.00    +0.028 A 
ATOM      7  C   UNL     1       2.338  -4.240  -0.242  0.00  0.00    +0.019 A 
ATOM      8  C   UNL     1       3.414  -4.850   0.387  0.00  0.00    +0.017 A 
ATOM      9  C   UNL     1       4.626  -4.198   0.485  0.00  0.00    +0.025 A 
ATOM     10  C   UNL     1       4.779  -2.927  -0.051  0.00  0.00    +0.044 A 
ATOM     11 BR   UNL     1       0.684  -5.148  -0.367  0.00  0.00    -0.050 Br
BRANCH   5  12
ATOM     12  C   UNL     1       3.837  -0.951  -1.250  0.00  0.00    +0.195 C 
ATOM     13  O   UNL     1       3.361   0.006  -0.671  0.00  0.00    -0.287 OA
BRANCH  12  17
ATOM     14  C   UNL     1       5.928  -0.398  -4.906  0.00  0.00    +0.000 A 
ATOM     15  C   UNL     1       5.299   0.677  -4.302  0.00  0.00    +0.001 A 
ATOM     16  C   UNL     1       4.619   0.505  -3.115  0.00  0.00    +0.012 A 
ATOM     17  C   UNL     1       4.564  -0.759  -2.522  0.00  0.00    +0.022 A 
ATOM     18  C   UNL     1       5.200  -1.839  -3.137  0.00  0.00    +0.012 A 
ATOM     19  C   UNL     1       5.878  -1.653  -4.324  0.00  0.00    +0.001 A 
ENDBRANCH  12  17
ENDBRANCH   5  12
ENDBRANCH   1  10
BRANCH   2  20
ATOM     20  C   UNL     1       8.476  -2.255  -0.025  0.00  0.00    +0.200 C 
BRANCH  20  21
ATOM     21  N   UNL     1       9.563  -3.235  -0.093  0.00  0.00    -0.308 N 
ATOM     22  C   UNL     1      10.845  -2.820  -0.112  0.00  0.00    +0.197 C 
ATOM     23  O   UNL     1      11.099  -1.634  -0.073  0.00  0.00    -0.278 OA
ATOM     24  H   UNL     1       9.360  -4.183  -0.125  0.00  0.00    +0.149 HD
BRANCH  22  25
ATOM     25  C   UNL     1      11.963  -3.828  -0.182  0.00  0.00    +0.019 C 
BRANCH  25  26
ATOM     26  N   UNL     1      13.254  -3.127  -0.191  0.00  0.00    +0.385 N 
ATOM     27  C   UNL     1      13.366  -2.325  -1.415  0.00  0.00    -0.078 C 
ATOM     28  C   UNL     1      14.673  -1.530  -1.390  0.00  0.00    -0.019 C 
ATOM     29  C   UNL     1      15.854  -2.502  -1.305  0.00  0.00    -0.004 C 
ATOM     30  C   UNL     1      15.688  -3.385  -0.065  0.00  0.00    -0.019 C 
ATOM     31  C   UNL     1      14.342  -4.111  -0.138  0.00  0.00    -0.078 C 
ATOM     32  H   UNL     1      13.311  -2.520   0.613  0.00  0.00    -0.081 HD
ENDBRANCH  25  26
ENDBRANCH  22  25
ENDBRANCH  20  21
ENDBRANCH   2  20
TORSDOF 7
