REMARK  Name = ZINC20323908
REMARK  11 active torsions:
REMARK  status: ('A' for Active; 'I' for Inactive)
REMARK    1  A    between atoms: C_1  and  C_2
REMARK    2  A    between atoms: C_3  and  C_32
REMARK    3  A    between atoms: C_4  and  C_22
REMARK    4  A    between atoms: C_10  and  C_15
REMARK    5  A    between atoms: C_24  and  O_30
REMARK    6  A    between atoms: C_27  and  O_28
REMARK    7  A    between atoms: O_28  and  C_29
REMARK    8  A    between atoms: O_30  and  C_31
REMARK    9  A    between atoms: C_32  and  O_34
REMARK   10  A    between atoms: O_34  and  C_35
REMARK   11  A    between atoms: C_35  and  C_36
REMARK                            x       y       z     vdW  Elec       q    Type
REMARK                         _______ _______ _______ _____ _____    ______ ____
ROOT
ATOM      1  C   UNL     1       1.320  -2.184  -0.418  0.00  0.00    +0.061 C 
ATOM      2  C   UNL     1       1.216  -0.681  -0.385  0.00  0.00    +0.016 C 
ATOM      3  C   UNL     1       0.054  -0.100  -0.037  0.00  0.00    +0.065 C 
ATOM      4  C   UNL     1      -0.089   1.393  -0.001  0.00  0.00    +0.096 C 
ATOM      5  C   UNL     1       1.260   2.066   0.032  0.00  0.00    +0.024 C 
ATOM      6  C   UNL     1       2.376   1.392  -0.318  0.00  0.00    +0.016 C 
ATOM      7  N   UNL     1       2.302   0.082  -0.709  0.00  0.00    -0.321 N 
ATOM      8  C   UNL     1       3.729   2.058  -0.282  0.00  0.00    +0.059 C 
ATOM      9  C   UNL     1       3.575   3.551  -0.572  0.00  0.00    +0.032 C 
ATOM     10  C   UNL     1       2.630   4.154   0.472  0.00  0.00    +0.088 C 
ATOM     11  C   UNL     1       1.321   3.412   0.434  0.00  0.00    +0.162 C 
ATOM     12  O   UNL     1       0.300   3.986   0.755  0.00  0.00    -0.292 OA
ATOM     13  H   UNL     1       3.128  -0.355  -1.289  0.00  0.00    +0.152 HD
ENDROOT
BRANCH   9  14
ATOM     14  C   UNL     1       4.919   4.229  -0.489  0.00  0.00    -0.043 A 
ATOM     15  C   UNL     1       5.644   4.184   0.687  0.00  0.00    +0.007 A 
ATOM     16  C   UNL     1       6.878   4.800   0.763  0.00  0.00    +0.038 A 
ATOM     17  C   UNL     1       7.384   5.473  -0.337  0.00  0.00    +0.123 A 
ATOM     18  C   UNL     1       6.655   5.521  -1.513  0.00  0.00    +0.038 A 
ATOM     19  C   UNL     1       5.423   4.899  -1.588  0.00  0.00    +0.007 A 
ATOM     20  F   UNL     1       8.588   6.081  -0.263  0.00  0.00    -0.205 F 
ENDBRANCH   9  14
BRANCH   4  21
ATOM     21  C   UNL     1      -0.839   1.847  -1.226  0.00  0.00    +0.010 A 
ATOM     22  C   UNL     1      -0.327   1.592  -2.484  0.00  0.00    +0.053 A 
ATOM     23  C   UNL     1      -1.020   2.006  -3.612  0.00  0.00    +0.121 A 
ATOM     24  C   UNL     1      -2.221   2.687  -3.477  0.00  0.00    +0.049 A 
ATOM     25  C   UNL     1      -2.730   2.947  -2.220  0.00  0.00    +0.049 A 
ATOM     26  C   UNL     1      -2.040   2.527  -1.092  0.00  0.00    +0.124 A 
BRANCH  26  27
ATOM     27  O   UNL     1      -2.541   2.784   0.146  0.00  0.00    -0.495 OA
ATOM     28  C   UNL     1      -3.783   3.488   0.210  0.00  0.00    +0.277 C 
ENDBRANCH  26  27
BRANCH  23  29
ATOM     29  O   UNL     1      -0.518   1.750  -4.849  0.00  0.00    -0.495 OA
ATOM     30  C   UNL     1      -1.281   2.210  -5.966  0.00  0.00    +0.277 C 
ENDBRANCH  23  29
ENDBRANCH   4  21
BRANCH   3  31
ATOM     31  C   UNL     1      -1.053  -0.912   0.302  0.00  0.00    +0.338 C 
ATOM     32  O   UNL     1      -0.984  -2.120   0.175  0.00  0.00    -0.245 OA
BRANCH  31  33
ATOM     33  O   UNL     1      -2.187  -0.346   0.767  0.00  0.00    -0.459 OA
BRANCH  33  34
ATOM     34  C   UNL     1      -3.266  -1.226   1.090  0.00  0.00    +0.264 C 
BRANCH  34  35
ATOM     35  C   UNL     1      -4.456  -0.409   1.596  0.00  0.00    +0.156 C 
ATOM     36  C   UNL     1      -5.664  -1.336   1.836  0.00  0.00    +0.037 C 
ATOM     37  C   UNL     1      -6.003  -1.138   3.333  0.00  0.00    +0.031 C 
ATOM     38  C   UNL     1      -5.343   0.232   3.637  0.00  0.00    +0.160 C 
ATOM     39  O   UNL     1      -4.128   0.204   2.854  0.00  0.00    -0.373 OA
ENDBRANCH  34  35
ENDBRANCH  33  34
ENDBRANCH  31  33
ENDBRANCH   3  31
TORSDOF 8
