REMARK  Name = ZINC08314776
REMARK  5 active torsions:
REMARK  status: ('A' for Active; 'I' for Inactive)
REMARK    1  A    between atoms: C_8  and  C_23
REMARK    2  A    between atoms: C_9  and  O_22
REMARK    3  A    between atoms: C_10  and  C_11
REMARK    4  A    between atoms: C_11  and  N_56
REMARK    5  A    between atoms: C_15  and  C_17
REMARK                            x       y       z     vdW  Elec       q    Type
REMARK                         _______ _______ _______ _____ _____    ______ ____
ROOT
ATOM      1  C   UNL     1       4.347  -0.531   1.112  0.00  0.00    +0.001 A 
ATOM      2  C   UNL     1       3.085  -1.045   0.820  0.00  0.00    +0.001 A 
ATOM      3  C   UNL     1       1.973  -0.572   1.446  0.00  0.00    +0.009 A 
ATOM      4  C   UNL     1       2.094   0.450   2.404  0.00  0.00    -0.013 A 
ATOM      5  C   UNL     1       3.378   0.978   2.697  0.00  0.00    -0.017 A 
ATOM      6  C   UNL     1       4.503   0.467   2.024  0.00  0.00    +0.008 A 
ATOM      7  C   UNL     1       3.508   1.993   3.655  0.00  0.00    +0.025 A 
ATOM      8  C   UNL     1       2.379   2.472   4.299  0.00  0.00    +0.079 A 
ATOM      9  C   UNL     1       1.106   1.946   3.996  0.00  0.00    +0.131 A 
ATOM     10  C   UNL     1       0.964   0.958   3.067  0.00  0.00    -0.014 A 
ENDROOT
BRANCH   8  11
ATOM     11  C   UNL     1       2.509   3.541   5.309  0.00  0.00    +0.250 C 
ATOM     12  O   UNL     1       2.036   3.390   6.419  0.00  0.00    -0.270 OA
ATOM     13  N   UNL     1       3.152   4.685   5.000  0.00  0.00    -0.293 N 
ATOM     14  C   UNL     1       3.821   4.851   3.700  0.00  0.00    +0.136 C 
ATOM     15  C   UNL     1       3.349   6.178   3.085  0.00  0.00    +0.179 C 
ATOM     16  O   UNL     1       3.539   7.229   4.035  0.00  0.00    -0.377 OA
ATOM     17  C   UNL     1       2.773   7.081   5.233  0.00  0.00    +0.179 C 
ATOM     18  C   UNL     1       3.211   5.802   5.956  0.00  0.00    +0.136 C 
ENDBRANCH   8  11
BRANCH   9  19
ATOM     19  O   UNL     1       0.010   2.427   4.636  0.00  0.00    -0.506 OA
ATOM     20  H   UNL     1      -0.206   1.958   5.454  0.00  0.00    +0.292 HD
ENDBRANCH   9  19
BRANCH  10  21
ATOM     21  C   UNL     1      -0.403   0.406   2.756  0.00  0.00    -0.038 C 
BRANCH  21  26
ATOM     22  C   UNL     1      -0.859  -0.506   4.967  0.00  0.00    -0.078 C 
ATOM     23  C   UNL     1      -1.586  -1.748   5.527  0.00  0.00    -0.020 C 
ATOM     24  C   UNL     1      -2.252  -2.408   4.302  0.00  0.00    -0.012 C 
ATOM     25  C   UNL     1      -1.873  -1.509   3.106  0.00  0.00    -0.030 C 
ATOM     26  N   UNL     1      -0.649  -0.835   3.560  0.00  0.00    +0.387 N 
ATOM     27  H   UNL     1       0.156  -1.465   3.463  0.00  0.00    -0.080 HD
BRANCH  25  28
ATOM     28  C   UNL     1      -1.616  -2.347   1.880  0.00  0.00    -0.024 A 
ATOM     29  C   UNL     1      -2.425  -2.574   0.816  0.00  0.00    +0.009 A 
ATOM     30  C   UNL     1      -1.974  -3.387  -0.207  0.00  0.00    +0.008 A 
ATOM     31  C   UNL     1      -0.737  -3.933  -0.117  0.00  0.00    +0.045 A 
ATOM     32  S   UNL     1      -0.164  -3.292   1.448  0.00  0.00    -0.103 S 
ENDBRANCH  25  28
ENDBRANCH  21  26
ENDBRANCH  10  21
TORSDOF 5
