REMARK  Name = ZINC20608383
REMARK  7 active torsions:
REMARK  status: ('A' for Active; 'I' for Inactive)
REMARK    1  A    between atoms: C_1  and  C_2
REMARK    2  A    between atoms: C_2  and  C_25
REMARK    3  A    between atoms: N_3  and  N_4
REMARK    4  A    between atoms: C_7  and  S_10
REMARK    5  A    between atoms: S_10  and  C_11
REMARK    6  A    between atoms: C_11  and  C_12
REMARK    7  A    between atoms: N_14  and  C_15
REMARK                            x       y       z     vdW  Elec       q    Type
REMARK                         _______ _______ _______ _____ _____    ______ ____
ROOT
ATOM      1  N   UNL     1      -3.690  -0.991   0.015  0.00  0.00    -0.205 N 
ATOM      2  C   UNL     1      -3.677  -2.378   0.008  0.00  0.00    +0.232 A 
ATOM      3  N   UNL     1      -4.776  -3.192   0.009  0.00  0.00    -0.186 NA
ATOM      4  C   UNL     1      -4.342  -4.487   0.000  0.00  0.00    +0.211 A 
ATOM      5  N   UNL     1      -3.030  -4.476  -0.006  0.00  0.00    -0.144 NA
ATOM      6  N   UNL     1      -2.610  -3.139  -0.007  0.00  0.00    -0.245 N 
ATOM      7  H   UNL     1      -4.648  -0.450   0.023  0.00  0.00    +0.177 HD
ATOM      8  H   UNL     1      -1.609  -2.682  -0.016  0.00  0.00    +0.192 HD
ENDROOT
BRANCH   1  11
ATOM      9  C   UNL     1      -3.807   1.761   0.030  0.00  0.00    +0.069 C 
ATOM     10  C   UNL     1      -2.495   1.020   0.020  0.00  0.00    +0.081 C 
ATOM     11  N   UNL     1      -2.483  -0.279   0.013  0.00  0.00    -0.183 NA
BRANCH  10  12
ATOM     12  C   UNL     1      -1.226   1.768   0.017  0.00  0.00    +0.086 A 
ATOM     13  C   UNL     1      -0.013   1.076   0.008  0.00  0.00    +0.029 A 
ATOM     14  C   UNL     1       1.169   1.793   0.001  0.00  0.00    +0.004 A 
ATOM     15  C   UNL     1       1.104   3.181   0.008  0.00  0.00    +0.020 A 
ATOM     16  C   UNL     1      -0.131   3.802   0.023  0.00  0.00    +0.111 A 
ATOM     17  N   UNL     1      -1.244   3.098   0.030  0.00  0.00    -0.254 NA
ENDBRANCH  10  12
ENDBRANCH   1  11
BRANCH   4  18
ATOM     18  S   UNL     1      -5.365  -5.922  -0.003  0.00  0.00    -0.075 S 
BRANCH  18  19
ATOM     19  C   UNL     1      -4.096  -7.213  -0.016  0.00  0.00    +0.173 C 
BRANCH  19  20
ATOM     20  C   UNL     1      -4.757  -8.567  -0.021  0.00  0.00    +0.224 C 
ATOM     21  O   UNL     1      -5.967  -8.651  -0.016  0.00  0.00    -0.275 OA
ATOM     22  N   UNL     1      -4.004  -9.684  -0.030  0.00  0.00    -0.311 N 
ATOM     23  H   UNL     1      -2.906  -9.608  -0.035  0.00  0.00    +0.149 HD
BRANCH  22  24
ATOM     24  C   UNL     1      -4.646 -11.001  -0.035  0.00  0.00    +0.079 C 
ATOM     25  C   UNL     1      -4.976 -11.412   1.401  0.00  0.00    +0.010 C 
ATOM     26  C   UNL     1      -5.647 -12.787   1.397  0.00  0.00    +0.009 C 
ATOM     27  C   UNL     1      -4.699 -13.816   0.777  0.00  0.00    -0.010 C 
ATOM     28  C   UNL     1      -3.410 -13.880   1.598  0.00  0.00    +0.007 C 
ATOM     29  C   UNL     1      -2.739 -12.505   1.603  0.00  0.00    -0.010 C 
ATOM     30  C   UNL     1      -3.687 -11.477   2.223  0.00  0.00    +0.009 C 
ATOM     31  C   UNL     1      -2.408 -12.094   0.167  0.00  0.00    +0.009 C 
ATOM     32  C   UNL     1      -3.698 -12.029  -0.654  0.00  0.00    +0.010 C 
ATOM     33  C   UNL     1      -4.369 -13.404  -0.659  0.00  0.00    +0.009 C 
ENDBRANCH  22  24
ENDBRANCH  19  20
ENDBRANCH  18  19
ENDBRANCH   4  18
TORSDOF 6
