REMARK  Name = ZINC43667865
REMARK  4 active torsions:
REMARK  status: ('A' for Active; 'I' for Inactive)
REMARK    1  A    between atoms: C_1  and  C_2
REMARK    2  A    between atoms: C_4  and  N_20
REMARK    3  A    between atoms: N_5  and  C_7
REMARK    4  A    between atoms: C_7  and  C_8
REMARK                            x       y       z     vdW  Elec       q    Type
REMARK                         _______ _______ _______ _____ _____    ______ ____
ROOT
ATOM      1  C   UNL     1       1.481  -3.677   1.791  0.00  0.00    -0.021 A 
ATOM      2  C   UNL     1       2.141  -4.558   0.953  0.00  0.00    +0.055 A 
ATOM      3  C   UNL     1       3.453  -4.910   1.222  0.00  0.00    +0.163 A 
ATOM      4  C   UNL     1       4.101  -4.380   2.329  0.00  0.00    +0.176 A 
ATOM      5  C   UNL     1       3.438  -3.498   3.166  0.00  0.00    +0.063 A 
ATOM      6  C   UNL     1       2.128  -3.144   2.890  0.00  0.00    +0.024 A 
ATOM      7 BR   UNL     1       4.319  -2.776   4.675  0.00  0.00    -0.046 Br
ATOM      8  O   UNL     1       5.395  -4.733   2.585  0.00  0.00    -0.487 OA
ATOM      9  C   UNL     1       5.605  -6.090   2.980  0.00  0.00    +0.232 C 
ATOM     10  C   UNL     1       5.717  -6.995   1.763  0.00  0.00    +0.082 C 
ATOM     11  C   UNL     1       4.424  -7.054   0.966  0.00  0.00    +0.232 C 
ATOM     12  O   UNL     1       4.115  -5.777   0.404  0.00  0.00    -0.488 OA
ENDROOT
BRANCH   1  13
ATOM     13  C   UNL     1       0.053  -3.291   1.500  0.00  0.00    +0.180 C 
BRANCH  13  18
ATOM     14  C   UNL     1      -0.018   1.503   0.010  0.00  0.00    +0.069 C 
ATOM     15  C   UNL     1       0.002  -0.004   0.002  0.00  0.00    +0.080 A 
ATOM     16  C   UNL     1       0.008  -0.815  -1.136  0.00  0.00    +0.103 A 
ATOM     17  C   UNL     1       0.027  -2.113  -0.724  0.00  0.00    +0.134 A 
ATOM     18  N   UNL     1       0.034  -2.109   0.634  0.00  0.00    -0.245 N 
ATOM     19  N   UNL     1       0.023  -0.775   1.059  0.00  0.00    -0.173 NA
ATOM     20 CL   UNL     1      -0.008  -0.266  -2.783  0.00  0.00    -0.078 Cl
BRANCH  17  21
ATOM     21  N   UNL     1       0.039  -3.238  -1.545  0.00  0.00    -0.342 N 
ATOM     22  H   UNL     1       0.033  -3.135  -2.510  0.00  0.00    +0.144 HD
ATOM     23  H   UNL     1       0.052  -4.125  -1.153  0.00  0.00    +0.144 HD
ENDBRANCH  17  21
ENDBRANCH  13  18
ENDBRANCH   1  13
TORSDOF 3
