REMARK  Name = ZINC40798981
REMARK  6 active torsions:
REMARK  status: ('A' for Active; 'I' for Inactive)
REMARK    1  A    between atoms: C_4  and  C_7
REMARK    2  A    between atoms: C_7  and  N_8
REMARK    3  A    between atoms: C_16  and  N_32
REMARK    4  A    between atoms: C_17  and  N_21
REMARK    5  A    between atoms: N_21  and  C_22
REMARK    6  A    between atoms: C_25  and  C_28
REMARK                            x       y       z     vdW  Elec       q    Type
REMARK                         _______ _______ _______ _____ _____    ______ ____
ROOT
ATOM      1  N   UNL     1       3.030  -0.514   2.295  0.00  0.00    -0.264 N 
ATOM      2  C   UNL     1       1.767  -0.599   2.874  0.00  0.00    +0.127 A 
ATOM      3  C   UNL     1       0.834  -1.497   2.365  0.00  0.00    +0.044 A 
ATOM      4  C   UNL     1      -0.417  -1.571   2.951  0.00  0.00    +0.005 A 
ATOM      5  C   UNL     1      -0.693  -0.742   4.030  0.00  0.00    +0.020 A 
ATOM      6  C   UNL     1       0.280   0.126   4.483  0.00  0.00    +0.113 A 
ATOM      7  N   UNL     1       1.467   0.171   3.909  0.00  0.00    -0.240 NA
ATOM      8  C   UNL     1       4.023   0.247   2.901  0.00  0.00    +0.153 A 
ATOM      9  C   UNL     1       4.939  -0.346   3.772  0.00  0.00    +0.104 A 
ATOM     10  C   UNL     1       5.916   0.464   4.353  0.00  0.00    +0.126 A 
ATOM     11  N   UNL     1       5.938   1.762   4.057  0.00  0.00    -0.333 N 
ATOM     12  C   UNL     1       5.055   2.282   3.229  0.00  0.00    +0.200 A 
ATOM     13  N   UNL     1       4.120   1.551   2.655  0.00  0.00    -0.220 NA
ATOM     14  H   UNL     1       6.613   2.332   4.456  0.00  0.00    +0.168 HD
ENDROOT
BRANCH   9  15
ATOM     15  N   UNL     1       4.878  -1.719   4.057  0.00  0.00    -0.353 N 
ATOM     16  H   UNL     1       4.249  -2.285   3.583  0.00  0.00    +0.143 HD
ATOM     17  H   UNL     1       5.465  -2.102   4.728  0.00  0.00    +0.143 HD
ENDBRANCH   9  15
BRANCH  10  18
ATOM     18  N   UNL     1       6.852  -0.076   5.229  0.00  0.00    -0.299 N 
ATOM     19  H   UNL     1       6.887  -1.035   5.370  0.00  0.00    +0.154 HD
BRANCH  18  20
ATOM     20  C   UNL     1       7.743   0.763   5.904  0.00  0.00    +0.032 A 
ATOM     21  C   UNL     1       7.300   1.973   6.425  0.00  0.00    +0.024 A 
ATOM     22  C   UNL     1       8.183   2.799   7.092  0.00  0.00    +0.014 A 
ATOM     23  C   UNL     1       9.505   2.425   7.242  0.00  0.00    +0.055 A 
ATOM     24  C   UNL     1       9.949   1.222   6.723  0.00  0.00    +0.014 A 
ATOM     25  C   UNL     1       9.071   0.387   6.061  0.00  0.00    +0.024 A 
BRANCH  23  26
ATOM     26  C   UNL     1      10.465   3.330   7.970  0.00  0.00    +0.417 C 
ATOM     27  F   UNL     1      10.465   3.010   9.332  0.00  0.00    -0.166 F 
ATOM     28  F   UNL     1      11.753   3.157   7.452  0.00  0.00    -0.166 F 
ATOM     29  F   UNL     1      10.070   4.661   7.803  0.00  0.00    -0.166 F 
ENDBRANCH  23  26
ENDBRANCH  18  20
ENDBRANCH  10  18
BRANCH   1  30
ATOM     30  C   UNL     1       3.312  -1.227   1.047  0.00  0.00    +0.149 C 
BRANCH  30  34
ATOM     31  C   UNL     1       2.403   1.300  -2.275  0.00  0.00    +0.000 A 
ATOM     32  C   UNL     1       3.671   1.312  -1.724  0.00  0.00    +0.000 A 
ATOM     33  C   UNL     1       3.965   0.495  -0.649  0.00  0.00    +0.005 A 
ATOM     34  C   UNL     1       2.991  -0.335  -0.125  0.00  0.00    -0.030 A 
ATOM     35  C   UNL     1       1.724  -0.347  -0.676  0.00  0.00    +0.005 A 
ATOM     36  C   UNL     1       1.430   0.470  -1.752  0.00  0.00    +0.000 A 
ENDBRANCH  30  34
ENDBRANCH   1  30
TORSDOF 6
