REMARK  Name = ZINC12473351
REMARK  10 active torsions:
REMARK  status: ('A' for Active; 'I' for Inactive)
REMARK    1  A    between atoms: C_3  and  C_6
REMARK    2  A    between atoms: C_6  and  N_7
REMARK    3  A    between atoms: N_7  and  C_8
REMARK    4  A    between atoms: C_8  and  C_10
REMARK    5  A    between atoms: C_8  and  C_17
REMARK    6  A    between atoms: N_19  and  C_20
REMARK    7  A    between atoms: C_20  and  C_21
REMARK    8  A    between atoms: C_27  and  C_29
REMARK    9  A    between atoms: C_30  and  N_37
REMARK   10  A    between atoms: C_31  and  C_34
REMARK                            x       y       z     vdW  Elec       q    Type
REMARK                         _______ _______ _______ _____ _____    ______ ____
ROOT
ATOM      1  N   UNL     1       3.958   0.751   1.531  0.00  0.00    -0.274 N 
ATOM      2  C   UNL     1       4.703   1.789   1.960  0.00  0.00    +0.258 C 
ATOM      3  O   UNL     1       5.399   1.669   2.952  0.00  0.00    -0.269 OA
ENDROOT
BRANCH   2   4
ATOM      4  C   UNL     1       4.675   3.060   1.234  0.00  0.00    +0.115 A 
ATOM      5  C   UNL     1       5.425   4.217   1.448  0.00  0.00    +0.076 A 
ATOM      6  C   UNL     1       5.129   5.244   0.554  0.00  0.00    +0.155 A 
ATOM      7  N   UNL     1       4.215   5.052  -0.374  0.00  0.00    -0.203 NA
ATOM      8  S   UNL     1       3.680   3.540  -0.164  0.00  0.00    +0.019 S 
BRANCH   6   9
ATOM      9  C   UNL     1       5.835   6.535   0.645  0.00  0.00    +0.262 C 
ATOM     10  O   UNL     1       6.764   6.667   1.418  0.00  0.00    -0.269 OA
ATOM     11  N   UNL     1       5.450   7.569  -0.128  0.00  0.00    -0.324 N 
ATOM     12  H   UNL     1       4.709   7.464  -0.745  0.00  0.00    +0.145 HD
ATOM     13  H   UNL     1       5.914   8.419  -0.068  0.00  0.00    +0.145 HD
ENDBRANCH   6   9
BRANCH   5  14
ATOM     14  N   UNL     1       6.373   4.334   2.455  0.00  0.00    -0.355 N 
ATOM     15  H   UNL     1       6.627   3.556   2.976  0.00  0.00    +0.142 HD
ATOM     16  H   UNL     1       6.782   5.195   2.639  0.00  0.00    +0.142 HD
ENDBRANCH   5  14
ENDBRANCH   2   4
BRANCH   1  17
ATOM     17  C   UNL     1       2.976   0.947   0.462  0.00  0.00    +0.183 C 
BRANCH  17  20
ATOM     18  C   UNL     1       0.331   3.047   1.937  0.00  0.00    +0.041 A 
ATOM     19  C   UNL     1       1.666   2.851   1.517  0.00  0.00    +0.046 A 
ATOM     20  C   UNL     1       1.741   1.600   1.028  0.00  0.00    +0.122 A 
ATOM     21  O   UNL     1       0.528   1.031   1.129  0.00  0.00    -0.466 OA
ATOM     22  C   UNL     1      -0.331   1.904   1.680  0.00  0.00    +0.195 A 
ENDBRANCH  17  20
ENDBRANCH   1  17
BRANCH   1  23
ATOM     23  C   UNL     1       4.131  -0.574   2.133  0.00  0.00    +0.193 C 
BRANCH  23  24
ATOM     24  C   UNL     1       5.197  -1.331   1.384  0.00  0.00    -0.018 A 
ATOM     25  C   UNL     1       5.270  -1.239   0.006  0.00  0.00    +0.009 A 
ATOM     26  C   UNL     1       6.248  -1.933  -0.682  0.00  0.00    +0.038 A 
ATOM     27  C   UNL     1       7.154  -2.720   0.009  0.00  0.00    +0.123 A 
ATOM     28  C   UNL     1       7.079  -2.811   1.389  0.00  0.00    +0.038 A 
ATOM     29  C   UNL     1       6.104  -2.112   2.075  0.00  0.00    +0.009 A 
ATOM     30  F   UNL     1       8.109  -3.398  -0.662  0.00  0.00    -0.205 F 
ENDBRANCH  23  24
BRANCH  23  31
ATOM     31  C   UNL     1       2.830  -1.332   2.060  0.00  0.00    +0.238 C 
ATOM     32  O   UNL     1       1.884  -0.857   1.470  0.00  0.00    -0.273 OA
ATOM     33  N   UNL     1       2.720  -2.538   2.651  0.00  0.00    -0.311 N 
ATOM     34  H   UNL     1       3.477  -2.918   3.123  0.00  0.00    +0.149 HD
BRANCH  33  35
ATOM     35  C   UNL     1       1.456  -3.276   2.580  0.00  0.00    +0.135 C 
BRANCH  35  36
ATOM     36  C   UNL     1       1.598  -4.604   3.325  0.00  0.00    +0.135 C 
ATOM     37  C   UNL     1       0.312  -5.441   3.154  0.00  0.00    +0.035 C 
ATOM     38  C   UNL     1       0.140  -6.073   4.562  0.00  0.00    +0.031 C 
ATOM     39  C   UNL     1       0.682  -4.935   5.464  0.00  0.00    +0.160 C 
ATOM     40  O   UNL     1       1.774  -4.359   4.726  0.00  0.00    -0.375 OA
ENDBRANCH  35  36
ENDBRANCH  33  35
ENDBRANCH  23  31
ENDBRANCH   1  23
TORSDOF 10
