REMARK  Name = ZINC39668882
REMARK  4 active torsions:
REMARK  status: ('A' for Active; 'I' for Inactive)
REMARK    1  A    between atoms: C_10  and  C_12
REMARK    2  A    between atoms: C_12  and  N_13
REMARK    3  A    between atoms: C_14  and  C_16
REMARK    4  A    between atoms: C_27  and  C_29
REMARK                            x       y       z     vdW  Elec       q    Type
REMARK                         _______ _______ _______ _____ _____    ______ ____
ROOT
ATOM      1  C   UNL     1       8.383  -0.793   1.494  0.00  0.00    +0.100 C 
ATOM      2  C   UNL     1       8.915  -0.669   0.049  0.00  0.00    +0.121 C 
ATOM      3  N   UNL     1       9.748   0.557   0.060  0.00  0.00    -0.296 N 
ATOM      4  C   UNL     1      10.450   0.513   1.365  0.00  0.00    +0.115 C 
ATOM      5  C   UNL     1       9.396  -0.020   2.355  0.00  0.00    -0.004 C 
ATOM      6  C   UNL     1      10.049  -0.953   3.370  0.00  0.00    -0.010 C 
ATOM      7  C   UNL     1      11.008  -0.149   4.253  0.00  0.00    -0.082 C 
ATOM      8  N   UNL     1      10.267   0.914   4.942  0.00  0.00    +0.379 N 
ATOM      9  C   UNL     1       9.720   1.860   3.961  0.00  0.00    -0.082 C 
ATOM     10  C   UNL     1       8.707   1.141   3.066  0.00  0.00    -0.010 C 
ATOM     11  C   UNL     1       9.844   1.499  -0.899  0.00  0.00    +0.249 C 
ATOM     12  O   UNL     1      10.578   2.455  -0.740  0.00  0.00    -0.270 OA
ATOM     13  H   UNL     1       9.511   0.507   5.472  0.00  0.00    -0.086 HD
ATOM     14  H   UNL     1      10.888   1.403   5.569  0.00  0.00    -0.086 HD
ENDROOT
BRANCH  11  15
ATOM     15  C   UNL     1       9.059   1.370  -2.143  0.00  0.00    +0.073 A 
ATOM     16  C   UNL     1       7.779   1.926  -2.226  0.00  0.00    +0.054 A 
ATOM     17  C   UNL     1       7.051   1.801  -3.393  0.00  0.00    +0.021 A 
ATOM     18  C   UNL     1       7.585   1.128  -4.477  0.00  0.00    +0.003 A 
ATOM     19  C   UNL     1       8.850   0.574  -4.402  0.00  0.00    +0.021 A 
ATOM     20  C   UNL     1       9.593   0.696  -3.244  0.00  0.00    +0.054 A 
ATOM     21 CL   UNL     1      11.184   0.007  -3.155  0.00  0.00    -0.083 Cl
ATOM     22 CL   UNL     1       7.107   2.771  -0.867  0.00  0.00    -0.083 Cl
ENDBRANCH  11  15
BRANCH   1  24
ATOM     23  N   UNL     1       6.166  -0.580   2.568  0.00  0.00    -0.312 N 
ATOM     24  C   UNL     1       7.016  -0.171   1.606  0.00  0.00    +0.218 C 
ATOM     25  O   UNL     1       6.680   0.698   0.829  0.00  0.00    -0.275 OA
ATOM     26  H   UNL     1       6.434  -1.274   3.189  0.00  0.00    +0.149 HD
BRANCH  23  27
ATOM     27  C   UNL     1       4.836   0.026   2.677  0.00  0.00    +0.140 C 
BRANCH  27  37
ATOM     28  C   UNL     1       0.075   0.886   3.864  0.00  0.00    +0.000 A 
ATOM     29  C   UNL     1       0.678   0.515   2.677  0.00  0.00    +0.000 A 
ATOM     30  C   UNL     1       1.972   0.034   2.684  0.00  0.00    +0.006 A 
ATOM     31  C   UNL     1       2.671  -0.077   3.876  0.00  0.00    -0.014 A 
ATOM     32  C   UNL     1       2.070   0.297   5.059  0.00  0.00    -0.040 A 
ATOM     33  C   UNL     1       0.770   0.777   5.052  0.00  0.00    +0.004 A 
ATOM     34  C   UNL     1       2.801   0.202   6.374  0.00  0.00    +0.063 C 
ATOM     35  C   UNL     1       4.016  -0.715   6.226  0.00  0.00    +0.165 C 
ATOM     36  O   UNL     1       4.751  -0.311   5.065  0.00  0.00    -0.370 OA
ATOM     37  C   UNL     1       4.079  -0.613   3.843  0.00  0.00    +0.165 C 
ENDBRANCH  27  37
ENDBRANCH  23  27
ENDBRANCH   1  24
TORSDOF 4
