REMARK  Name = ZINC09013453
REMARK  6 active torsions:
REMARK  status: ('A' for Active; 'I' for Inactive)
REMARK    1  A    between atoms: C_1  and  C_2
REMARK    2  A    between atoms: C_2  and  N_52
REMARK    3  A    between atoms: C_15  and  C_17
REMARK    4  A    between atoms: C_18  and  O_32
REMARK    5  A    between atoms: C_20  and  O_31
REMARK    6  A    between atoms: N_21  and  C_24
REMARK                            x       y       z     vdW  Elec       q    Type
REMARK                         _______ _______ _______ _____ _____    ______ ____
ROOT
ATOM      1  C   UNL     1       3.524   2.754  -0.497  0.00  0.00    +0.071 A 
ATOM      2  C   UNL     1       3.493   1.468   0.013  0.00  0.00    +0.224 A 
ATOM      3  N   UNL     1       2.350   0.973   0.499  0.00  0.00    -0.161 NA
ATOM      4  C   UNL     1       1.244   1.682   0.495  0.00  0.00    +0.306 A 
ATOM      5  N   UNL     1       1.219   2.951   0.006  0.00  0.00    -0.231 N 
ATOM      6  C   UNL     1       2.343   3.507  -0.493  0.00  0.00    +0.267 A 
ATOM      7  O   UNL     1       2.330   4.645  -0.934  0.00  0.00    -0.267 OA
ENDROOT
BRANCH   1  20
ATOM      8  C   UNL     1       5.734   4.579  -2.912  0.00  0.00    -0.073 C 
ATOM      9  C   UNL     1       5.816   5.926  -2.181  0.00  0.00    +0.019 C 
ATOM     10  C   UNL     1       5.694   5.662  -0.702  0.00  0.00    -0.022 A 
ATOM     11  C   UNL     1       6.013   6.527   0.413  0.00  0.00    +0.003 A 
ATOM     12  C   UNL     1       6.511   7.831   0.493  0.00  0.00    +0.010 A 
ATOM     13  C   UNL     1       6.698   8.349   1.751  0.00  0.00    +0.001 A 
ATOM     14  C   UNL     1       6.410   7.624   2.895  0.00  0.00    +0.002 A 
ATOM     15  C   UNL     1       5.915   6.332   2.846  0.00  0.00    +0.026 A 
ATOM     16  C   UNL     1       5.715   5.780   1.583  0.00  0.00    +0.047 A 
ATOM     17  N   UNL     1       5.251   4.560   1.180  0.00  0.00    -0.359 N 
ATOM     18  H   UNL     1       4.971   3.846   1.774  0.00  0.00    +0.166 HD
ATOM     19  C   UNL     1       5.240   4.497  -0.187  0.00  0.00    +0.011 A 
ATOM     20  C   UNL     1       4.803   3.333  -1.044  0.00  0.00    +0.021 C 
ATOM     21  N   UNL     1       4.552   3.841  -2.415  0.00  0.00    +0.388 N 
ATOM     22  H   UNL     1       3.748   4.479  -2.391  0.00  0.00    -0.080 HD
BRANCH  21  24
ATOM     23  C   UNL     1       3.776   3.278  -4.663  0.00  0.00    -0.017 C 
ATOM     24  C   UNL     1       4.244   2.715  -3.320  0.00  0.00    -0.081 C 
ENDBRANCH  21  24
ENDBRANCH   1  20
BRANCH   5  25
ATOM     25  C   UNL     1       0.023   3.684   0.022  0.00  0.00    +0.054 A 
ATOM     26  C   UNL     1      -0.296   4.470   1.121  0.00  0.00    +0.029 A 
ATOM     27  C   UNL     1      -1.471   5.195   1.131  0.00  0.00    +0.040 A 
ATOM     28  C   UNL     1      -2.336   5.130   0.052  0.00  0.00    +0.124 A 
ATOM     29  C   UNL     1      -2.022   4.341  -1.043  0.00  0.00    +0.040 A 
ATOM     30  C   UNL     1      -0.845   3.619  -1.060  0.00  0.00    +0.029 A 
ATOM     31  F   UNL     1      -3.488   5.836   0.066  0.00  0.00    -0.205 F 
ENDBRANCH   5  25
BRANCH   4  32
ATOM     32  O   UNL     1       0.111   1.142   0.990  0.00  0.00    -0.479 OA
ATOM     33  H   UNL     1       0.167   0.238   1.328  0.00  0.00    +0.295 HD
ENDBRANCH   4  32
BRANCH   2  34
ATOM     34  O   UNL     1       4.618   0.715   0.023  0.00  0.00    -0.492 OA
ATOM     35  H   UNL     1       4.497  -0.168   0.398  0.00  0.00    +0.294 HD
ENDBRANCH   2  34
TORSDOF 5
