REMARK  Name = ZINC22516067
REMARK  14 active torsions:
REMARK  status: ('A' for Active; 'I' for Inactive)
REMARK    1  A    between atoms: C_1  and  C_2
REMARK    2  A    between atoms: C_2  and  C_3
REMARK    3  A    between atoms: C_3  and  C_5
REMARK    4  A    between atoms: C_3  and  N_12
REMARK    5  A    between atoms: C_8  and  C_11
REMARK    6  A    between atoms: C_13  and  C_15
REMARK    7  A    between atoms: C_15  and  N_16
REMARK    8  A    between atoms: N_16  and  C_17
REMARK    9  A    between atoms: N_16  and  S_24
REMARK   10  A    between atoms: S_24  and  C_27
REMARK   11  A    between atoms: C_30  and  O_35
REMARK   12  A    between atoms: C_31  and  O_33
REMARK   13  A    between atoms: O_33  and  C_34
REMARK   14  A    between atoms: O_35  and  C_36
REMARK                            x       y       z     vdW  Elec       q    Type
REMARK                         _______ _______ _______ _____ _____    ______ ____
ROOT
ATOM      1  N   UNL     1      -2.535   5.837  -0.067  0.00  0.00    -0.194 N 
ENDROOT
BRANCH   1   2
ATOM      2  C   UNL     1      -3.808   5.910   0.505  0.00  0.00    +0.052 A 
ATOM      3  C   UNL     1      -4.931   6.015  -0.306  0.00  0.00    +0.026 A 
ATOM      4  C   UNL     1      -6.188   6.080   0.263  0.00  0.00    +0.022 A 
ATOM      5  C   UNL     1      -6.329   6.052   1.639  0.00  0.00    +0.041 A 
ATOM      6  C   UNL     1      -5.212   5.952   2.450  0.00  0.00    +0.022 A 
ATOM      7  C   UNL     1      -3.952   5.881   1.887  0.00  0.00    +0.026 A 
ATOM      8 CL   UNL     1      -7.910   6.141   2.350  0.00  0.00    -0.084 Cl
ENDBRANCH   1   2
BRANCH   1   9
ATOM      9  S   UNL     1      -2.261   6.494  -1.562  0.00  0.00    +0.075 S 
ATOM     10  O   UNL     1      -3.180   7.568  -1.709  0.00  0.00    -0.150 OA
ATOM     11  O   UNL     1      -0.856   6.672  -1.677  0.00  0.00    -0.150 OA
BRANCH   9  12
ATOM     12  C   UNL     1      -2.713   5.279  -2.756  0.00  0.00    +0.112 A 
ATOM     13  C   UNL     1      -1.808   4.299  -3.119  0.00  0.00    +0.032 A 
ATOM     14  C   UNL     1      -2.159   3.340  -4.051  0.00  0.00    +0.051 A 
ATOM     15  C   UNL     1      -3.418   3.365  -4.630  0.00  0.00    +0.162 A 
ATOM     16  C   UNL     1      -4.327   4.355  -4.268  0.00  0.00    +0.163 A 
ATOM     17  C   UNL     1      -3.970   5.310  -3.330  0.00  0.00    +0.078 A 
BRANCH  16  18
ATOM     18  O   UNL     1      -5.564   4.384  -4.834  0.00  0.00    -0.491 OA
ATOM     19  C   UNL     1      -6.445   5.427  -4.414  0.00  0.00    +0.277 C 
ENDBRANCH  16  18
BRANCH  15  20
ATOM     20  O   UNL     1      -3.763   2.426  -5.551  0.00  0.00    -0.491 OA
ATOM     21  C   UNL     1      -2.779   1.442  -5.874  0.00  0.00    +0.277 C 
ENDBRANCH  15  20
ENDBRANCH   9  12
ENDBRANCH   1   9
BRANCH   1  22
ATOM     22  C   UNL     1      -1.443   5.181   0.656  0.00  0.00    +0.227 C 
BRANCH  22  24
ATOM     23  N   UNL     1      -0.572   2.886   0.959  0.00  0.00    -0.307 N 
ATOM     24  C   UNL     1      -1.487   3.698   0.394  0.00  0.00    +0.233 C 
ATOM     25  O   UNL     1      -2.346   3.234  -0.326  0.00  0.00    -0.274 OA
ATOM     26  H   UNL     1       0.207   3.306   1.612  0.00  0.00    +0.149 HD
BRANCH  23  27
ATOM     27  C   UNL     1      -0.614   1.444   0.704  0.00  0.00    +0.103 C 
BRANCH  27  28
ATOM     28  C   UNL     1       0.044   0.712   1.846  0.00  0.00    -0.027 A 
ATOM     29  C   UNL     1       1.196   1.218   2.418  0.00  0.00    +0.006 A 
ATOM     30  C   UNL     1       1.796   0.549   3.469  0.00  0.00    +0.004 A 
ATOM     31  C   UNL     1       1.251  -0.630   3.939  0.00  0.00    -0.050 A 
ATOM     32  C   UNL     1       0.102  -1.139   3.364  0.00  0.00    +0.004 A 
ATOM     33  C   UNL     1      -0.502  -0.467   2.317  0.00  0.00    +0.006 A 
ATOM     34  C   UNL     1       1.909  -1.362   5.080  0.00  0.00    +0.044 C 
ENDBRANCH  27  28
BRANCH  27  36
ATOM     35  C   UNL     1      -0.610   1.775  -1.772  0.00  0.00    +0.006 C 
ATOM     36  C   UNL     1       0.129   1.134  -0.596  0.00  0.00    +0.024 C 
ENDBRANCH  27  36
ENDBRANCH  23  27
ENDBRANCH  22  24
ENDBRANCH   1  22
TORSDOF 10
