REMARK  Name = ZINC59229169
REMARK  8 active torsions:
REMARK  status: ('A' for Active; 'I' for Inactive)
REMARK    1  A    between atoms: C_1  and  O_2
REMARK    2  A    between atoms: O_2  and  C_3
REMARK    3  A    between atoms: C_6  and  C_11
REMARK    4  A    between atoms: C_8  and  O_9
REMARK    5  A    between atoms: O_9  and  C_10
REMARK    6  A    between atoms: N_15  and  C_25
REMARK    7  A    between atoms: C_16  and  C_18
REMARK    8  A    between atoms: C_28  and  C_31
REMARK                            x       y       z     vdW  Elec       q    Type
REMARK                         _______ _______ _______ _____ _____    ______ ____
ROOT
ATOM      1  C   UNL     1       1.745  -2.044   4.842  0.00  0.00    +0.041 C 
ATOM      2  C   UNL     1       2.863  -1.555   5.485  0.00  0.00    +0.129 C 
ATOM      3  C   UNL     1       3.834  -2.325   6.282  0.00  0.00    +0.275 C 
ATOM      4  O   UNL     1       3.818  -3.521   6.510  0.00  0.00    -0.268 OA
ATOM      5  N   UNL     1       4.747  -1.424   6.707  0.00  0.00    -0.219 N 
ATOM      6  C   UNL     1       4.388  -0.186   6.221  0.00  0.00    +0.140 C 
ATOM      7  N   UNL     1       3.297  -0.264   5.506  0.00  0.00    -0.226 NA
ENDROOT
BRANCH   6   8
ATOM      8  C   UNL     1       5.139   1.061   6.470  0.00  0.00    +0.016 A 
ATOM      9  C   UNL     1       6.351   1.024   7.164  0.00  0.00    +0.012 A 
ATOM     10  C   UNL     1       7.047   2.192   7.393  0.00  0.00    +0.016 A 
ATOM     11  C   UNL     1       6.548   3.400   6.937  0.00  0.00    +0.018 A 
ATOM     12  C   UNL     1       5.347   3.444   6.248  0.00  0.00    +0.016 A 
ATOM     13  C   UNL     1       4.644   2.282   6.006  0.00  0.00    +0.012 A 
ATOM     14 BR   UNL     1       7.509   4.997   7.256  0.00  0.00    -0.050 Br
ENDBRANCH   6   8
BRANCH   1  18
ATOM     15  C   UNL     1      -0.537   0.505   2.337  0.00  0.00    +0.162 A 
ATOM     16  C   UNL     1       0.525   1.021   3.069  0.00  0.00    +0.050 A 
ATOM     17  C   UNL     1       1.269   0.199   3.884  0.00  0.00    +0.012 A 
ATOM     18  C   UNL     1       0.956  -1.165   3.976  0.00  0.00    -0.019 A 
ATOM     19  C   UNL     1      -0.117  -1.684   3.237  0.00  0.00    +0.057 A 
ATOM     20  C   UNL     1      -0.860  -0.849   2.427  0.00  0.00    +0.162 A 
BRANCH  15  22
ATOM     21  C   UNL     1      -0.882   2.698   1.490  0.00  0.00    +0.277 C 
ATOM     22  O   UNL     1      -1.267   1.323   1.535  0.00  0.00    -0.491 OA
ENDBRANCH  15  22
BRANCH  20  23
ATOM     23  O   UNL     1      -1.903  -1.348   1.712  0.00  0.00    -0.491 OA
ATOM     24  C   UNL     1      -2.178  -2.744   1.852  0.00  0.00    +0.277 C 
ENDBRANCH  20  23
ENDBRANCH   1  18
BRANCH   5  25
ATOM     25  C   UNL     1       5.862  -1.700   7.501  0.00  0.00    +0.043 A 
ATOM     26  C   UNL     1       5.790  -1.532   8.880  0.00  0.00    +0.025 A 
ATOM     27  C   UNL     1       6.886  -1.804   9.667  0.00  0.00    +0.017 A 
ATOM     28  C   UNL     1       8.074  -2.248   9.077  0.00  0.00    +0.063 A 
ATOM     29  C   UNL     1       8.143  -2.416   7.690  0.00  0.00    +0.017 A 
ATOM     30  C   UNL     1       7.040  -2.147   6.911  0.00  0.00    +0.025 A 
BRANCH  28  31
ATOM     31  C   UNL     1       9.250  -2.540   9.915  0.00  0.00    +0.387 C 
ATOM     32  O   UNL     1       9.189  -2.392  11.128  0.00  0.00    -0.241 OA
ATOM     33  O   UNL     1      10.288  -2.929   9.398  0.00  0.00    -0.241 OA
ENDBRANCH  28  31
ENDBRANCH   5  25
TORSDOF 6
