REMARK  Name = ZINC12889998
REMARK  11 active torsions:
REMARK  status: ('A' for Active; 'I' for Inactive)
REMARK    1  A    between atoms: C_1  and  C_2
REMARK    2  A    between atoms: C_2  and  O_3
REMARK    3  A    between atoms: O_3  and  C_4
REMARK    4  A    between atoms: C_4  and  C_6
REMARK    5  A    between atoms: C_9  and  N_12
REMARK    6  A    between atoms: C_13  and  C_15
REMARK    7  A    between atoms: C_18  and  C_31
REMARK    8  A    between atoms: C_23  and  C_30
REMARK    9  A    between atoms: C_31  and  C_32
REMARK   10  A    between atoms: C_32  and  C_33
REMARK   11  A    between atoms: C_32  and  C_34
REMARK                            x       y       z     vdW  Elec       q    Type
REMARK                         _______ _______ _______ _____ _____    ______ ____
ROOT
ATOM      1  C   UNL     1       1.569  -3.993  -2.447  0.00  0.00    +0.076 C 
ATOM      2  C   UNL     1       1.425  -2.549  -3.003  0.00  0.00    -0.004 C 
ATOM      3  C   UNL     1       0.605  -1.862  -1.882  0.00  0.00    -0.069 C 
ATOM      4  C   UNL     1       1.690  -3.767  -0.932  0.00  0.00    +0.049 C 
ATOM      5  C   UNL     1       1.000  -4.867  -0.171  0.00  0.00    -0.027 A 
ATOM      6  C   UNL     1      -0.303  -5.310  -0.124  0.00  0.00    +0.008 A 
ATOM      7  C   UNL     1      -0.644  -6.373   0.693  0.00  0.00    -0.050 A 
ATOM      8  C   UNL     1       0.327  -6.988   1.462  0.00  0.00    +0.005 A 
ATOM      9  C   UNL     1       1.633  -6.547   1.419  0.00  0.00    +0.024 A 
ATOM     10  C   UNL     1       1.984  -5.476   0.599  0.00  0.00    +0.036 A 
ATOM     11  N   UNL     1       3.217  -4.856   0.387  0.00  0.00    -0.286 N 
ATOM     12  C   UNL     1       3.130  -3.844  -0.496  0.00  0.00    +0.211 C 
ATOM     13  O   UNL     1       4.037  -3.130  -0.869  0.00  0.00    -0.277 OA
ATOM     14  C   UNL     1      -2.069  -6.860   0.745  0.00  0.00    +0.044 C 
ATOM     15  H   UNL     1       4.040  -5.124   0.824  0.00  0.00    +0.155 HD
ATOM     16  N   UNL     1       1.110  -2.459  -0.630  0.00  0.00    +0.394 N 
ATOM     17  H   UNL     1       0.336  -2.570   0.036  0.00  0.00    -0.083 HD
ATOM     18  H   UNL     1       1.828  -1.849  -0.223  0.00  0.00    -0.083 HD
ENDROOT
BRANCH   1  20
ATOM     19  N   UNL     1       0.445  -6.155  -2.874  0.00  0.00    -0.285 N 
ATOM     20  C   UNL     1       0.347  -4.815  -2.769  0.00  0.00    +0.220 C 
ATOM     21  O   UNL     1      -0.724  -4.270  -2.932  0.00  0.00    -0.275 OA
ATOM     22  H   UNL     1       1.285  -6.597  -2.674  0.00  0.00    +0.155 HD
BRANCH  19  26
ATOM     23  C   UNL     1      -2.859  -8.398  -4.059  0.00  0.00    +0.059 A 
ATOM     24  C   UNL     1      -1.573  -8.785  -4.449  0.00  0.00    +0.017 A 
ATOM     25  C   UNL     1      -0.484  -8.041  -4.056  0.00  0.00    +0.024 A 
ATOM     26  C   UNL     1      -0.661  -6.906  -3.271  0.00  0.00    +0.033 A 
ATOM     27  C   UNL     1      -1.939  -6.521  -2.877  0.00  0.00    +0.024 A 
ATOM     28  C   UNL     1      -3.033  -7.256  -3.271  0.00  0.00    +0.017 A 
BRANCH  23  29
ATOM     29  C   UNL     1      -4.029  -9.192  -4.478  0.00  0.00    +0.339 C 
ATOM     30  O   UNL     1      -3.876 -10.184  -5.163  0.00  0.00    -0.245 OA
BRANCH  29  31
ATOM     31  O   UNL     1      -5.267  -8.818  -4.102  0.00  0.00    -0.461 OA
BRANCH  31  33
ATOM     32  C   UNL     1      -7.688  -9.068  -4.029  0.00  0.00    +0.048 C 
ATOM     33  C   UNL     1      -6.372  -9.647  -4.551  0.00  0.00    +0.229 C 
ENDBRANCH  31  33
ENDBRANCH  29  31
ENDBRANCH  23  29
ENDBRANCH  19  26
ENDBRANCH   1  20
BRANCH   3  34
ATOM     34  C   UNL     1       0.847  -0.352  -1.894  0.00  0.00    -0.013 C 
BRANCH  34  35
ATOM     35  C   UNL     1       0.030   0.305  -0.780  0.00  0.00    -0.019 C 
ATOM     36  C   UNL     1      -1.462   0.151  -1.083  0.00  0.00    +0.007 C 
ATOM     37  C   UNL     1       0.383   1.791  -0.696  0.00  0.00    +0.007 C 
ENDBRANCH  34  35
ENDBRANCH   3  34
TORSDOF 7
