REMARK  Name = ZINC02308420
REMARK  12 active torsions:
REMARK  status: ('A' for Active; 'I' for Inactive)
REMARK    1  A    between atoms: C_1  and  C_2
REMARK    2  A    between atoms: C_2  and  C_3
REMARK    3  A    between atoms: C_2  and  C_4
REMARK    4  A    between atoms: C_10  and  N_14
REMARK    5  A    between atoms: N_14  and  C_15
REMARK    6  A    between atoms: C_15  and  C_16
REMARK    7  A    between atoms: C_16  and  C_17
REMARK    8  A    between atoms: C_17  and  N_60
REMARK    9  A    between atoms: C_18  and  N_60
REMARK   10  A    between atoms: C_19  and  N_60
REMARK   11  A    between atoms: C_24  and  C_27
REMARK   12  A    between atoms: C_24  and  C_28
REMARK                            x       y       z     vdW  Elec       q    Type
REMARK                         _______ _______ _______ _____ _____    ______ ____
ROOT
ATOM      1  C   UNL     1      -0.749   3.086   1.275  0.00  0.00    +0.051 A 
ATOM      2  C   UNL     1      -0.150   3.777   2.321  0.00  0.00    +0.004 A 
ATOM      3  C   UNL     1      -0.159   5.151   2.326  0.00  0.00    -0.026 A 
ATOM      4  C   UNL     1      -0.794   5.844   1.270  0.00  0.00    +0.037 A 
ATOM      5  C   UNL     1      -0.920   7.303   1.096  0.00  0.00    +0.093 A 
ATOM      6  C   UNL     1      -1.605   7.725  -0.050  0.00  0.00    +0.080 A 
ATOM      7  C   UNL     1      -1.784   9.076  -0.317  0.00  0.00    +0.136 A 
ATOM      8  N   UNL     1      -1.287   9.962   0.545  0.00  0.00    -0.220 NA
ATOM      9  C   UNL     1      -0.643   9.547   1.620  0.00  0.00    +0.224 A 
ATOM     10  N   UNL     1      -0.456   8.283   1.904  0.00  0.00    -0.234 NA
ATOM     11  S   UNL     1      -2.070   6.227  -0.872  0.00  0.00    -0.064 S 
ATOM     12  C   UNL     1      -1.377   5.052   0.265  0.00  0.00    +0.111 A 
ATOM     13  N   UNL     1      -1.340   3.737   0.293  0.00  0.00    -0.244 NA
ATOM     14  C   UNL     1       0.488   5.945   3.428  0.00  0.00    +0.070 C 
ATOM     15  C   UNL     1       0.738   5.040   4.637  0.00  0.00    +0.068 C 
ATOM     16  O   UNL     1       1.375   3.841   4.182  0.00  0.00    -0.369 OA
ATOM     17  C   UNL     1       0.510   2.994   3.427  0.00  0.00    +0.197 C 
ATOM     18  C   UNL     1       1.646   5.758   5.637  0.00  0.00    +0.041 C 
ATOM     19  C   UNL     1      -0.595   4.694   5.303  0.00  0.00    +0.041 C 
ENDROOT
BRANCH   1  21
ATOM     20  C   UNL     1      -0.013   1.086   0.008  0.00  0.00    +0.014 C 
ATOM     21  C   UNL     1      -0.729   1.579   1.267  0.00  0.00    +0.032 C 
ATOM     22  C   UNL     1      -2.164   1.050   1.278  0.00  0.00    +0.014 C 
ENDBRANCH   1  21
BRANCH   7  23
ATOM     23  N   UNL     1      -2.464   9.492  -1.452  0.00  0.00    -0.328 N 
ATOM     24  H   UNL     1      -2.821   8.836  -2.071  0.00  0.00    +0.147 HD
BRANCH  23  25
ATOM     25  C   UNL     1      -2.642  10.922  -1.716  0.00  0.00    +0.101 C 
BRANCH  25  26
ATOM     26  C   UNL     1      -3.419  11.106  -3.021  0.00  0.00    +0.000 C 
BRANCH  26  27
ATOM     27  C   UNL     1      -3.606  12.600  -3.296  0.00  0.00    -0.078 C 
BRANCH  27  30
ATOM     28  C   UNL     1      -5.725  12.272  -4.420  0.00  0.00    -0.097 C 
ATOM     29  C   UNL     1      -4.346  14.184  -4.971  0.00  0.00    -0.097 C 
ATOM     30  N   UNL     1      -4.338  12.762  -4.570  0.00  0.00    +0.376 N 
ATOM     31  H   UNL     1      -3.867  12.212  -5.298  0.00  0.00    -0.083 HD
ENDBRANCH  27  30
ENDBRANCH  26  27
ENDBRANCH  25  26
ENDBRANCH  23  25
ENDBRANCH   7  23
TORSDOF 6
