REMARK  Name = ZINC12131712
REMARK  8 active torsions:
REMARK  status: ('A' for Active; 'I' for Inactive)
REMARK    1  A    between atoms: C_1  and  C_2
REMARK    2  A    between atoms: C_6  and  C_19
REMARK    3  A    between atoms: C_7  and  C_16
REMARK    4  A    between atoms: N_8  and  C_9
REMARK    5  A    between atoms: C_9  and  C_10
REMARK    6  A    between atoms: C_16  and  O_17
REMARK    7  A    between atoms: O_17  and  C_18
REMARK    8  A    between atoms: C_26  and  N_77
REMARK                            x       y       z     vdW  Elec       q    Type
REMARK                         _______ _______ _______ _____ _____    ______ ____
ROOT
ATOM      1  C   UNL     1       8.750   5.837   1.190  0.00  0.00    +0.252 C 
ATOM      2  O   UNL     1       8.785   6.971   1.628  0.00  0.00    -0.270 OA
ATOM      3  N   UNL     1       7.707   5.436   0.436  0.00  0.00    -0.301 N 
ATOM      4  C   UNL     1       6.600   6.355   0.131  0.00  0.00    +0.089 C 
ATOM      5  C   UNL     1       5.280   5.661   0.481  0.00  0.00    -0.059 C 
ATOM      6  C   UNL     1       6.285   3.465   0.256  0.00  0.00    -0.059 C 
ATOM      7  C   UNL     1       7.646   4.070  -0.104  0.00  0.00    +0.089 C 
ATOM      8  N   UNL     1       5.220   4.367  -0.234  0.00  0.00    +0.384 N 
ATOM      9  H   UNL     1       5.361   4.534  -1.237  0.00  0.00    -0.081 HD
ENDROOT
BRANCH   8  10
ATOM     10  C   UNL     1       3.897   3.741  -0.033  0.00  0.00    -0.064 C 
ATOM     11  C   UNL     1       2.830   4.596  -0.727  0.00  0.00    -0.010 C 
ATOM     12  C   UNL     1       1.519   3.812  -0.743  0.00  0.00    +0.034 C 
ATOM     13  C   UNL     1       1.186   3.309   0.638  0.00  0.00    -0.044 A 
ATOM     14  C   UNL     1      -0.121   2.909   0.882  0.00  0.00    +0.004 A 
ATOM     15  C   UNL     1      -0.489   2.439   2.126  0.00  0.00    +0.000 A 
ATOM     16  C   UNL     1       0.453   2.354   3.134  0.00  0.00    +0.000 A 
ATOM     17  C   UNL     1       1.752   2.751   2.893  0.00  0.00    +0.004 A 
ATOM     18  C   UNL     1       2.123   3.233   1.644  0.00  0.00    -0.046 A 
ATOM     19  C   UNL     1       3.555   3.658   1.453  0.00  0.00    +0.020 C 
ENDBRANCH   8  10
BRANCH   1  25
ATOM     20  C   UNL     1      12.990   2.155   2.414  0.00  0.00    +0.063 C 
ATOM     21  C   UNL     1      11.902   3.134   2.053  0.00  0.00    +0.020 A 
ATOM     22  C   UNL     1      12.036   3.881   0.938  0.00  0.00    +0.072 A 
ATOM     23  C   UNL     1      11.014   4.799   0.591  0.00  0.00    +0.194 A 
ATOM     24  O   UNL     1      11.099   5.487  -0.413  0.00  0.00    -0.287 OA
ATOM     25  C   UNL     1       9.849   4.900   1.484  0.00  0.00    +0.105 A 
ATOM     26  C   UNL     1       9.809   4.090   2.600  0.00  0.00    +0.061 A 
ATOM     27  N   UNL     1      10.817   3.240   2.859  0.00  0.00    -0.345 N 
BRANCH  27  28
ATOM     28  C   UNL     1      10.740   2.397   4.054  0.00  0.00    +0.125 C 
BRANCH  28  29
ATOM     29  C   UNL     1      10.197   1.018   3.672  0.00  0.00    +0.009 C 
ATOM     30  C   UNL     1       8.748   1.155   3.197  0.00  0.00    +0.005 C 
ATOM     31  C   UNL     1       8.205  -0.223   2.815  0.00  0.00    +0.000 C 
ATOM     32  C   UNL     1       8.258  -1.148   4.033  0.00  0.00    +0.000 C 
ATOM     33  C   UNL     1       9.706  -1.284   4.508  0.00  0.00    +0.000 C 
ATOM     34  C   UNL     1      10.249   0.094   4.890  0.00  0.00    +0.005 C 
ENDBRANCH  28  29
ENDBRANCH  27  28
BRANCH  26  35
ATOM     35  C   UNL     1       8.630   4.161   3.536  0.00  0.00    +0.213 C 
BRANCH  35  36
ATOM     36  O   UNL     1       8.821   5.231   4.464  0.00  0.00    -0.377 OA
ATOM     37  C   UNL     1       7.754   5.386   5.401  0.00  0.00    +0.194 C 
ENDBRANCH  35  36
ENDBRANCH  26  35
ENDBRANCH   1  25
TORSDOF 6
