REMARK  Name = ZINC59890780
REMARK  10 active torsions:
REMARK  status: ('A' for Active; 'I' for Inactive)
REMARK    1  A    between atoms: C_1  and  C_2
REMARK    2  A    between atoms: C_7  and  C_9
REMARK    3  A    between atoms: C_7  and  N_29
REMARK    4  A    between atoms: C_9  and  N_10
REMARK    5  A    between atoms: C_11  and  C_13
REMARK    6  A    between atoms: C_16  and  S_19
REMARK    7  A    between atoms: S_19  and  N_22
REMARK    8  A    between atoms: N_22  and  C_23
REMARK    9  A    between atoms: N_29  and  C_30
REMARK   10  A    between atoms: N_29  and  C_31
REMARK                            x       y       z     vdW  Elec       q    Type
REMARK                         _______ _______ _______ _____ _____    ______ ____
ROOT
ATOM      1  C   UNL     1       5.257  -6.951   3.217  0.00  0.00    +0.037 A 
ATOM      2  C   UNL     1       4.240  -6.809   2.272  0.00  0.00    +0.015 A 
ATOM      3  C   UNL     1       3.353  -7.843   2.056  0.00  0.00    +0.029 A 
ATOM      4  C   UNL     1       3.469  -9.019   2.775  0.00  0.00    +0.109 A 
ATOM      5  C   UNL     1       4.474  -9.167   3.714  0.00  0.00    +0.029 A 
ATOM      6  C   UNL     1       5.372  -8.143   3.935  0.00  0.00    +0.015 A 
ENDROOT
BRANCH   1   8
ATOM      7  N   UNL     1       6.097  -4.698   2.759  0.00  0.00    -0.313 N 
ATOM      8  C   UNL     1       6.211  -5.847   3.453  0.00  0.00    +0.244 C 
ATOM      9  O   UNL     1       7.099  -5.976   4.274  0.00  0.00    -0.270 OA
ATOM     10  H   UNL     1       5.389  -4.595   2.104  0.00  0.00    +0.149 HD
BRANCH   7  11
ATOM     11  C   UNL     1       7.043  -3.604   2.992  0.00  0.00    +0.092 C 
BRANCH  11  17
ATOM     12  C   UNL     1       6.203  -1.865  -1.617  0.00  0.00    +0.007 C 
ATOM     13  C   UNL     1       6.200  -1.511  -0.128  0.00  0.00    -0.015 C 
ATOM     14  C   UNL     1       4.793  -1.081   0.291  0.00  0.00    +0.003 C 
ATOM     15  C   UNL     1       4.790  -0.727   1.779  0.00  0.00    -0.001 C 
ATOM     16  C   UNL     1       5.213  -1.950   2.595  0.00  0.00    -0.010 C 
ATOM     17  C   UNL     1       6.620  -2.381   2.176  0.00  0.00    -0.050 C 
ATOM     18  C   UNL     1       6.623  -2.735   0.688  0.00  0.00    -0.007 C 
BRANCH  17  19
ATOM     19  N   UNL     1       7.562  -1.280   2.420  0.00  0.00    +0.381 N 
ATOM     20  C   UNL     1       7.576  -0.955   3.852  0.00  0.00    -0.096 C 
ATOM     21  C   UNL     1       8.909  -1.686   1.997  0.00  0.00    -0.096 C 
ATOM     22  H   UNL     1       7.275  -0.469   1.893  0.00  0.00    -0.082 HD
ENDBRANCH  17  19
ENDBRANCH  11  17
ENDBRANCH   7  11
ENDBRANCH   1   8
BRANCH   4  23
ATOM     23  S   UNL     1       2.331 -10.335   2.494  0.00  0.00    +0.072 S 
ATOM     24  O   UNL     1       2.376 -11.164   3.647  0.00  0.00    -0.150 OA
ATOM     25  O   UNL     1       1.127  -9.739   2.030  0.00  0.00    -0.150 OA
BRANCH  23  26
ATOM     26  N   UNL     1       2.926 -11.237   1.239  0.00  0.00    -0.216 N 
ATOM     27  H   UNL     1       3.189 -12.159   1.386  0.00  0.00    +0.174 HD
BRANCH  26  28
ATOM     28  C   UNL     1       3.050 -10.670  -0.032  0.00  0.00    +0.048 A 
ATOM     29  C   UNL     1       1.922 -10.465  -0.815  0.00  0.00    +0.024 A 
ATOM     30  C   UNL     1       2.048  -9.904  -2.071  0.00  0.00    +0.002 A 
ATOM     31  C   UNL     1       3.296  -9.547  -2.548  0.00  0.00    +0.000 A 
ATOM     32  C   UNL     1       4.421  -9.750  -1.771  0.00  0.00    +0.002 A 
ATOM     33  C   UNL     1       4.302 -10.305  -0.512  0.00  0.00    +0.024 A 
ENDBRANCH  26  28
ENDBRANCH  23  26
ENDBRANCH   4  23
TORSDOF 7
