REMARK  Name = ZINC01140836
REMARK  12 active torsions:
REMARK  status: ('A' for Active; 'I' for Inactive)
REMARK    1  A    between atoms: C_1  and  C_2
REMARK    2  A    between atoms: C_2  and  C_3
REMARK    3  A    between atoms: C_7  and  C_30
REMARK    4  A    between atoms: C_8  and  N_9
REMARK    5  A    between atoms: C_10  and  C_12
REMARK    6  A    between atoms: C_12  and  S_13
REMARK    7  A    between atoms: S_13  and  C_14
REMARK    8  A    between atoms: C_17  and  C_21
REMARK    9  A    between atoms: N_18  and  C_19
REMARK   10  A    between atoms: C_19  and  C_20
REMARK   11  A    between atoms: C_25  and  N_27
REMARK   12  A    between atoms: C_30  and  C_31
REMARK                            x       y       z     vdW  Elec       q    Type
REMARK                         _______ _______ _______ _____ _____    ______ ____
ROOT
ATOM      1  S   UNL     1      -0.135   0.421   5.947  0.00  0.00    -0.077 S 
ENDROOT
BRANCH   1   2
ATOM      2  C   UNL     1       0.261   1.768   7.011  0.00  0.00    +0.192 A 
ATOM      3  N   UNL     1       0.823   2.903   6.657  0.00  0.00    -0.122 NA
ATOM      4  N   UNL     1       0.968   3.663   7.683  0.00  0.00    -0.128 NA
ATOM      5  C   UNL     1       0.507   3.061   8.755  0.00  0.00    +0.165 A 
ATOM      6  N   UNL     1       0.035   1.832   8.356  0.00  0.00    -0.302 N 
BRANCH   5   7
ATOM      7  C   UNL     1       0.493   3.604  10.130  0.00  0.00    +0.021 A 
ATOM      8  C   UNL     1       0.360   2.745  11.222  0.00  0.00    +0.012 A 
ATOM      9  C   UNL     1       0.348   3.258  12.502  0.00  0.00    +0.003 A 
ATOM     10  C   UNL     1       0.466   4.622  12.705  0.00  0.00    +0.033 A 
ATOM     11  C   UNL     1       0.598   5.479  11.627  0.00  0.00    +0.127 A 
ATOM     12  C   UNL     1       0.617   4.978  10.341  0.00  0.00    +0.044 A 
BRANCH  11  13
ATOM     13  N   UNL     1       0.724   6.936  11.854  0.00  0.00    +0.056 N 
ATOM     14  O   UNL     1       0.712   7.379  12.988  0.00  0.00    -0.126 OA
ATOM     15  O   UNL     1       0.840   7.692  10.906  0.00  0.00    -0.126 OA
ENDBRANCH  11  13
ENDBRANCH   5   7
BRANCH   6  16
ATOM     16  C   UNL     1      -0.579   0.803   9.200  0.00  0.00    +0.122 C 
ATOM     17  C   UNL     1       0.489  -0.198   9.643  0.00  0.00    +0.027 C 
ENDBRANCH   6  16
ENDBRANCH   1   2
BRANCH   1  18
ATOM     18  C   UNL     1       0.448   1.086   4.367  0.00  0.00    +0.173 C 
BRANCH  18  20
ATOM     19  N   UNL     1       0.562   0.355   2.007  0.00  0.00    -0.284 N 
ATOM     20  C   UNL     1       0.205   0.075   3.276  0.00  0.00    +0.228 C 
ATOM     21  O   UNL     1      -0.310  -0.990   3.541  0.00  0.00    -0.275 OA
ATOM     22  H   UNL     1       1.044   1.173   1.808  0.00  0.00    +0.155 HD
BRANCH  19  28
ATOM     23  C   UNL     1      -0.570  -0.117  -0.074  0.00  0.00    -0.026 A 
ATOM     24  C   UNL     1      -0.894  -0.999  -1.086  0.00  0.00    +0.005 A 
ATOM     25  C   UNL     1      -0.408  -2.293  -1.060  0.00  0.00    +0.001 A 
ATOM     26  C   UNL     1       0.396  -2.712  -0.015  0.00  0.00    +0.005 A 
ATOM     27  C   UNL     1       0.719  -1.836   1.003  0.00  0.00    -0.026 A 
ATOM     28  C   UNL     1       0.236  -0.534   0.977  0.00  0.00    +0.040 A 
BRANCH  23  30
ATOM     29  C   UNL     1      -0.050   2.215  -0.738  0.00  0.00    +0.009 C 
ATOM     30  C   UNL     1      -1.096   1.295  -0.106  0.00  0.00    +0.033 C 
ENDBRANCH  23  30
BRANCH  27  31
ATOM     31  C   UNL     1       1.595  -2.293   2.142  0.00  0.00    +0.033 C 
ATOM     32  C   UNL     1       0.829  -3.303   3.000  0.00  0.00    +0.009 C 
ENDBRANCH  27  31
ENDBRANCH  19  28
ENDBRANCH  18  20
ENDBRANCH   1  18
TORSDOF 9
