REMARK  Name = ZINC34939131
REMARK  2 active torsions:
REMARK  status: ('A' for Active; 'I' for Inactive)
REMARK    1  A    between atoms: C_4  and  N_21
REMARK    2  A    between atoms: C_5  and  C_7
REMARK                            x       y       z     vdW  Elec       q    Type
REMARK                         _______ _______ _______ _____ _____    ______ ____
ROOT
ATOM      1  C   UNL     1       1.555  -2.138  -0.060  0.00  0.00    +0.141 A 
ATOM      2  N   UNL     1       0.545  -3.058  -0.170  0.00  0.00    -0.338 N 
ATOM      3  H   UNL     1      -0.403  -2.866  -0.242  0.00  0.00    +0.167 HD
ATOM      4  C   UNL     1       1.131  -4.311  -0.158  0.00  0.00    +0.070 A 
ATOM      5  C   UNL     1       0.635  -5.604  -0.235  0.00  0.00    +0.077 A 
ATOM      6  C   UNL     1       1.501  -6.682  -0.197  0.00  0.00    +0.164 A 
ATOM      7  C   UNL     1       2.876  -6.474  -0.082  0.00  0.00    +0.164 A 
ATOM      8  C   UNL     1       3.382  -5.192  -0.002  0.00  0.00    +0.079 A 
ATOM      9  C   UNL     1       2.515  -4.096  -0.040  0.00  0.00    +0.093 A 
ATOM     10  N   UNL     1       2.710  -2.754   0.011  0.00  0.00    -0.228 NA
ATOM     11  O   UNL     1       3.738  -7.530  -0.051  0.00  0.00    -0.485 OA
ATOM     12  C   UNL     1       3.175  -8.812   0.243  0.00  0.00    +0.270 C 
ATOM     13  C   UNL     1       1.910  -8.989  -0.609  0.00  0.00    +0.270 C 
ATOM     14  O   UNL     1       0.992  -7.943  -0.270  0.00  0.00    -0.485 OA
ENDROOT
BRANCH   1  19
ATOM     15  C   UNL     1      -0.080   1.240   0.041  0.00  0.00    +0.001 A 
ATOM     16  C   UNL     1       1.022   2.079   0.020  0.00  0.00    +0.002 A 
ATOM     17  C   UNL     1       2.298   1.554  -0.026  0.00  0.00    +0.023 A 
ATOM     18  C   UNL     1       2.484   0.179  -0.053  0.00  0.00    +0.035 A 
ATOM     19  C   UNL     1       1.370  -0.673  -0.032  0.00  0.00    +0.038 A 
ATOM     20  C   UNL     1       0.086  -0.128   0.015  0.00  0.00    +0.013 A 
BRANCH  18  21
ATOM     21  N   UNL     1       3.770  -0.353  -0.101  0.00  0.00    -0.357 N 
ATOM     22  H   UNL     1       4.535   0.236  -0.200  0.00  0.00    +0.142 HD
ATOM     23  H   UNL     1       3.901  -1.312  -0.035  0.00  0.00    +0.142 HD
ENDBRANCH  18  21
ENDBRANCH   1  19
TORSDOF 2
