REMARK  Name = ZINC66397000
REMARK  9 active torsions:
REMARK  status: ('A' for Active; 'I' for Inactive)
REMARK    1  A    between atoms: C_1  and  C_2
REMARK    2  A    between atoms: C_11  and  C_14
REMARK    3  A    between atoms: N_16  and  C_17
REMARK    4  A    between atoms: C_17  and  C_19
REMARK    5  A    between atoms: C_17  and  C_21
REMARK    6  A    between atoms: C_24  and  C_27
REMARK    7  A    between atoms: C_27  and  C_28
REMARK    8  A    between atoms: C_27  and  C_29
REMARK    9  A    between atoms: C_27  and  C_30
REMARK                            x       y       z     vdW  Elec       q    Type
REMARK                         _______ _______ _______ _____ _____    ______ ____
ROOT
ATOM      1  C   UNL     1       2.882  -1.823   2.365  0.00  0.00    +0.249 C 
ATOM      2  O   UNL     1       3.019  -0.642   2.110  0.00  0.00    -0.270 OA
ATOM      3  N   UNL     1       3.890  -2.510   2.938  0.00  0.00    -0.292 N 
ATOM      4  H   UNL     1       3.780  -3.452   3.142  0.00  0.00    +0.151 HD
ENDROOT
BRANCH   1  14
ATOM      5  C   UNL     1      -0.019   1.526   0.010  0.00  0.00    +0.062 C 
ATOM      6  C   UNL     1       0.002  -0.004   0.002  0.00  0.00    +0.256 C 
ATOM      7  C   UNL     1      -1.413  -0.525   0.011  0.00  0.00    +0.258 C 
ATOM      8  O   UNL     1      -2.307   0.131  -0.480  0.00  0.00    -0.271 OA
ATOM      9  N   UNL     1      -1.680  -1.726   0.569  0.00  0.00    -0.280 N 
ATOM     10  C   UNL     1      -0.634  -2.447   1.163  0.00  0.00    +0.076 A 
ATOM     11  C   UNL     1      -0.780  -3.792   1.456  0.00  0.00    +0.027 A 
ATOM     12  C   UNL     1       0.260  -4.494   2.044  0.00  0.00    +0.003 A 
ATOM     13  C   UNL     1       1.448  -3.861   2.341  0.00  0.00    +0.017 A 
ATOM     14  C   UNL     1       1.612  -2.503   2.049  0.00  0.00    +0.080 A 
ATOM     15  C   UNL     1       0.562  -1.795   1.455  0.00  0.00    +0.155 A 
ATOM     16  O   UNL     1       0.695  -0.477   1.160  0.00  0.00    -0.477 OA
ATOM     17  H   UNL     1      -2.582  -2.084   0.559  0.00  0.00    +0.155 HD
ENDBRANCH   1  14
BRANCH   3  18
ATOM     18  C   UNL     1       5.151  -1.835   3.252  0.00  0.00    +0.207 C 
BRANCH  18  19
ATOM     19  C   UNL     1       5.844  -2.562   4.376  0.00  0.00    -0.013 A 
ATOM     20  C   UNL     1       5.843  -3.944   4.409  0.00  0.00    +0.007 A 
ATOM     21  C   UNL     1       6.479  -4.611   5.440  0.00  0.00    +0.004 A 
ATOM     22  C   UNL     1       7.115  -3.896   6.437  0.00  0.00    -0.042 A 
ATOM     23  C   UNL     1       7.117  -2.514   6.403  0.00  0.00    +0.004 A 
ATOM     24  C   UNL     1       6.485  -1.847   5.370  0.00  0.00    +0.007 A 
BRANCH  22  25
ATOM     25  C   UNL     1       7.807  -4.623   7.561  0.00  0.00    -0.013 C 
ATOM     26  C   UNL     1       8.908  -5.518   6.988  0.00  0.00    +0.015 C 
ATOM     27  C   UNL     1       8.426  -3.606   8.522  0.00  0.00    +0.015 C 
ATOM     28  C   UNL     1       6.790  -5.483   8.314  0.00  0.00    +0.015 C 
ENDBRANCH  22  25
ENDBRANCH  18  19
BRANCH  18  29
ATOM     29  C   UNL     1       6.017  -1.833   2.062  0.00  0.00    +0.090 C 
ATOM     30  N   UNL     1       6.685  -1.831   1.143  0.00  0.00    -0.194 NA
ENDBRANCH  18  29
ENDBRANCH   3  18
TORSDOF 5
