REMARK  Name = ZINC35705807
REMARK  8 active torsions:
REMARK  status: ('A' for Active; 'I' for Inactive)
REMARK    1  A    between atoms: C_7  and  C_11
REMARK    2  A    between atoms: C_11  and  C_12
REMARK    3  A    between atoms: C_12  and  N_13
REMARK    4  A    between atoms: N_13  and  C_14
REMARK    5  A    between atoms: N_13  and  C_24
REMARK    6  A    between atoms: C_14  and  C_15
REMARK    7  A    between atoms: C_24  and  C_25
REMARK    8  A    between atoms: C_27  and  C_30
REMARK                            x       y       z     vdW  Elec       q    Type
REMARK                         _______ _______ _______ _____ _____    ______ ____
ROOT
ATOM      1  N   UNL     1      -0.453  -4.714  -1.266  0.00  0.00    +0.388 N 
ATOM      2  H   UNL     1      -0.076  -5.505  -0.767  0.00  0.00    -0.081 HD
ENDROOT
BRANCH   1   3
ATOM      3  C   UNL     1       0.512  -3.607  -1.229  0.00  0.00    -0.073 C 
BRANCH   3   4
ATOM      4  C   UNL     1       0.876  -3.295   0.224  0.00  0.00    +0.019 C 
BRANCH   4  11
ATOM      5  C   UNL     1       0.410   1.369   0.171  0.00  0.00    +0.001 A 
ATOM      6  C   UNL     1       1.627   2.034   0.223  0.00  0.00    +0.002 A 
ATOM      7  C   UNL     1       2.810   1.332   0.282  0.00  0.00    +0.026 A 
ATOM      8  C   UNL     1       2.788  -0.059   0.290  0.00  0.00    +0.047 A 
ATOM      9  C   UNL     1       1.552  -0.729   0.238  0.00  0.00    +0.003 A 
ATOM     10  C   UNL     1       0.365   0.003   0.178  0.00  0.00    +0.010 A 
ATOM     11  C   UNL     1       1.866  -2.160   0.262  0.00  0.00    -0.024 A 
ATOM     12  C   UNL     1       3.203  -2.267   0.324  0.00  0.00    +0.087 A 
ATOM     13  N   UNL     1       3.771  -1.023   0.341  0.00  0.00    -0.360 N 
ATOM     14  H   UNL     1       4.723  -0.845   0.384  0.00  0.00    +0.165 HD
ENDBRANCH   4  11
ENDBRANCH   3   4
ENDBRANCH   1   3
BRANCH   1  15
ATOM     15  C   UNL     1      -1.709  -4.290  -0.632  0.00  0.00    -0.042 C 
BRANCH  15  16
ATOM     16  C   UNL     1      -2.650  -5.464  -0.546  0.00  0.00    -0.060 A 
ATOM     17  C   UNL     1      -3.604  -5.656  -1.528  0.00  0.00    +0.005 A 
ATOM     18  C   UNL     1      -4.469  -6.732  -1.454  0.00  0.00    +0.050 A 
ATOM     19  C   UNL     1      -4.381  -7.620  -0.394  0.00  0.00    +0.166 A 
ATOM     20  C   UNL     1      -3.420  -7.426   0.595  0.00  0.00    +0.166 A 
ATOM     21  C   UNL     1      -2.553  -6.349   0.511  0.00  0.00    +0.051 A 
ATOM     22  O   UNL     1      -3.537  -8.425   1.518  0.00  0.00    -0.453 OA
ATOM     23  C   UNL     1      -4.840  -8.998   1.302  0.00  0.00    +0.466 C 
ATOM     24  O   UNL     1      -5.100  -8.740  -0.090  0.00  0.00    -0.453 OA
ENDBRANCH  15  16
ENDBRANCH   1  15
BRANCH   1  25
ATOM     25  C   UNL     1      -0.712  -5.092  -2.661  0.00  0.00    +0.019 C 
BRANCH  25  26
ATOM     26  C   UNL     1       0.541  -5.674  -3.264  0.00  0.00    +0.179 A 
ATOM     27  N   UNL     1       0.923  -6.911  -3.155  0.00  0.00    -0.210 NA
ATOM     28  C   UNL     1       2.095  -7.061  -3.830  0.00  0.00    +0.164 A 
ATOM     29  C   UNL     1       2.411  -5.847  -4.359  0.00  0.00    +0.230 A 
ATOM     30  O   UNL     1       1.433  -4.999  -4.003  0.00  0.00    -0.449 OA
BRANCH  28  31
ATOM     31  C   UNL     1       2.877  -8.304  -3.963  0.00  0.00    +0.268 C 
ATOM     32  O   UNL     1       3.971  -8.281  -4.493  0.00  0.00    -0.268 OA
ATOM     33  N   UNL     1       2.378  -9.466  -3.497  0.00  0.00    -0.292 N 
ATOM     34  C   UNL     1       1.004  -9.547  -2.977  0.00  0.00    +0.136 C 
ATOM     35  C   UNL     1       0.297 -10.725  -3.658  0.00  0.00    +0.179 C 
ATOM     36  O   UNL     1       1.099 -11.900  -3.518  0.00  0.00    -0.377 OA
ATOM     37  C   UNL     1       2.379 -11.814  -4.150  0.00  0.00    +0.179 C 
ATOM     38  C   UNL     1       3.190 -10.694  -3.499  0.00  0.00    +0.136 C 
ENDBRANCH  28  31
ENDBRANCH  25  26
ENDBRANCH   1  25
TORSDOF 8
