REMARK  Name = ZINC39608839
REMARK  6 active torsions:
REMARK  status: ('A' for Active; 'I' for Inactive)
REMARK    1  A    between atoms: C_4  and  C_7
REMARK    2  A    between atoms: C_7  and  O_8
REMARK    3  A    between atoms: O_8  and  C_9
REMARK    4  A    between atoms: C_14  and  N_16
REMARK    5  A    between atoms: C_17  and  C_19
REMARK    6  A    between atoms: C_30  and  C_32
REMARK                            x       y       z     vdW  Elec       q    Type
REMARK                         _______ _______ _______ _____ _____    ______ ____
ROOT
ATOM      1  C   UNL     1       9.372   0.759   2.892  0.00  0.00    +0.100 C 
ATOM      2  C   UNL     1      10.456  -0.341   2.936  0.00  0.00    +0.121 C 
ATOM      3  N   UNL     1      11.647   0.329   3.507  0.00  0.00    -0.296 N 
ATOM      4  C   UNL     1      11.101   1.213   4.565  0.00  0.00    +0.115 C 
ATOM      5  C   UNL     1       9.798   1.776   3.963  0.00  0.00    -0.004 C 
ATOM      6  C   UNL     1       8.725   1.889   5.042  0.00  0.00    -0.010 C 
ATOM      7  C   UNL     1       9.145   2.949   6.064  0.00  0.00    -0.082 C 
ATOM      8  N   UNL     1       9.326   4.240   5.389  0.00  0.00    +0.379 N 
ATOM      9  C   UNL     1      10.423   4.147   4.418  0.00  0.00    -0.082 C 
ATOM     10  C   UNL     1      10.057   3.138   3.326  0.00  0.00    -0.010 C 
ATOM     11  C   UNL     1      12.936   0.172   3.146  0.00  0.00    +0.248 C 
ATOM     12  O   UNL     1      13.219  -0.520   2.188  0.00  0.00    -0.270 OA
ATOM     13  H   UNL     1       8.474   4.489   4.909  0.00  0.00    -0.086 HD
ATOM     14  H   UNL     1       9.543   4.949   6.073  0.00  0.00    -0.086 HD
ENDROOT
BRANCH  11  15
ATOM     15  C   UNL     1      14.005   0.842   3.915  0.00  0.00    +0.055 A 
ATOM     16  C   UNL     1      13.883   0.996   5.298  0.00  0.00    +0.016 A 
ATOM     17  C   UNL     1      14.884   1.622   6.010  0.00  0.00    +0.021 A 
ATOM     18  C   UNL     1      16.010   2.098   5.357  0.00  0.00    +0.042 A 
ATOM     19  C   UNL     1      16.138   1.949   3.987  0.00  0.00    +0.040 A 
ATOM     20  C   UNL     1      15.145   1.318   3.263  0.00  0.00    +0.054 A 
ATOM     21 CL   UNL     1      15.310   1.125   1.545  0.00  0.00    -0.083 Cl
ATOM     22 CL   UNL     1      17.265   2.885   6.261  0.00  0.00    -0.083 Cl
ENDBRANCH  11  15
BRANCH   1  24
ATOM     23  N   UNL     1       6.899   0.826   2.855  0.00  0.00    -0.310 N 
ATOM     24  C   UNL     1       8.021   0.179   3.227  0.00  0.00    +0.218 C 
ATOM     25  O   UNL     1       7.945  -0.870   3.831  0.00  0.00    -0.275 OA
ATOM     26  H   UNL     1       6.960   1.665   2.372  0.00  0.00    +0.149 HD
BRANCH  23  31
ATOM     27  C   UNL     1       4.533   1.382   3.242  0.00  0.00    +0.139 C 
ATOM     28  C   UNL     1       3.479   1.056   2.164  0.00  0.00    +0.033 C 
ATOM     29  C   UNL     1       4.236   0.161   1.151  0.00  0.00    +0.004 C 
ATOM     30  C   UNL     1       5.135  -0.706   2.067  0.00  0.00    +0.025 C 
ATOM     31  C   UNL     1       5.587   0.263   3.181  0.00  0.00    +0.102 C 
BRANCH  27  32
ATOM     32  O   UNL     1       3.921   1.408   4.533  0.00  0.00    -0.370 OA
BRANCH  32  33
ATOM     33  C   UNL     1       3.466   2.701   4.936  0.00  0.00    +0.195 C 
BRANCH  33  37
ATOM     34  C   UNL     1       1.695   2.449   8.814  0.00  0.00    +0.000 A 
ATOM     35  C   UNL     1       3.047   2.708   8.688  0.00  0.00    +0.000 A 
ATOM     36  C   UNL     1       3.620   2.789   7.432  0.00  0.00    +0.006 A 
ATOM     37  C   UNL     1       2.841   2.612   6.304  0.00  0.00    -0.022 A 
ATOM     38  C   UNL     1       1.490   2.352   6.431  0.00  0.00    +0.006 A 
ATOM     39  C   UNL     1       0.916   2.272   7.686  0.00  0.00    +0.000 A 
ENDBRANCH  33  37
ENDBRANCH  32  33
ENDBRANCH  27  32
ENDBRANCH  23  31
ENDBRANCH   1  24
TORSDOF 6
