REMARK  Name = ZINC20920116
REMARK  8 active torsions:
REMARK  status: ('A' for Active; 'I' for Inactive)
REMARK    1  A    between atoms: C_1  and  C_2
REMARK    2  A    between atoms: C_2  and  C_3
REMARK    3  A    between atoms: C_2  and  C_4
REMARK    4  A    between atoms: C_9  and  N_10
REMARK    5  A    between atoms: C_11  and  C_27
REMARK    6  A    between atoms: C_14  and  S_15
REMARK    7  A    between atoms: S_15  and  C_16
REMARK    8  A    between atoms: C_16  and  C_17
REMARK                            x       y       z     vdW  Elec       q    Type
REMARK                         _______ _______ _______ _____ _____    ______ ____
ROOT
ATOM      1  N   UNL     1       2.439  -2.889   0.244  0.00  0.00    -0.270 N 
ATOM      2  C   UNL     1       1.322  -2.127  -0.022  0.00  0.00    +0.171 A 
ATOM      3  N   UNL     1       0.343  -2.959  -0.292  0.00  0.00    -0.128 NA
ATOM      4  N   UNL     1       0.761  -4.171  -0.208  0.00  0.00    -0.122 NA
ATOM      5  C   UNL     1       2.034  -4.190   0.120  0.00  0.00    +0.197 A 
ENDROOT
BRANCH   1  11
ATOM      6  C   UNL     1       4.652  -2.183  -0.424  0.00  0.00    -0.021 A 
ATOM      7  C   UNL     1       5.912  -1.725  -0.094  0.00  0.00    +0.006 A 
ATOM      8  C   UNL     1       6.250  -1.521   1.231  0.00  0.00    +0.000 A 
ATOM      9  C   UNL     1       5.326  -1.769   2.230  0.00  0.00    +0.002 A 
ATOM     10  C   UNL     1       4.063  -2.223   1.906  0.00  0.00    +0.026 A 
ATOM     11  C   UNL     1       3.720  -2.429   0.576  0.00  0.00    +0.054 A 
BRANCH   6  13
ATOM     12  C   UNL     1       4.420  -1.099  -2.642  0.00  0.00    +0.012 C 
ATOM     13  C   UNL     1       4.286  -2.412  -1.868  0.00  0.00    +0.015 C 
ATOM     14  C   UNL     1       5.224  -3.458  -2.472  0.00  0.00    +0.012 C 
ENDBRANCH   6  13
ENDBRANCH   1  11
BRANCH   2  15
ATOM     15  C   UNL     1       1.244  -0.651  -0.013  0.00  0.00    +0.038 A 
ATOM     16  C   UNL     1       0.002  -0.004   0.002  0.00  0.00    +0.014 A 
ATOM     17  C   UNL     1      -0.017   1.379   0.010  0.00  0.00    +0.020 A 
ATOM     18  C   UNL     1       1.180   2.073   0.002  0.00  0.00    +0.111 A 
ATOM     19  N   UNL     1       2.336   1.437  -0.013  0.00  0.00    -0.263 NA
ATOM     20  C   UNL     1       2.406   0.122  -0.020  0.00  0.00    +0.122 A 
ENDBRANCH   2  15
BRANCH   5  21
ATOM     21  S   UNL     1       3.033  -5.623   0.349  0.00  0.00    -0.078 S 
BRANCH  21  22
ATOM     22  C   UNL     1       1.812  -6.915   0.009  0.00  0.00    +0.151 C 
BRANCH  22  23
ATOM     23  C   UNL     1       2.461  -8.268   0.150  0.00  0.00    +0.122 A 
ATOM     24  N   UNL     1       1.702  -9.374  -0.068  0.00  0.00    -0.194 NA
ATOM     25  C   UNL     1       2.265 -10.601   0.053  0.00  0.00    +0.288 A 
ATOM     26  O   UNL     1       1.611 -11.613  -0.135  0.00  0.00    -0.265 OA
ATOM     27  C   UNL     1       3.615 -10.673   0.399  0.00  0.00    +0.102 A 
ATOM     28  C   UNL     1       4.378  -9.513   0.618  0.00  0.00    +0.060 A 
ATOM     29  N   UNL     1       3.715  -8.320   0.466  0.00  0.00    -0.342 N 
ATOM     30  C   UNL     1       5.720  -9.729   0.959  0.00  0.00    +0.034 A 
ATOM     31  C   UNL     1       6.202 -10.987   1.058  0.00  0.00    +0.048 A 
ATOM     32  S   UNL     1       4.774 -11.987   0.671  0.00  0.00    -0.090 S 
ATOM     33  H   UNL     1       4.282  -7.390   0.622  0.00  0.00    +0.167 HD
ENDBRANCH  22  23
ENDBRANCH  21  22
ENDBRANCH   5  21
TORSDOF 6
