REMARK  Name = ZINC12138089
REMARK  7 active torsions:
REMARK  status: ('A' for Active; 'I' for Inactive)
REMARK    1  A    between atoms: C_1  and  C_2
REMARK    2  A    between atoms: C_2  and  O_3
REMARK    3  A    between atoms: O_3  and  C_4
REMARK    4  A    between atoms: C_9  and  C_10
REMARK    5  A    between atoms: C_17  and  C_18
REMARK    6  A    between atoms: C_17  and  C_24
REMARK    7  A    between atoms: C_17  and  N_58
REMARK                            x       y       z     vdW  Elec       q    Type
REMARK                         _______ _______ _______ _____ _____    ______ ____
ROOT
ATOM      1  C   UNL     1       2.790   3.756   1.009  0.00  0.00    +0.250 C 
ATOM      2  O   UNL     1       3.913   3.294   0.943  0.00  0.00    -0.270 OA
ATOM      3  N   UNL     1       2.571   5.044   0.678  0.00  0.00    -0.301 N 
ATOM      4  C   UNL     1       1.236   5.643   0.823  0.00  0.00    +0.089 C 
ATOM      5  C   UNL     1       1.378   6.951   1.619  0.00  0.00    -0.058 C 
ATOM      6  C   UNL     1       3.704   7.181   0.974  0.00  0.00    -0.058 C 
ATOM      7  C   UNL     1       3.659   5.885   0.158  0.00  0.00    +0.089 C 
ATOM      8  N   UNL     1       2.368   7.813   0.937  0.00  0.00    +0.389 N 
ATOM      9  H   UNL     1       2.084   7.935  -0.042  0.00  0.00    -0.080 HD
ENDROOT
BRANCH   1  15
ATOM     10  C   UNL     1       1.863   1.944   2.450  0.00  0.00    +0.133 A 
ATOM     11  C   UNL     1       0.801   1.150   2.857  0.00  0.00    +0.047 A 
ATOM     12  C   UNL     1      -0.441   1.303   2.275  0.00  0.00    +0.019 A 
ATOM     13  C   UNL     1      -0.640   2.257   1.289  0.00  0.00    +0.019 A 
ATOM     14  C   UNL     1       0.405   3.055   0.872  0.00  0.00    +0.032 A 
ATOM     15  C   UNL     1       1.668   2.906   1.450  0.00  0.00    +0.079 A 
ATOM     16 BR   UNL     1      -2.349   2.459   0.506  0.00  0.00    -0.050 Br
BRANCH  10  17
ATOM     17  O   UNL     1       3.086   1.790   3.018  0.00  0.00    -0.491 OA
BRANCH  17  19
ATOM     18  C   UNL     1       4.649   0.763   4.548  0.00  0.00    +0.048 C 
ATOM     19  C   UNL     1       3.209   0.789   4.031  0.00  0.00    +0.226 C 
ENDBRANCH  17  19
ENDBRANCH  10  17
ENDBRANCH   1  15
BRANCH   8  20
ATOM     20  C   UNL     1       2.417   9.137   1.591  0.00  0.00    -0.007 C 
BRANCH  20  21
ATOM     21  C   UNL     1       3.333  10.036   0.800  0.00  0.00    -0.057 A 
ATOM     22  C   UNL     1       3.359   9.954  -0.580  0.00  0.00    +0.002 A 
ATOM     23  C   UNL     1       4.195  10.782  -1.306  0.00  0.00    +0.000 A 
ATOM     24  C   UNL     1       5.012  11.685  -0.652  0.00  0.00    +0.000 A 
ATOM     25  C   UNL     1       4.989  11.763   0.728  0.00  0.00    +0.000 A 
ATOM     26  C   UNL     1       4.150  10.939   1.454  0.00  0.00    +0.002 A 
ENDBRANCH  20  21
BRANCH  20  27
ATOM     27  C   UNL     1       1.030   9.726   1.612  0.00  0.00    -0.057 A 
ATOM     28  C   UNL     1       0.231   9.652   0.486  0.00  0.00    +0.002 A 
ATOM     29  C   UNL     1      -1.043  10.188   0.507  0.00  0.00    +0.000 A 
ATOM     30  C   UNL     1      -1.514  10.806   1.650  0.00  0.00    +0.000 A 
ATOM     31  C   UNL     1      -0.713  10.885   2.774  0.00  0.00    +0.000 A 
ATOM     32  C   UNL     1       0.559  10.345   2.755  0.00  0.00    +0.002 A 
ENDBRANCH  20  27
ENDBRANCH   8  20
TORSDOF 6
