REMARK  Name = ZINC05198507
REMARK  6 active torsions:
REMARK  status: ('A' for Active; 'I' for Inactive)
REMARK    1  A    between atoms: C_3  and  O_8
REMARK    2  A    between atoms: O_8  and  C_9
REMARK    3  A    between atoms: C_9  and  C_10
REMARK    4  A    between atoms: C_10  and  S_11
REMARK    5  A    between atoms: S_11  and  C_12
REMARK    6  A    between atoms: C_16  and  N_18
REMARK                            x       y       z     vdW  Elec       q    Type
REMARK                         _______ _______ _______ _____ _____    ______ ____
ROOT
ATOM      1  C   UNL     1      -7.517   0.539   0.042  0.00  0.00    +0.192 A 
ATOM      2  N   UNL     1      -7.095  -0.717   0.028  0.00  0.00    -0.207 NA
ATOM      3  C   UNL     1      -7.962  -1.727   0.033  0.00  0.00    +0.122 A 
ATOM      4  C   UNL     1      -9.326  -1.449   0.041  0.00  0.00    +0.086 A 
ATOM      5  C   UNL     1      -9.731  -0.118   0.050  0.00  0.00    +0.122 A 
ATOM      6  N   UNL     1      -8.807   0.841   0.050  0.00  0.00    -0.207 NA
ATOM      7  N   UNL     1      -7.512  -3.038   0.024  0.00  0.00    -0.343 N 
ATOM      8  H   UNL     1      -8.149  -3.769   0.024  0.00  0.00    +0.144 HD
ATOM      9  H   UNL     1      -6.560  -3.224   0.019  0.00  0.00    +0.144 HD
ENDROOT
BRANCH   5  10
ATOM     10  N   UNL     1     -11.079   0.206   0.058  0.00  0.00    -0.343 N 
ATOM     11  H   UNL     1     -11.354   1.136   0.065  0.00  0.00    +0.144 HD
ATOM     12  H   UNL     1     -11.746  -0.497   0.058  0.00  0.00    +0.144 HD
ENDBRANCH   5  10
BRANCH   1  13
ATOM     13  S   UNL     1      -6.331   1.843   0.043  0.00  0.00    -0.083 S 
BRANCH  13  14
ATOM     14  C   UNL     1      -4.801   0.876   0.030  0.00  0.00    +0.118 C 
BRANCH  14  15
ATOM     15  C   UNL     1      -3.599   1.823   0.029  0.00  0.00    +0.240 C 
BRANCH  15  16
ATOM     16  O   UNL     1      -2.391   1.059   0.020  0.00  0.00    -0.491 OA
BRANCH  16  19
ATOM     17  C   UNL     1       1.174   1.783   0.000  0.00  0.00    +0.005 A 
ATOM     18  C   UNL     1      -0.013   1.076   0.008  0.00  0.00    +0.046 A 
ATOM     19  C   UNL     1      -1.223   1.753   0.017  0.00  0.00    +0.122 A 
ATOM     20  C   UNL     1      -1.239   3.141   0.029  0.00  0.00    +0.061 A 
ATOM     21  C   UNL     1      -0.049   3.844   0.021  0.00  0.00    +0.021 A 
ATOM     22  C   UNL     1       1.157   3.165   0.007  0.00  0.00    +0.015 A 
ATOM     23 BR   UNL     1      -0.069   5.735   0.030  0.00  0.00    -0.050 Br
ENDBRANCH  16  19
ENDBRANCH  15  16
ENDBRANCH  14  15
ENDBRANCH  13  14
ENDBRANCH   1  13
TORSDOF 6
