REMARK  Name = ZINC20737083
REMARK  12 active torsions:
REMARK  status: ('A' for Active; 'I' for Inactive)
REMARK    1  A    between atoms: C_1  and  C_2
REMARK    2  A    between atoms: C_2  and  N_3
REMARK    3  A    between atoms: N_3  and  C_4
REMARK    4  A    between atoms: N_3  and  C_6
REMARK    5  A    between atoms: C_4  and  C_5
REMARK    6  A    between atoms: C_6  and  C_7
REMARK    7  A    between atoms: C_7  and  N_8
REMARK    8  A    between atoms: C_9  and  C_11
REMARK    9  A    between atoms: C_14  and  C_17
REMARK   10  A    between atoms: N_21  and  C_29
REMARK   11  A    between atoms: C_29  and  C_30
REMARK   12  A    between atoms: C_35  and  C_36
REMARK                            x       y       z     vdW  Elec       q    Type
REMARK                         _______ _______ _______ _____ _____    ______ ____
ROOT
ATOM      1  C   UNL     1       7.405   0.852   1.338  0.00  0.00    +0.028 C 
ATOM      2  C   UNL     1       7.144   1.212   2.620  0.00  0.00    +0.076 C 
ATOM      3  C   UNL     1       7.516   2.544   3.152  0.00  0.00    +0.258 C 
ATOM      4  O   UNL     1       8.460   3.144   2.672  0.00  0.00    -0.269 OA
ATOM      5  N   UNL     1       6.825   3.091   4.155  0.00  0.00    -0.262 N 
ATOM      6  C   UNL     1       5.676   2.582   4.745  0.00  0.00    +0.051 A 
ATOM      7  C   UNL     1       4.854   3.453   5.459  0.00  0.00    +0.024 A 
ATOM      8  C   UNL     1       3.700   2.992   6.057  0.00  0.00    +0.002 A 
ATOM      9  C   UNL     1       3.337   1.661   5.953  0.00  0.00    +0.001 A 
ATOM     10  C   UNL     1       4.144   0.783   5.254  0.00  0.00    +0.017 A 
ATOM     11  C   UNL     1       5.305   1.240   4.652  0.00  0.00    +0.034 A 
ATOM     12  S   UNL     1       6.335   0.116   3.756  0.00  0.00    -0.082 S 
ENDROOT
BRANCH   1  16
ATOM     13  C   UNL     1       8.853   3.724  -1.414  0.00  0.00    +0.037 A 
ATOM     14  C   UNL     1       9.336   2.412  -1.454  0.00  0.00    +0.013 A 
ATOM     15  C   UNL     1       8.870   1.485  -0.567  0.00  0.00    +0.009 A 
ATOM     16  C   UNL     1       7.907   1.848   0.384  0.00  0.00    -0.024 A 
ATOM     17  C   UNL     1       7.420   3.162   0.419  0.00  0.00    +0.009 A 
ATOM     18  C   UNL     1       7.892   4.088  -0.465  0.00  0.00    +0.013 A 
BRANCH  13  20
ATOM     19  N   UNL     1       8.892   5.990  -2.335  0.00  0.00    -0.313 N 
ATOM     20  C   UNL     1       9.358   4.725  -2.373  0.00  0.00    +0.244 C 
ATOM     21  O   UNL     1      10.193   4.410  -3.198  0.00  0.00    -0.270 OA
ATOM     22  H   UNL     1       8.136   6.275  -1.589  0.00  0.00    +0.149 HD
BRANCH  19  23
ATOM     23  C   UNL     1       9.393   6.984  -3.288  0.00  0.00    +0.086 C 
BRANCH  23  24
ATOM     24  C   UNL     1       8.708   8.327  -3.031  0.00  0.00    -0.060 C 
BRANCH  24  25
ATOM     25  N   UNL     1       9.211   9.324  -3.986  0.00  0.00    +0.380 N 
ATOM     26  H   UNL     1      10.310   9.312  -3.940  0.00  0.00    -0.082 HD
BRANCH  25  28
ATOM     27  C   UNL     1       7.286   8.983  -5.461  0.00  0.00    -0.017 C 
ATOM     28  C   UNL     1       8.812   8.985  -5.359  0.00  0.00    -0.082 C 
ENDBRANCH  25  28
BRANCH  25  29
ATOM     29  C   UNL     1       8.758  10.674  -3.624  0.00  0.00    -0.082 C 
ATOM     30  C   UNL     1       9.509  11.706  -4.468  0.00  0.00    -0.017 C 
ENDBRANCH  25  29
ENDBRANCH  24  25
ENDBRANCH  23  24
ENDBRANCH  19  23
ENDBRANCH  13  20
ENDBRANCH   1  16
BRANCH   5  31
ATOM     31  C   UNL     1       7.331   4.359   4.688  0.00  0.00    +0.149 C 
BRANCH  31  32
ATOM     32  C   UNL     1       6.750   5.503   3.899  0.00  0.00    -0.027 A 
ATOM     33  C   UNL     1       5.781   5.262   2.943  0.00  0.00    +0.005 A 
ATOM     34  C   UNL     1       5.247   6.311   2.219  0.00  0.00    +0.000 A 
ATOM     35  C   UNL     1       5.682   7.603   2.451  0.00  0.00    +0.000 A 
ATOM     36  C   UNL     1       6.651   7.844   3.407  0.00  0.00    +0.003 A 
ATOM     37  C   UNL     1       7.181   6.795   4.135  0.00  0.00    -0.046 A 
ATOM     38  C   UNL     1       8.232   7.059   5.182  0.00  0.00    +0.044 C 
ENDBRANCH  31  32
ENDBRANCH   5  31
TORSDOF 9
