REMARK  Name = ZINC04085602
REMARK  10 active torsions:
REMARK  status: ('A' for Active; 'I' for Inactive)
REMARK    1  A    between atoms: C_1  and  C_2
REMARK    2  A    between atoms: C_3  and  C_30
REMARK    3  A    between atoms: C_9  and  C_29
REMARK    4  A    between atoms: C_10  and  C_16
REMARK    5  A    between atoms: C_16  and  C_17
REMARK    6  A    between atoms: N_19  and  C_20
REMARK    7  A    between atoms: C_22  and  C_27
REMARK    8  A    between atoms: C_22  and  C_28
REMARK    9  A    between atoms: C_23  and  C_25
REMARK   10  A    between atoms: C_23  and  C_26
REMARK                            x       y       z     vdW  Elec       q    Type
REMARK                         _______ _______ _______ _____ _____    ______ ____
ROOT
ATOM      1  C   UNL     1      -5.969   9.335  -7.480  0.00  0.00    +0.048 C 
ATOM      2  C   UNL     1      -4.544   9.384  -7.967  0.00  0.00    -0.002 A 
ATOM      3  C   UNL     1      -4.122   9.748  -9.185  0.00  0.00    +0.106 A 
ATOM      4  O   UNL     1      -2.782   9.668  -9.257  0.00  0.00    -0.460 OA
ATOM      5  C   UNL     1      -2.259   9.247  -8.087  0.00  0.00    +0.139 A 
ATOM      6  C   UNL     1      -3.337   9.042  -7.202  0.00  0.00    +0.024 A 
ATOM      7  C   UNL     1      -3.109   8.603  -5.905  0.00  0.00    +0.023 A 
ATOM      8  C   UNL     1      -1.800   8.365  -5.485  0.00  0.00    +0.022 A 
ATOM      9  C   UNL     1      -1.522   7.901  -4.122  0.00  0.00    -0.029 A 
ATOM     10  C   UNL     1      -0.229   7.687  -3.769  0.00  0.00    +0.049 A 
ATOM     11  C   UNL     1       0.802   7.917  -4.705  0.00  0.00    +0.341 A 
ATOM     12  O   UNL     1       1.958   7.726  -4.372  0.00  0.00    -0.245 OA
ATOM     13  O   UNL     1       0.542   8.337  -5.952  0.00  0.00    -0.422 OA
ATOM     14  C   UNL     1      -0.722   8.570  -6.371  0.00  0.00    +0.143 A 
ATOM     15  C   UNL     1      -0.961   9.009  -7.662  0.00  0.00    +0.093 A 
ATOM     16  C   UNL     1      -2.641   7.668  -3.141  0.00  0.00    +0.045 C 
ATOM     17  C   UNL     1      -5.021  10.184 -10.313  0.00  0.00    +0.086 C 
ENDROOT
BRANCH  10  18
ATOM     18  C   UNL     1       0.105   7.210  -2.379  0.00  0.00    +0.138 C 
BRANCH  18  19
ATOM     19  C   UNL     1       0.113   5.703  -2.353  0.00  0.00    +0.218 C 
ATOM     20  O   UNL     1      -0.129   5.078  -3.364  0.00  0.00    -0.275 OA
ATOM     21  N   UNL     1       0.389   5.051  -1.207  0.00  0.00    -0.312 N 
ATOM     22  H   UNL     1       0.582   5.550  -0.398  0.00  0.00    +0.149 HD
BRANCH  21  23
ATOM     23  C   UNL     1       0.396   3.583  -1.181  0.00  0.00    +0.070 C 
ATOM     24  C   UNL     1       1.298   3.104  -0.042  0.00  0.00    +0.009 C 
ATOM     25  C   UNL     1       1.320   1.577  -0.002  0.00  0.00    -0.072 C 
ATOM     26  C   UNL     1      -1.042   1.551  -0.852  0.00  0.00    -0.072 C 
ATOM     27  C   UNL     1      -1.022   3.076  -0.918  0.00  0.00    +0.009 C 
ATOM     28  C   UNL     1      -0.944   0.975  -2.269  0.00  0.00    -0.010 C 
ATOM     29  C   UNL     1      -2.415   1.129  -0.282  0.00  0.00    -0.010 C 
ATOM     30  C   UNL     1       2.035   1.156   1.301  0.00  0.00    -0.010 C 
ATOM     31  C   UNL     1       2.151   1.041  -1.172  0.00  0.00    -0.010 C 
ATOM     32  N   UNL     1      -0.027   0.947   0.053  0.00  0.00    +0.386 N 
ATOM     33  H   UNL     1      -0.375   1.022   1.016  0.00  0.00    -0.084 HD
ATOM     34  H   UNL     1       0.074  -0.044  -0.199  0.00  0.00    -0.084 HD
ENDBRANCH  21  23
ENDBRANCH  18  19
ENDBRANCH  10  18
TORSDOF 3
