REMARK  Name = ZINC36549751
REMARK  9 active torsions:
REMARK  status: ('A' for Active; 'I' for Inactive)
REMARK    1  A    between atoms: C_5  and  N_7
REMARK    2  A    between atoms: N_7  and  C_8
REMARK    3  A    between atoms: C_8  and  C_10
REMARK    4  A    between atoms: C_8  and  C_19
REMARK    5  A    between atoms: C_11  and  O_18
REMARK    6  A    between atoms: C_13  and  O_17
REMARK    7  A    between atoms: C_15  and  O_16
REMARK    8  A    between atoms: N_21  and  C_22
REMARK    9  A    between atoms: C_28  and  C_30
REMARK                            x       y       z     vdW  Elec       q    Type
REMARK                         _______ _______ _______ _____ _____    ______ ____
ROOT
ATOM      1  C   UNL     1       1.159  -2.937  -1.268  0.00  0.00    +0.204 C 
ENDROOT
BRANCH   1   2
ATOM      2  C   UNL     1      -0.156  -2.289  -1.621  0.00  0.00    +0.065 A 
ATOM      3  C   UNL     1      -0.405  -0.977  -1.248  0.00  0.00    +0.129 A 
ATOM      4  C   UNL     1      -1.614  -0.381  -1.573  0.00  0.00    +0.091 A 
ATOM      5  C   UNL     1      -2.574  -1.097  -2.272  0.00  0.00    +0.124 A 
ATOM      6  C   UNL     1      -2.325  -2.409  -2.646  0.00  0.00    +0.091 A 
ATOM      7  C   UNL     1      -1.114  -3.003  -2.325  0.00  0.00    +0.129 A 
BRANCH   7   8
ATOM      8  O   UNL     1      -0.868  -4.287  -2.696  0.00  0.00    -0.506 OA
ATOM      9  H   UNL     1      -1.142  -4.945  -2.042  0.00  0.00    +0.292 HD
ENDBRANCH   7   8
BRANCH   5  10
ATOM     10  O   UNL     1      -3.759  -0.513  -2.590  0.00  0.00    -0.507 OA
ATOM     11  H   UNL     1      -3.758  -0.061  -3.444  0.00  0.00    +0.292 HD
ENDBRANCH   5  10
BRANCH   3  12
ATOM     12  O   UNL     1       0.536  -0.275  -0.563  0.00  0.00    -0.506 OA
ATOM     13  H   UNL     1       1.153   0.210  -1.127  0.00  0.00    +0.292 HD
ENDBRANCH   3  12
ENDBRANCH   1   2
BRANCH   1  14
ATOM     14  C   UNL     1       2.286  -2.167  -1.907  0.00  0.00    +0.239 C 
ATOM     15  O   UNL     1       2.944  -1.394  -1.244  0.00  0.00    -0.273 OA
ATOM     16  N   UNL     1       2.562  -2.338  -3.215  0.00  0.00    -0.311 N 
ATOM     17  H   UNL     1       2.036  -2.957  -3.745  0.00  0.00    +0.149 HD
BRANCH  16  18
ATOM     18  C   UNL     1       3.658  -1.590  -3.836  0.00  0.00    +0.073 C 
ATOM     19  C   UNL     1       3.152  -0.214  -4.273  0.00  0.00    +0.022 C 
ATOM     20  C   UNL     1       4.297   0.568  -4.922  0.00  0.00    +0.002 C 
ATOM     21  C   UNL     1       4.810  -0.199  -6.142  0.00  0.00    +0.000 C 
ATOM     22  C   UNL     1       5.316  -1.575  -5.705  0.00  0.00    +0.002 C 
ATOM     23  C   UNL     1       4.172  -2.356  -5.056  0.00  0.00    +0.022 C 
ENDBRANCH  16  18
ENDBRANCH   1  14
BRANCH   1  24
ATOM     24  N   UNL     1       1.329  -2.934   0.187  0.00  0.00    -0.250 N 
ATOM     25  C   UNL     1       2.409  -3.520   0.740  0.00  0.00    +0.252 C 
ATOM     26  O   UNL     1       3.290  -3.965   0.030  0.00  0.00    -0.270 OA
BRANCH  24  31
ATOM     27  C   UNL     1      -1.849  -2.262   1.911  0.00  0.00    +0.002 A 
ATOM     28  C   UNL     1      -1.528  -1.116   2.615  0.00  0.00    +0.002 A 
ATOM     29  C   UNL     1      -0.261  -0.571   2.515  0.00  0.00    +0.022 A 
ATOM     30  C   UNL     1       0.689  -1.172   1.711  0.00  0.00    +0.062 A 
ATOM     31  C   UNL     1       0.369  -2.324   1.002  0.00  0.00    +0.056 A 
ATOM     32  C   UNL     1      -0.904  -2.867   1.105  0.00  0.00    +0.025 A 
ATOM     33 CL   UNL     1       2.279  -0.487   1.585  0.00  0.00    -0.082 Cl
ENDBRANCH  24  31
BRANCH  25  34
ATOM     34  C   UNL     1       2.523  -3.622   2.209  0.00  0.00    +0.037 A 
ATOM     35  C   UNL     1       1.377  -3.779   2.992  0.00  0.00    +0.016 A 
ATOM     36  C   UNL     1       1.489  -3.874   4.362  0.00  0.00    +0.039 A 
ATOM     37  C   UNL     1       2.736  -3.812   4.964  0.00  0.00    +0.123 A 
ATOM     38  C   UNL     1       3.877  -3.656   4.192  0.00  0.00    +0.039 A 
ATOM     39  C   UNL     1       3.777  -3.567   2.821  0.00  0.00    +0.016 A 
ATOM     40  F   UNL     1       2.840  -3.905   6.308  0.00  0.00    -0.205 F 
ENDBRANCH  25  34
ENDBRANCH   1  24
TORSDOF 9
