REMARK  Name = ZINC37264138
REMARK  12 active torsions:
REMARK  status: ('A' for Active; 'I' for Inactive)
REMARK    1  A    between atoms: C_1  and  C_2
REMARK    2  A    between atoms: C_2  and  C_3
REMARK    3  A    between atoms: C_2  and  C_4
REMARK    4  A    between atoms: C_4  and  N_5
REMARK    5  A    between atoms: C_6  and  C_8
REMARK    6  A    between atoms: C_8  and  N_9
REMARK    7  A    between atoms: C_12  and  C_22
REMARK    8  A    between atoms: N_14  and  C_15
REMARK    9  A    between atoms: C_22  and  C_23
REMARK   10  A    between atoms: C_22  and  C_24
REMARK   11  A    between atoms: C_22  and  C_25
REMARK   12  A    between atoms: C_26  and  C_32
REMARK                            x       y       z     vdW  Elec       q    Type
REMARK                         _______ _______ _______ _____ _____    ______ ____
ROOT
ATOM      1  N   UNL     1      -3.522  -3.572  -5.077  0.00  0.00    -0.246 N 
ATOM      2  C   UNL     1      -4.817  -4.103  -4.982  0.00  0.00    +0.136 A 
ATOM      3  C   UNL     1      -5.418  -4.420  -3.811  0.00  0.00    +0.034 A 
ATOM      4  C   UNL     1      -6.692  -4.909  -4.102  0.00  0.00    +0.075 A 
ATOM      5  N   UNL     1      -6.852  -4.889  -5.404  0.00  0.00    -0.169 NA
ATOM      6  N   UNL     1      -5.679  -4.385  -5.987  0.00  0.00    -0.218 N 
ATOM      7  C   UNL     1      -4.788  -4.265  -2.451  0.00  0.00    +0.112 C 
ATOM      8  S   UNL     1      -4.742  -2.486  -2.029  0.00  0.00    -0.138 S 
ATOM      9  C   UNL     1      -4.268  -1.734  -3.622  0.00  0.00    +0.166 C 
ATOM     10  C   UNL     1      -3.195  -2.544  -4.288  0.00  0.00    +0.231 C 
ATOM     11  O   UNL     1      -2.028  -2.263  -4.114  0.00  0.00    -0.274 OA
ENDROOT
BRANCH   6  12
ATOM     12  C   UNL     1      -5.444  -4.207  -7.357  0.00  0.00    +0.069 A 
ATOM     13  C   UNL     1      -4.678  -3.136  -7.798  0.00  0.00    +0.028 A 
ATOM     14  C   UNL     1      -4.447  -2.962  -9.149  0.00  0.00    +0.003 A 
ATOM     15  C   UNL     1      -4.977  -3.854 -10.062  0.00  0.00    +0.020 A 
ATOM     16  C   UNL     1      -5.741  -4.923  -9.627  0.00  0.00    +0.043 A 
ATOM     17  C   UNL     1      -5.971  -5.104  -8.276  0.00  0.00    +0.047 A 
ATOM     18 CL   UNL     1      -6.406  -6.040 -10.778  0.00  0.00    -0.083 Cl
ENDBRANCH   6  12
BRANCH   7  19
ATOM     19  C   UNL     1      -5.604  -5.010  -1.427  0.00  0.00    -0.023 A 
ATOM     20  C   UNL     1      -5.329  -6.334  -1.139  0.00  0.00    +0.012 A 
ATOM     21  C   UNL     1      -6.082  -6.975  -0.212  0.00  0.00    +0.045 A 
ATOM     22  S   UNL     1      -7.224  -5.697   0.284  0.00  0.00    -0.105 S 
ATOM     23  C   UNL     1      -6.617  -4.392  -0.772  0.00  0.00    +0.050 A 
ENDBRANCH   7  19
BRANCH   4  24
ATOM     24  C   UNL     1      -7.709  -5.379  -3.094  0.00  0.00    +0.007 C 
ATOM     25  C   UNL     1      -8.014  -4.247  -2.111  0.00  0.00    +0.017 C 
ATOM     26  C   UNL     1      -8.995  -5.785  -3.818  0.00  0.00    +0.017 C 
ATOM     27  C   UNL     1      -7.152  -6.582  -2.330  0.00  0.00    +0.017 C 
ENDBRANCH   4  24
BRANCH   1  28
ATOM     28  C   UNL     1      -2.548  -4.137  -6.014  0.00  0.00    +0.210 C 
BRANCH  28  30
ATOM     29  N   UNL     1      -0.819  -5.906  -6.008  0.00  0.00    -0.314 N 
ATOM     30  C   UNL     1      -1.776  -5.238  -5.334  0.00  0.00    +0.231 C 
ATOM     31  O   UNL     1      -2.016  -5.523  -4.179  0.00  0.00    -0.274 OA
ATOM     32  H   UNL     1      -0.627  -5.678  -6.931  0.00  0.00    +0.149 HD
BRANCH  29  33
ATOM     33  C   UNL     1      -0.069  -6.976  -5.346  0.00  0.00    +0.107 C 
BRANCH  33  35
ATOM     34  C   UNL     1       1.989  -6.503  -6.682  0.00  0.00    +0.009 C 
ATOM     35  C   UNL     1       0.949  -7.566  -6.325  0.00  0.00    -0.000 C 
ATOM     36  C   UNL     1       1.645  -8.764  -5.677  0.00  0.00    +0.009 C 
ENDBRANCH  33  35
ENDBRANCH  29  33
ENDBRANCH  28  30
ENDBRANCH   1  28
TORSDOF 7
