REMARK  Name = ZINC13031915
REMARK  14 active torsions:
REMARK  status: ('A' for Active; 'I' for Inactive)
REMARK    1  A    between atoms: C_1  and  C_2
REMARK    2  A    between atoms: C_2  and  C_3
REMARK    3  A    between atoms: C_3  and  C_4
REMARK    4  A    between atoms: C_3  and  C_5
REMARK    5  A    between atoms: C_3  and  N_6
REMARK    6  A    between atoms: C_7  and  C_9
REMARK    7  A    between atoms: C_9  and  C_11
REMARK    8  A    between atoms: C_9  and  N_17
REMARK    9  A    between atoms: N_15  and  C_16
REMARK   10  A    between atoms: N_17  and  C_18
REMARK   11  A    between atoms: C_23  and  C_24
REMARK   12  A    between atoms: C_24  and  C_26
REMARK   13  A    between atoms: C_27  and  C_29
REMARK   14  A    between atoms: C_29  and  N_30
REMARK                            x       y       z     vdW  Elec       q    Type
REMARK                         _______ _______ _______ _____ _____    ______ ____
ROOT
ATOM      1  N   UNL     1      -5.414   3.508  -1.608  0.00  0.00    -0.252 N 
ATOM      2  C   UNL     1      -4.115   3.841  -1.479  0.00  0.00    +0.242 C 
ATOM      3  O   UNL     1      -3.435   4.027  -2.466  0.00  0.00    -0.273 OA
ENDROOT
BRANCH   1   4
ATOM      4  C   UNL     1      -6.172   3.209  -0.480  0.00  0.00    +0.048 A 
ATOM      5  C   UNL     1      -6.948   4.191   0.120  0.00  0.00    +0.024 A 
ATOM      6  C   UNL     1      -7.699   3.892   1.239  0.00  0.00    +0.002 A 
ATOM      7  C   UNL     1      -7.686   2.612   1.773  0.00  0.00    +0.001 A 
ATOM      8  C   UNL     1      -6.923   1.623   1.193  0.00  0.00    +0.013 A 
ATOM      9  C   UNL     1      -6.159   1.909   0.055  0.00  0.00    +0.039 A 
BRANCH   9  10
ATOM     10  C   UNL     1      -5.348   0.859  -0.572  0.00  0.00    +0.162 C 
ATOM     11  O   UNL     1      -4.611   1.133  -1.496  0.00  0.00    -0.292 OA
ATOM     12  C   UNL     1      -5.430  -0.559  -0.069  0.00  0.00    +0.091 C 
ENDBRANCH   9  10
ENDBRANCH   1   4
BRANCH   1  13
ATOM     13  C   UNL     1      -6.029   3.462  -2.937  0.00  0.00    +0.213 C 
BRANCH  13  14
ATOM     14  C   UNL     1      -5.421   2.336  -3.733  0.00  0.00    +0.049 A 
ATOM     15  C   UNL     1      -4.143   2.268  -4.157  0.00  0.00    +0.025 A 
ATOM     16  C   UNL     1      -3.995   1.055  -4.858  0.00  0.00    +0.019 A 
ATOM     17  C   UNL     1      -5.191   0.431  -4.843  0.00  0.00    +0.085 A 
ATOM     18  N   UNL     1      -6.070   1.213  -4.154  0.00  0.00    -0.352 N 
ATOM     19  C   UNL     1      -7.480   0.899  -3.907  0.00  0.00    +0.148 C 
ENDBRANCH  13  14
BRANCH  13  21
ATOM     20  N   UNL     1      -6.350   4.994  -4.852  0.00  0.00    -0.308 N 
ATOM     21  C   UNL     1      -5.787   4.768  -3.649  0.00  0.00    +0.240 C 
ATOM     22  O   UNL     1      -5.086   5.616  -3.138  0.00  0.00    -0.273 OA
ATOM     23  H   UNL     1      -6.968   4.348  -5.228  0.00  0.00    +0.149 HD
BRANCH  20  24
ATOM     24  C   UNL     1      -6.029   6.216  -5.593  0.00  0.00    +0.029 C 
ATOM     25  C   UNL     1      -6.430   7.437  -4.762  0.00  0.00    +0.031 C 
ATOM     26  C   UNL     1      -4.525   6.263  -5.873  0.00  0.00    +0.031 C 
BRANCH  24  28
ATOM     27  C   UNL     1      -6.460   7.503  -7.691  0.00  0.00    +0.006 C 
ATOM     28  C   UNL     1      -6.795   6.226  -6.917  0.00  0.00    +0.022 C 
ENDBRANCH  24  28
ENDBRANCH  20  24
ENDBRANCH  13  21
ENDBRANCH   1  13
BRANCH   2  29
ATOM     29  C   UNL     1      -3.506   3.981  -0.107  0.00  0.00    +0.242 C 
BRANCH  29  30
ATOM     30  N   UNL     1      -2.093   4.346  -0.235  0.00  0.00    -0.235 N 
ATOM     31  C   UNL     1      -1.025   3.484  -0.320  0.00  0.00    +0.090 A 
ATOM     32  C   UNL     1      -0.899   2.099  -0.323  0.00  0.00    +0.029 A 
ATOM     33  C   UNL     1       0.340   1.530  -0.421  0.00  0.00    +0.002 A 
ATOM     34  C   UNL     1       1.475   2.323  -0.528  0.00  0.00    +0.002 A 
ATOM     35  C   UNL     1       1.378   3.683  -0.534  0.00  0.00    +0.032 A 
ATOM     36  C   UNL     1       0.120   4.292  -0.429  0.00  0.00    +0.113 A 
ATOM     37  N   UNL     1      -0.283   5.578  -0.407  0.00  0.00    -0.129 NA
ATOM     38  N   UNL     1      -1.563   5.643  -0.295  0.00  0.00    -0.064 NA
ENDBRANCH  29  30
ENDBRANCH   2  29
TORSDOF 9
