REMARK  Name = ZINC12997850
REMARK  11 active torsions:
REMARK  status: ('A' for Active; 'I' for Inactive)
REMARK    1  A    between atoms: C_1  and  N_2
REMARK    2  A    between atoms: N_2  and  C_3
REMARK    3  A    between atoms: N_2  and  C_4
REMARK    4  A    between atoms: C_4  and  C_6
REMARK    5  A    between atoms: C_4  and  C_29
REMARK    6  A    between atoms: C_6  and  N_7
REMARK    7  A    between atoms: C_8  and  C_10
REMARK    8  A    between atoms: C_10  and  S_11
REMARK    9  A    between atoms: S_11  and  C_12
REMARK   10  A    between atoms: N_22  and  C_23
REMARK   11  A    between atoms: C_23  and  C_24
REMARK                            x       y       z     vdW  Elec       q    Type
REMARK                         _______ _______ _______ _____ _____    ______ ____
ROOT
ATOM      1  S   UNL     1      -2.770   4.438  -3.735  0.00  0.00    -0.078 S 
ENDROOT
BRANCH   1   2
ATOM      2  C   UNL     1      -2.348   6.147  -3.679  0.00  0.00    +0.173 A 
ATOM      3  N   UNL     1      -1.604   6.575  -2.689  0.00  0.00    -0.223 NA
ATOM      4  C   UNL     1      -1.243   7.870  -2.584  0.00  0.00    +0.079 A 
ATOM      5  C   UNL     1      -0.449   8.326  -1.528  0.00  0.00    +0.028 A 
ATOM      6  C   UNL     1      -0.106   9.647  -1.461  0.00  0.00    +0.002 A 
ATOM      7  C   UNL     1      -0.536  10.547  -2.428  0.00  0.00    +0.001 A 
ATOM      8  C   UNL     1      -1.314  10.131  -3.473  0.00  0.00    +0.015 A 
ATOM      9  C   UNL     1      -1.678   8.788  -3.567  0.00  0.00    +0.065 A 
ATOM     10  C   UNL     1      -2.511   8.285  -4.667  0.00  0.00    +0.263 A 
ATOM     11  O   UNL     1      -2.916   9.027  -5.543  0.00  0.00    -0.267 OA
ATOM     12  N   UNL     1      -2.807   6.964  -4.673  0.00  0.00    -0.280 N 
BRANCH  12  13
ATOM     13  C   UNL     1      -3.629   6.408  -5.750  0.00  0.00    +0.201 C 
BRANCH  13  14
ATOM     14  C   UNL     1      -5.083   6.481  -5.361  0.00  0.00    +0.125 A 
ATOM     15  C   UNL     1      -5.916   7.506  -5.619  0.00  0.00    +0.046 A 
ATOM     16  C   UNL     1      -7.175   7.156  -5.080  0.00  0.00    +0.041 A 
ATOM     17  C   UNL     1      -7.037   5.939  -4.525  0.00  0.00    +0.195 A 
ATOM     18  O   UNL     1      -5.769   5.532  -4.704  0.00  0.00    -0.466 OA
ENDBRANCH  13  14
ENDBRANCH  12  13
ENDBRANCH   1   2
BRANCH   1  19
ATOM     19  C   UNL     1      -1.974   3.741  -2.262  0.00  0.00    +0.173 C 
BRANCH  19  21
ATOM     20  N   UNL     1      -1.766   1.531  -1.169  0.00  0.00    -0.316 N 
ATOM     21  C   UNL     1      -2.260   2.263  -2.188  0.00  0.00    +0.223 C 
ATOM     22  O   UNL     1      -2.935   1.732  -3.045  0.00  0.00    -0.275 OA
ATOM     23  H   UNL     1      -1.227   1.956  -0.484  0.00  0.00    +0.149 HD
BRANCH  20  24
ATOM     24  C   UNL     1      -2.044   0.095  -1.098  0.00  0.00    +0.093 C 
BRANCH  24  25
ATOM     25  C   UNL     1      -1.281  -0.514   0.081  0.00  0.00    -0.021 C 
BRANCH  25  26
ATOM     26  C   UNL     1      -1.799   0.070   1.370  0.00  0.00    -0.059 A 
ATOM     27  C   UNL     1      -2.967  -0.414   1.928  0.00  0.00    +0.002 A 
ATOM     28  C   UNL     1      -3.442   0.122   3.111  0.00  0.00    +0.000 A 
ATOM     29  C   UNL     1      -2.748   1.141   3.735  0.00  0.00    +0.000 A 
ATOM     30  C   UNL     1      -1.579   1.625   3.178  0.00  0.00    +0.000 A 
ATOM     31  C   UNL     1      -1.102   1.086   1.997  0.00  0.00    +0.002 A 
ENDBRANCH  25  26
BRANCH  25  33
ATOM     32  C   UNL     1      -0.970  -2.540  -1.166  0.00  0.00    -0.096 C 
ATOM     33  N   UNL     1      -1.476  -1.970   0.090  0.00  0.00    +0.382 N 
ATOM     34  C   UNL     1      -0.744  -2.555   1.222  0.00  0.00    -0.096 C 
ATOM     35  H   UNL     1      -2.459  -2.178   0.182  0.00  0.00    -0.082 HD
ENDBRANCH  25  33
ENDBRANCH  24  25
ENDBRANCH  20  24
ENDBRANCH  19  21
ENDBRANCH   1  19
TORSDOF 9
