REMARK  Name = ZINC34832405
REMARK  9 active torsions:
REMARK  status: ('A' for Active; 'I' for Inactive)
REMARK    1  A    between atoms: C_1  and  C_2
REMARK    2  A    between atoms: C_2  and  C_3
REMARK    3  A    between atoms: C_2  and  C_4
REMARK    4  A    between atoms: C_2  and  C_5
REMARK    5  A    between atoms: C_9  and  C_21
REMARK    6  A    between atoms: C_11  and  C_14
REMARK    7  A    between atoms: N_23  and  C_24
REMARK    8  A    between atoms: N_27  and  C_30
REMARK    9  A    between atoms: C_30  and  C_31
REMARK                            x       y       z     vdW  Elec       q    Type
REMARK                         _______ _______ _______ _____ _____    ______ ____
ROOT
ATOM      1  C   UNL     1       0.707  -0.490  -1.238  0.00  0.00    +0.071 A 
ATOM      2  C   UNL     1       2.077  -0.468  -1.444  0.00  0.00    +0.073 A 
ATOM      3  C   UNL     1       2.322  -1.002  -2.707  0.00  0.00    +0.157 A 
ATOM      4  N   UNL     1       3.447  -1.211  -3.393  0.00  0.00    -0.223 NA
ATOM      5  C   UNL     1       3.419  -1.744  -4.602  0.00  0.00    +0.130 A 
ATOM      6  C   UNL     1       2.192  -2.103  -5.190  0.00  0.00    +0.061 A 
ATOM      7  C   UNL     1       1.032  -1.892  -4.495  0.00  0.00    +0.080 A 
ATOM      8  N   UNL     1       1.101  -1.336  -3.240  0.00  0.00    -0.214 N 
ATOM      9  N   UNL     1       0.122  -1.008  -2.295  0.00  0.00    -0.169 NA
ENDROOT
BRANCH   7  10
ATOM     10  C   UNL     1      -0.273  -2.257  -5.083  0.00  0.00    +0.036 A 
ATOM     11  C   UNL     1      -0.953  -3.390  -4.634  0.00  0.00    +0.013 A 
ATOM     12  C   UNL     1      -2.171  -3.725  -5.187  0.00  0.00    +0.001 A 
ATOM     13  C   UNL     1      -2.721  -2.940  -6.186  0.00  0.00    +0.003 A 
ATOM     14  C   UNL     1      -2.055  -1.816  -6.638  0.00  0.00    +0.039 A 
ATOM     15  C   UNL     1      -0.836  -1.465  -6.089  0.00  0.00    +0.133 A 
ATOM     16  F   UNL     1      -0.188  -0.363  -6.526  0.00  0.00    -0.205 F 
ENDBRANCH   7  10
BRANCH   1  18
ATOM     17  C   UNL     1      -0.019   1.526   0.010  0.00  0.00    +0.017 C 
ATOM     18  C   UNL     1       0.002  -0.004   0.002  0.00  0.00    +0.006 C 
ATOM     19  C   UNL     1       0.742  -0.511   1.242  0.00  0.00    +0.017 C 
ATOM     20  C   UNL     1      -1.433  -0.534   0.013  0.00  0.00    +0.017 C 
ENDBRANCH   1  18
BRANCH   5  21
ATOM     21  C   UNL     1       4.684  -1.964  -5.341  0.00  0.00    +0.263 C 
ATOM     22  O   UNL     1       4.661  -2.455  -6.453  0.00  0.00    -0.269 OA
ATOM     23  N   UNL     1       5.861  -1.622  -4.780  0.00  0.00    -0.307 N 
ATOM     24  H   UNL     1       5.879  -1.230  -3.892  0.00  0.00    +0.149 HD
BRANCH  23  25
ATOM     25  C   UNL     1       7.112  -1.840  -5.510  0.00  0.00    +0.070 C 
ATOM     26  C   UNL     1       7.597  -3.274  -5.278  0.00  0.00    +0.004 C 
ATOM     27  C   UNL     1       8.943  -3.470  -5.978  0.00  0.00    -0.077 C 
ATOM     28  N   UNL     1       9.925  -2.525  -5.433  0.00  0.00    +0.382 N 
ATOM     29  C   UNL     1       9.502  -1.149  -5.715  0.00  0.00    -0.077 C 
ATOM     30  C   UNL     1       8.177  -0.863  -5.005  0.00  0.00    +0.004 C 
ATOM     31  H   UNL     1       9.998  -2.656  -4.435  0.00  0.00    -0.081 HD
BRANCH  28  32
ATOM     32  C   UNL     1      11.235  -2.770  -6.052  0.00  0.00    -0.043 C 
BRANCH  32  33
ATOM     33  C   UNL     1      12.269  -1.885  -5.406  0.00  0.00    -0.064 A 
ATOM     34  C   UNL     1      12.516  -0.624  -5.916  0.00  0.00    +0.002 A 
ATOM     35  C   UNL     1      13.465   0.188  -5.324  0.00  0.00    +0.000 A 
ATOM     36  C   UNL     1      14.167  -0.261  -4.221  0.00  0.00    +0.000 A 
ATOM     37  C   UNL     1      13.919  -1.522  -3.710  0.00  0.00    +0.000 A 
ATOM     38  C   UNL     1      12.967  -2.332  -4.300  0.00  0.00    +0.002 A 
ENDBRANCH  32  33
ENDBRANCH  28  32
ENDBRANCH  23  25
ENDBRANCH   5  21
TORSDOF 6
