REMARK  Name = ZINC39896941
REMARK  8 active torsions:
REMARK  status: ('A' for Active; 'I' for Inactive)
REMARK    1  A    between atoms: C_1  and  C_2
REMARK    2  A    between atoms: C_5  and  N_9
REMARK    3  A    between atoms: C_7  and  C_8
REMARK    4  A    between atoms: C_12  and  C_28
REMARK    5  A    between atoms: C_16  and  C_17
REMARK    6  A    between atoms: C_16  and  C_19
REMARK    7  A    between atoms: N_21  and  C_22
REMARK    8  A    between atoms: C_28  and  C_29
REMARK                            x       y       z     vdW  Elec       q    Type
REMARK                         _______ _______ _______ _____ _____    ______ ____
ROOT
ATOM      1  N   UNL     1      -0.607  -4.092   0.342  0.00  0.00    -0.232 N 
ATOM      2  C   UNL     1      -1.022  -4.732   1.422  0.00  0.00    +0.238 C 
ATOM      3  O   UNL     1      -1.282  -4.152   2.455  0.00  0.00    -0.274 OA
ATOM      4  C   UNL     1      -1.154  -6.240   1.286  0.00  0.00    +0.143 C 
ATOM      5  S   UNL     1      -0.626  -6.457  -0.464  0.00  0.00    -0.095 S 
ATOM      6  C   UNL     1      -0.315  -4.737  -0.835  0.00  0.00    +0.098 C 
ATOM      7  C   UNL     1       0.123  -4.181  -2.037  0.00  0.00    +0.142 C 
ENDROOT
BRANCH   1  12
ATOM      8  C   UNL     1      -0.026   1.549   0.570  0.00  0.00    +0.044 C 
ATOM      9  C   UNL     1      -0.180   0.051   0.509  0.00  0.00    -0.047 A 
ATOM     10  C   UNL     1       0.940  -0.755   0.416  0.00  0.00    +0.005 A 
ATOM     11  C   UNL     1       0.802  -2.128   0.360  0.00  0.00    +0.024 A 
ATOM     12  C   UNL     1      -0.463  -2.699   0.399  0.00  0.00    +0.042 A 
ATOM     13  C   UNL     1      -1.585  -1.887   0.493  0.00  0.00    +0.027 A 
ATOM     14  C   UNL     1      -1.441  -0.515   0.553  0.00  0.00    -0.046 A 
ATOM     15  C   UNL     1      -2.658   0.366   0.661  0.00  0.00    +0.044 C 
ENDBRANCH   1  12
BRANCH   7  16
ATOM     16  C   UNL     1       0.166  -2.728  -2.198  0.00  0.00    +0.261 C 
ATOM     17  O   UNL     1       1.216  -2.130  -2.051  0.00  0.00    -0.269 OA
ATOM     18  N   UNL     1      -0.958  -2.051  -2.508  0.00  0.00    -0.281 N 
ATOM     19  H   UNL     1      -1.808  -2.515  -2.549  0.00  0.00    +0.155 HD
BRANCH  18  20
ATOM     20  C   UNL     1      -0.897  -0.679  -2.770  0.00  0.00    +0.034 A 
ATOM     21  C   UNL     1       0.257  -0.123  -3.309  0.00  0.00    +0.023 A 
ATOM     22  C   UNL     1       0.313   1.232  -3.567  0.00  0.00    +0.002 A 
ATOM     23  C   UNL     1      -0.777   2.036  -3.290  0.00  0.00    +0.000 A 
ATOM     24  C   UNL     1      -1.927   1.487  -2.753  0.00  0.00    +0.002 A 
ATOM     25  C   UNL     1      -1.992   0.131  -2.498  0.00  0.00    +0.023 A 
ENDBRANCH  18  20
ENDBRANCH   7  16
BRANCH   7  26
ATOM     26  C   UNL     1       0.530  -5.033  -3.114  0.00  0.00    +0.107 C 
ATOM     27  N   UNL     1       0.854  -5.708  -3.968  0.00  0.00    -0.191 NA
ENDBRANCH   7  26
BRANCH   4  28
ATOM     28  C   UNL     1      -0.210  -6.969   2.245  0.00  0.00    +0.059 C 
BRANCH  28  29
ATOM     29  C   UNL     1      -0.460  -8.453   2.166  0.00  0.00    -0.046 A 
ATOM     30  C   UNL     1      -1.395  -9.041   2.997  0.00  0.00    +0.004 A 
ATOM     31  C   UNL     1      -1.624 -10.403   2.924  0.00  0.00    +0.000 A 
ATOM     32  C   UNL     1      -0.919 -11.175   2.020  0.00  0.00    +0.000 A 
ATOM     33  C   UNL     1       0.015 -10.586   1.188  0.00  0.00    +0.000 A 
ATOM     34  C   UNL     1       0.241  -9.224   1.258  0.00  0.00    +0.004 A 
ENDBRANCH  28  29
ENDBRANCH   4  28
TORSDOF 6
