REMARK  Name = ZINC67295506
REMARK  5 active torsions:
REMARK  status: ('A' for Active; 'I' for Inactive)
REMARK    1  A    between atoms: C_8  and  C_22
REMARK    2  A    between atoms: N_10  and  C_11
REMARK    3  A    between atoms: C_15  and  C_17
REMARK    4  A    between atoms: N_24  and  C_25
REMARK    5  A    between atoms: C_25  and  C_26
REMARK                            x       y       z     vdW  Elec       q    Type
REMARK                         _______ _______ _______ _____ _____    ______ ____
ROOT
ATOM      1  C   UNL     1      -0.537   0.696  -0.033  0.00  0.00    +0.001 A 
ATOM      2  C   UNL     1       0.471   1.636   0.125  0.00  0.00    +0.004 A 
ATOM      3  C   UNL     1       1.795   1.248   0.166  0.00  0.00    +0.047 A 
ATOM      4  C   UNL     1       2.124  -0.094   0.049  0.00  0.00    +0.137 A 
ATOM      5  C   UNL     1       1.100  -1.047  -0.108  0.00  0.00    +0.018 A 
ATOM      6  C   UNL     1      -0.236  -0.632  -0.149  0.00  0.00    +0.011 A 
ATOM      7  C   UNL     1       1.449  -2.465  -0.222  0.00  0.00    +0.030 A 
ATOM      8  C   UNL     1       2.750  -2.829   0.101  0.00  0.00    +0.097 A 
ATOM      9  C   UNL     1       3.664  -1.752   0.530  0.00  0.00    +0.212 A 
ATOM     10  N   UNL     1       4.684  -2.003   1.321  0.00  0.00    -0.325 N 
ATOM     11  O   UNL     1       3.419  -0.494   0.083  0.00  0.00    -0.439 OA
ATOM     12  H   UNL     1       4.794  -2.888   1.704  0.00  0.00    +0.169 HD
ENDROOT
BRANCH  10  13
ATOM     13  C   UNL     1       5.590  -1.018   1.603  0.00  0.00    +0.042 A 
ATOM     14  C   UNL     1       6.078  -0.200   0.581  0.00  0.00    +0.026 A 
ATOM     15  C   UNL     1       6.990   0.792   0.873  0.00  0.00    +0.003 A 
ATOM     16  C   UNL     1       7.423   0.978   2.174  0.00  0.00    +0.012 A 
ATOM     17  C   UNL     1       6.944   0.171   3.191  0.00  0.00    +0.057 A 
ATOM     18  C   UNL     1       6.027  -0.822   2.915  0.00  0.00    +0.038 A 
BRANCH  17  19
ATOM     19  C   UNL     1       7.422   0.380   4.605  0.00  0.00    +0.417 C 
ATOM     20  F   UNL     1       8.337   1.438   4.636  0.00  0.00    -0.166 F 
ATOM     21  F   UNL     1       6.331   0.684   5.426  0.00  0.00    -0.166 F 
ATOM     22  F   UNL     1       8.042  -0.786   5.066  0.00  0.00    -0.166 F 
ENDBRANCH  17  19
ENDBRANCH  10  13
BRANCH   8  23
ATOM     23  C   UNL     1       3.198  -4.230   0.019  0.00  0.00    +0.250 C 
ATOM     24  O   UNL     1       4.372  -4.503   0.184  0.00  0.00    -0.270 OA
ATOM     25  N   UNL     1       2.308  -5.208  -0.239  0.00  0.00    -0.304 N 
ATOM     26  H   UNL     1       1.384  -4.985  -0.431  0.00  0.00    +0.149 HD
BRANCH  25  27
ATOM     27  C   UNL     1       2.736  -6.609  -0.229  0.00  0.00    +0.179 C 
BRANCH  27  28
ATOM     28  C   UNL     1       1.560  -7.497  -0.545  0.00  0.00    +0.122 A 
ATOM     29  C   UNL     1       1.186  -7.899  -1.772  0.00  0.00    +0.046 A 
ATOM     30  C   UNL     1       0.041  -8.712  -1.606  0.00  0.00    +0.041 A 
ATOM     31  C   UNL     1      -0.216  -8.757  -0.286  0.00  0.00    +0.195 A 
ATOM     32  O   UNL     1       0.710  -8.024   0.352  0.00  0.00    -0.466 OA
ENDBRANCH  27  28
ENDBRANCH  25  27
ENDBRANCH   8  23
TORSDOF 5
