REMARK  Name = ZINC01433783
REMARK  5 active torsions:
REMARK  status: ('A' for Active; 'I' for Inactive)
REMARK    1  A    between atoms: C_3  and  N_24
REMARK    2  A    between atoms: C_6  and  C_7
REMARK    3  A    between atoms: C_11  and  N_21
REMARK    4  A    between atoms: C_16  and  N_20
REMARK    5  A    between atoms: C_17  and  C_18
REMARK                            x       y       z     vdW  Elec       q    Type
REMARK                         _______ _______ _______ _____ _____    ______ ____
ROOT
ATOM      1  C   UNL     1      -1.294  -0.774   0.011  0.00  0.00    +0.098 C 
ATOM      2  C   UNL     1      -1.351  -1.640   1.241  0.00  0.00    +0.010 A 
ATOM      3  C   UNL     1      -1.637  -1.066   2.466  0.00  0.00    +0.041 A 
ATOM      4  C   UNL     1      -1.694  -1.848   3.604  0.00  0.00    +0.127 A 
ATOM      5  C   UNL     1      -1.463  -3.209   3.520  0.00  0.00    +0.036 A 
ATOM      6  C   UNL     1      -1.177  -3.787   2.300  0.00  0.00    +0.049 A 
ATOM      7  C   UNL     1      -1.119  -3.003   1.154  0.00  0.00    +0.134 A 
ATOM      8  O   UNL     1      -0.837  -3.586  -0.037  0.00  0.00    -0.441 OA
ATOM      9  C   UNL     1      -1.149  -2.956  -1.182  0.00  0.00    +0.199 C 
ATOM     10  C   UNL     1      -1.375  -1.625  -1.225  0.00  0.00    +0.098 C 
ENDROOT
BRANCH   1  16
ATOM     11  C   UNL     1      -0.017   1.379   0.010  0.00  0.00    +0.006 A 
ATOM     12  C   UNL     1       1.169   2.087   0.002  0.00  0.00    +0.023 A 
ATOM     13  C   UNL     1       2.381   1.409  -0.013  0.00  0.00    +0.025 A 
ATOM     14  C   UNL     1       2.396   0.020  -0.021  0.00  0.00    +0.023 A 
ATOM     15  C   UNL     1       1.207  -0.682  -0.013  0.00  0.00    +0.006 A 
ATOM     16  C   UNL     1       0.002  -0.004   0.002  0.00  0.00    -0.035 A 
BRANCH  13  17
ATOM     17  N   UNL     1       3.582   2.122  -0.021  0.00  0.00    -0.358 N 
ATOM     18  H   UNL     1       3.570   3.092  -0.016  0.00  0.00    +0.142 HD
ATOM     19  H   UNL     1       4.428   1.647  -0.032  0.00  0.00    +0.142 HD
ENDBRANCH  13  17
ENDBRANCH   1  16
BRANCH   9  20
ATOM     20  N   UNL     1      -1.237  -3.686  -2.341  0.00  0.00    -0.328 N 
ATOM     21  H   UNL     1      -1.076  -4.643  -2.326  0.00  0.00    +0.145 HD
ATOM     22  H   UNL     1      -1.461  -3.246  -3.176  0.00  0.00    +0.145 HD
ENDBRANCH   9  20
BRANCH   4  23
ATOM     23  N   UNL     1      -2.000  -1.228   4.913  0.00  0.00    +0.056 N 
ATOM     24  O   UNL     1      -2.201  -0.038   4.986  0.00  0.00    -0.126 OA
ATOM     25  O   UNL     1      -2.049  -1.912   5.909  0.00  0.00    -0.126 OA
ENDBRANCH   4  23
BRANCH  10  26
ATOM     26  C   UNL     1      -1.702  -1.014  -2.478  0.00  0.00    +0.101 C 
ATOM     27  N   UNL     1      -1.961  -0.529  -3.472  0.00  0.00    -0.191 NA
ENDBRANCH  10  26
TORSDOF 5
