REMARK  Name = ZINC38557827
REMARK  5 active torsions:
REMARK  status: ('A' for Active; 'I' for Inactive)
REMARK    1  A    between atoms: C_5  and  C_7
REMARK    2  A    between atoms: C_7  and  C_8
REMARK    3  A    between atoms: C_8  and  N_9
REMARK    4  A    between atoms: C_10  and  C_12
REMARK    5  A    between atoms: C_24  and  C_26
REMARK                            x       y       z     vdW  Elec       q    Type
REMARK                         _______ _______ _______ _____ _____    ______ ____
ROOT
ATOM      1  C   UNL     1       1.368  -6.407   2.631  0.00  0.00    +0.126 C 
ATOM      2  C   UNL     1       1.677  -7.105   3.801  0.00  0.00    +0.039 C 
ATOM      3  C   UNL     1       2.075  -8.424   3.635  0.00  0.00    -0.008 C 
ATOM      4  C   UNL     1       2.151  -9.513   4.461  0.00  0.00    +0.004 A 
ATOM      5  C   UNL     1       2.095  -9.641   5.868  0.00  0.00    +0.010 A 
ATOM      6  C   UNL     1       2.153 -10.906   6.375  0.00  0.00    +0.001 A 
ATOM      7  C   UNL     1       2.262 -12.048   5.580  0.00  0.00    +0.002 A 
ATOM      8  C   UNL     1       2.346 -12.012   4.222  0.00  0.00    +0.026 A 
ATOM      9  C   UNL     1       2.313 -10.726   3.611  0.00  0.00    +0.044 A 
ATOM     10  N   UNL     1       2.435 -10.394   2.349  0.00  0.00    -0.372 N 
ATOM     11  C   UNL     1       2.494  -8.952   2.272  0.00  0.00    +0.160 C 
ATOM     12  C   UNL     1       1.706  -8.254   1.221  0.00  0.00    +0.076 C 
ATOM     13  N   UNL     1       1.268  -7.036   1.450  0.00  0.00    -0.244 NA
ATOM     14  H   UNL     1       2.477 -11.008   1.599  0.00  0.00    +0.161 HD
ENDROOT
BRANCH  12  15
ATOM     15  C   UNL     1       1.416  -8.919  -0.056  0.00  0.00    -0.000 A 
ATOM     16  C   UNL     1       0.291  -8.547  -0.804  0.00  0.00    +0.010 A 
ATOM     17  C   UNL     1       0.026  -9.176  -2.001  0.00  0.00    +0.002 A 
ATOM     18  C   UNL     1       0.868 -10.172  -2.466  0.00  0.00    +0.015 A 
ATOM     19  C   UNL     1       1.982 -10.546  -1.733  0.00  0.00    +0.018 A 
ATOM     20  C   UNL     1       2.265  -9.924  -0.535  0.00  0.00    +0.025 A 
ATOM     21 BR   UNL     1       3.123 -11.909  -2.380  0.00  0.00    -0.050 Br
ENDBRANCH  12  15
BRANCH   1  23
ATOM     22  N   UNL     1       0.837  -4.261   1.577  0.00  0.00    -0.310 N 
ATOM     23  C   UNL     1       1.141  -4.946   2.697  0.00  0.00    +0.262 C 
ATOM     24  O   UNL     1       1.229  -4.365   3.761  0.00  0.00    -0.269 OA
ATOM     25  H   UNL     1       0.766  -4.725   0.729  0.00  0.00    +0.149 HD
BRANCH  22  26
ATOM     26  C   UNL     1       0.612  -2.814   1.642  0.00  0.00    +0.109 C 
BRANCH  26  27
ATOM     27  C   UNL     1       0.285  -2.286   0.244  0.00  0.00    +0.057 C 
BRANCH  27  32
ATOM     28  C   UNL     1      -1.443   1.061   0.499  0.00  0.00    +0.000 A 
ATOM     29  C   UNL     1      -0.372   1.932   0.433  0.00  0.00    +0.003 A 
ATOM     30  C   UNL     1       0.913   1.440   0.306  0.00  0.00    +0.038 A 
ATOM     31  C   UNL     1       1.127   0.073   0.245  0.00  0.00    +0.127 A 
ATOM     32  C   UNL     1       0.054  -0.798   0.311  0.00  0.00    -0.011 A 
ATOM     33  C   UNL     1      -1.231  -0.303   0.438  0.00  0.00    +0.006 A 
ATOM     34  F   UNL     1       2.383  -0.409   0.120  0.00  0.00    -0.205 F 
ENDBRANCH  27  32
ENDBRANCH  26  27
ENDBRANCH  22  26
ENDBRANCH   1  23
TORSDOF 5
