REMARK  Name = ZINC02801489
REMARK  6 active torsions:
REMARK  status: ('A' for Active; 'I' for Inactive)
REMARK    1  A    between atoms: C_1  and  C_2
REMARK    2  A    between atoms: C_3  and  C_29
REMARK    3  A    between atoms: C_4  and  C_21
REMARK    4  A    between atoms: C_10  and  C_15
REMARK    5  A    between atoms: C_29  and  O_31
REMARK    6  A    between atoms: O_31  and  C_32
REMARK                            x       y       z     vdW  Elec       q    Type
REMARK                         _______ _______ _______ _____ _____    ______ ____
ROOT
ATOM      1  C   UNL     1      -1.072   3.057   3.163  0.00  0.00    +0.061 C 
ATOM      2  C   UNL     1      -0.300   2.600   1.951  0.00  0.00    +0.016 C 
ATOM      3  C   UNL     1      -0.749   1.562   1.226  0.00  0.00    +0.065 C 
ATOM      4  C   UNL     1      -0.013   1.086   0.008  0.00  0.00    +0.092 C 
ATOM      5  C   UNL     1       1.405   1.600  -0.003  0.00  0.00    +0.024 C 
ATOM      6  C   UNL     1       1.768   2.639   0.780  0.00  0.00    +0.016 C 
ATOM      7  N   UNL     1       0.852   3.245   1.597  0.00  0.00    -0.321 N 
ATOM      8  C   UNL     1       3.185   3.155   0.779  0.00  0.00    +0.059 C 
ATOM      9  C   UNL     1       3.810   2.938  -0.601  0.00  0.00    +0.032 C 
ATOM     10  C   UNL     1       3.761   1.441  -0.927  0.00  0.00    +0.088 C 
ATOM     11  C   UNL     1       2.334   0.971  -0.850  0.00  0.00    +0.162 C 
ATOM     12  O   UNL     1       1.978   0.030  -1.531  0.00  0.00    -0.292 OA
ATOM     13  H   UNL     1       1.050   4.261   1.970  0.00  0.00    +0.152 HD
ENDROOT
BRANCH   4  14
ATOM     14  C   UNL     1      -0.727   1.577  -1.225  0.00  0.00    -0.034 A 
ATOM     15  C   UNL     1      -0.879   2.935  -1.440  0.00  0.00    +0.006 A 
ATOM     16  C   UNL     1      -1.530   3.387  -2.572  0.00  0.00    +0.022 A 
ATOM     17  C   UNL     1      -2.038   2.482  -3.486  0.00  0.00    +0.059 A 
ATOM     18  C   UNL     1      -1.890   1.122  -3.268  0.00  0.00    +0.060 A 
ATOM     19  C   UNL     1      -1.234   0.671  -2.137  0.00  0.00    +0.026 A 
ATOM     20 CL   UNL     1      -2.527  -0.015  -4.414  0.00  0.00    -0.082 Cl
ATOM     21 CL   UNL     1      -2.861   3.049  -4.905  0.00  0.00    -0.082 Cl
ENDBRANCH   4  14
BRANCH   9  22
ATOM     22  C   UNL     1       5.243   3.406  -0.587  0.00  0.00    -0.044 A 
ATOM     23  C   UNL     1       6.149   2.834   0.286  0.00  0.00    +0.004 A 
ATOM     24  C   UNL     1       7.463   3.260   0.296  0.00  0.00    +0.000 A 
ATOM     25  C   UNL     1       7.870   4.266  -0.561  0.00  0.00    +0.000 A 
ATOM     26  C   UNL     1       6.963   4.841  -1.431  0.00  0.00    +0.000 A 
ATOM     27  C   UNL     1       5.649   4.412  -1.444  0.00  0.00    +0.004 A 
ENDBRANCH   9  22
BRANCH   3  28
ATOM     28  C   UNL     1      -1.939   0.905   1.617  0.00  0.00    +0.338 C 
ATOM     29  O   UNL     1      -2.546   1.281   2.602  0.00  0.00    -0.245 OA
BRANCH  28  30
ATOM     30  O   UNL     1      -2.402  -0.139   0.898  0.00  0.00    -0.458 OA
BRANCH  30  31
ATOM     31  C   UNL     1      -3.609  -0.755   1.351  0.00  0.00    +0.177 C 
ATOM     32  C   UNL     1      -3.271  -1.879   2.331  0.00  0.00    +0.044 C 
ATOM     33  C   UNL     1      -4.564  -2.539   2.816  0.00  0.00    +0.004 C 
ATOM     34  C   UNL     1      -5.322  -3.116   1.619  0.00  0.00    +0.000 C 
ATOM     35  C   UNL     1      -5.660  -1.992   0.639  0.00  0.00    +0.004 C 
ATOM     36  C   UNL     1      -4.367  -1.332   0.154  0.00  0.00    +0.044 C 
ENDBRANCH  30  31
ENDBRANCH  28  30
ENDBRANCH   3  28
TORSDOF 5
