REMARK  Name = ZINC36344440
REMARK  9 active torsions:
REMARK  status: ('A' for Active; 'I' for Inactive)
REMARK    1  A    between atoms: C_1  and  C_2
REMARK    2  A    between atoms: C_2  and  O_3
REMARK    3  A    between atoms: O_3  and  C_4
REMARK    4  A    between atoms: C_4  and  C_6
REMARK    5  A    between atoms: N_9  and  C_12
REMARK    6  A    between atoms: C_12  and  C_13
REMARK    7  A    between atoms: C_16  and  C_28
REMARK    8  A    between atoms: C_19  and  C_21
REMARK    9  A    between atoms: C_24  and  C_27
REMARK                            x       y       z     vdW  Elec       q    Type
REMARK                         _______ _______ _______ _____ _____    ______ ____
ROOT
ATOM      1  C   UNL     1      -5.976  -6.238   1.600  0.00  0.00    +0.219 C 
ATOM      2  O   UNL     1      -4.864  -6.721   1.600  0.00  0.00    -0.276 OA
ATOM      3  N   UNL     1      -7.057  -7.033   1.726  0.00  0.00    -0.187 N 
ATOM      4  C   UNL     1      -7.029  -8.497   1.875  0.00  0.00    +0.137 C 
ATOM      5  C   UNL     1      -8.520  -8.878   1.975  0.00  0.00    +0.087 C 
ATOM      6  C   UNL     1      -9.242  -7.554   1.868  0.00  0.00    +0.069 C 
ATOM      7  N   UNL     1      -8.382  -6.604   1.741  0.00  0.00    -0.181 NA
ENDROOT
BRANCH   4   8
ATOM      8  C   UNL     1      -6.393  -9.141   0.670  0.00  0.00    -0.021 A 
ATOM      9  C   UNL     1      -6.637  -8.634  -0.592  0.00  0.00    +0.009 A 
ATOM     10  C   UNL     1      -6.055  -9.221  -1.700  0.00  0.00    +0.050 A 
ATOM     11  C   UNL     1      -5.227 -10.321  -1.548  0.00  0.00    +0.166 A 
ATOM     12  C   UNL     1      -4.982 -10.832  -0.276  0.00  0.00    +0.167 A 
ATOM     13  C   UNL     1      -5.563 -10.235   0.831  0.00  0.00    +0.055 A 
ATOM     14  O   UNL     1      -4.144 -11.904  -0.390  0.00  0.00    -0.453 OA
ATOM     15  C   UNL     1      -4.205 -12.294  -1.775  0.00  0.00    +0.466 C 
ATOM     16  O   UNL     1      -4.543 -11.072  -2.459  0.00  0.00    -0.453 OA
ENDBRANCH   4   8
BRANCH   6  17
ATOM     17  C   UNL     1     -10.706  -7.378   1.909  0.00  0.00    -0.002 A 
ATOM     18  C   UNL     1     -11.542  -8.486   2.062  0.00  0.00    +0.010 A 
ATOM     19  C   UNL     1     -12.910  -8.314   2.099  0.00  0.00    +0.004 A 
ATOM     20  C   UNL     1     -13.454  -7.046   1.985  0.00  0.00    -0.050 A 
ATOM     21  C   UNL     1     -12.632  -5.944   1.833  0.00  0.00    +0.004 A 
ATOM     22  C   UNL     1     -11.262  -6.101   1.800  0.00  0.00    +0.010 A 
ATOM     23  C   UNL     1     -14.950  -6.866   2.027  0.00  0.00    +0.044 C 
ENDBRANCH   6  17
BRANCH   1  24
ATOM     24  C   UNL     1      -6.150  -4.747   1.460  0.00  0.00    +0.021 C 
BRANCH  24  28
ATOM     25  C   UNL     1      -2.881  -2.427   0.017  0.00  0.00    +0.094 C 
ATOM     26  C   UNL     1      -3.621  -1.980   1.281  0.00  0.00    -0.004 C 
ATOM     27  C   UNL     1      -4.996  -2.651   1.324  0.00  0.00    -0.077 C 
ATOM     28  N   UNL     1      -4.832  -4.110   1.340  0.00  0.00    +0.385 N 
ATOM     29  C   UNL     1      -4.188  -4.552   0.098  0.00  0.00    -0.077 C 
ATOM     30  C   UNL     1      -2.782  -3.955   0.007  0.00  0.00    -0.004 C 
ATOM     31  H   UNL     1      -4.260  -4.374   2.128  0.00  0.00    -0.081 HD
BRANCH  25  32
ATOM     32  C   UNL     1      -1.496  -1.832   0.006  0.00  0.00    +0.310 C 
ATOM     33  O   UNL     1      -0.528  -2.555  -0.007  0.00  0.00    -0.251 OA
BRANCH  32  34
ATOM     34  O   UNL     1      -1.339  -0.499   0.012  0.00  0.00    -0.465 OA
BRANCH  34  36
ATOM     35  C   UNL     1      -0.019   1.526   0.010  0.00  0.00    +0.048 C 
ATOM     36  C   UNL     1       0.002  -0.004   0.002  0.00  0.00    +0.229 C 
ENDBRANCH  34  36
ENDBRANCH  32  34
ENDBRANCH  25  32
ENDBRANCH  24  28
ENDBRANCH   1  24
TORSDOF 7
