REMARK  Name = ZINC63175290
REMARK  6 active torsions:
REMARK  status: ('A' for Active; 'I' for Inactive)
REMARK    1  A    between atoms: C_3  and  S_12
REMARK    2  A    between atoms: C_6  and  O_7
REMARK    3  A    between atoms: O_7  and  C_8
REMARK    4  A    between atoms: S_12  and  N_15
REMARK    5  A    between atoms: N_15  and  C_16
REMARK    6  A    between atoms: C_21  and  N_23
REMARK                            x       y       z     vdW  Elec       q    Type
REMARK                         _______ _______ _______ _____ _____    ______ ____
ROOT
ATOM      1  S   UNL     1       3.890   2.317  -0.023  0.00  0.00    +0.059 S 
ATOM      2  O   UNL     1       4.872   1.459  -0.588  0.00  0.00    -0.153 OA
ATOM      3  O   UNL     1       3.595   3.597  -0.565  0.00  0.00    -0.153 OA
ENDROOT
BRANCH   1   6
ATOM      4  C   UNL     1      -0.017   1.383   0.010  0.00  0.00    +0.048 A 
ATOM      5  C   UNL     1       1.171   2.089   0.002  0.00  0.00    +0.032 A 
ATOM      6  C   UNL     1       2.377   1.414  -0.013  0.00  0.00    +0.105 A 
ATOM      7  C   UNL     1       2.399   0.031  -0.021  0.00  0.00    +0.032 A 
ATOM      8  C   UNL     1       1.214  -0.679  -0.013  0.00  0.00    +0.048 A 
ATOM      9  C   UNL     1       0.002  -0.004   0.002  0.00  0.00    +0.130 A 
BRANCH   9  10
ATOM     10  O   UNL     1      -1.165  -0.701   0.010  0.00  0.00    -0.406 OA
BRANCH  10  11
ATOM     11  C   UNL     1      -1.069  -2.126   0.001  0.00  0.00    +0.575 C 
ATOM     12  F   UNL     1      -0.369  -2.554   1.134  0.00  0.00    -0.133 F 
ATOM     13  F   UNL     1      -2.354  -2.680   0.011  0.00  0.00    -0.133 F 
ATOM     14  F   UNL     1      -0.392  -2.542  -1.150  0.00  0.00    -0.133 F 
ENDBRANCH  10  11
ENDBRANCH   9  10
ENDBRANCH   1   6
BRANCH   1  15
ATOM     15  N   UNL     1       4.326   2.560   1.556  0.00  0.00    -0.188 NA
ATOM     16  H   UNL     1       4.354   3.459   1.918  0.00  0.00    +0.148 HD
BRANCH  15  17
ATOM     17  C   UNL     1       4.670   1.417   2.405  0.00  0.00    +0.062 C 
ATOM     18  C   UNL     1       3.447   0.997   3.247  0.00  0.00    +0.019 C 
ATOM     19  C   UNL     1       4.050   0.585   4.613  0.00  0.00    -0.000 C 
ATOM     20  C   UNL     1       5.184   1.621   4.813  0.00  0.00    -0.015 C 
ATOM     21  C   UNL     1       5.775   1.813   3.400  0.00  0.00    -0.056 C 
BRANCH  21  22
ATOM     22  N   UNL     1       6.153   3.218   3.199  0.00  0.00    +0.381 N 
ATOM     23  H   UNL     1       5.347   3.808   3.347  0.00  0.00    -0.090 HD
ATOM     24  H   UNL     1       6.877   3.469   3.856  0.00  0.00    -0.090 HD
ATOM     25  H   UNL     1       6.494   3.344   2.258  0.00  0.00    -0.090 HD
ENDBRANCH  21  22
ENDBRANCH  15  17
ENDBRANCH   1  15
TORSDOF 6
