REMARK  Name = ZINC34829761
REMARK  6 active torsions:
REMARK  status: ('A' for Active; 'I' for Inactive)
REMARK    1  A    between atoms: C_1  and  C_2
REMARK    2  A    between atoms: C_5  and  C_8
REMARK    3  A    between atoms: N_17  and  C_18
REMARK    4  A    between atoms: C_18  and  C_19
REMARK    5  A    between atoms: C_25  and  C_28
REMARK    6  A    between atoms: C_29  and  C_31
REMARK                            x       y       z     vdW  Elec       q    Type
REMARK                         _______ _______ _______ _____ _____    ______ ____
ROOT
ATOM      1  C   UNL     1      -3.678  -5.627   1.020  0.00  0.00    +0.199 C 
ATOM      2  O   UNL     1      -3.265  -6.452   1.806  0.00  0.00    -0.278 OA
ATOM      3  N   UNL     1      -4.913  -5.109   1.173  0.00  0.00    -0.300 N 
ATOM      4  C   UNL     1      -5.429  -4.112   0.224  0.00  0.00    +0.126 C 
ATOM      5  C   UNL     1      -5.861  -2.867   1.009  0.00  0.00    +0.127 C 
ATOM      6  N   UNL     1      -6.716  -3.290   2.127  0.00  0.00    -0.292 N 
ATOM      7  C   UNL     1      -6.200  -4.287   3.075  0.00  0.00    +0.091 C 
ATOM      8  C   UNL     1      -5.770  -5.536   2.288  0.00  0.00    +0.130 C 
ATOM      9  C   UNL     1      -5.000  -3.707   3.828  0.00  0.00    +0.029 C 
ATOM     10  C   UNL     1      -7.951  -2.772   2.280  0.00  0.00    +0.247 C 
ATOM     11  O   UNL     1      -8.340  -1.897   1.531  0.00  0.00    -0.270 OA
ENDROOT
BRANCH  10  12
ATOM     12  C   UNL     1      -8.831  -3.268   3.356  0.00  0.00    +0.041 A 
ATOM     13  C   UNL     1      -8.366  -3.320   4.673  0.00  0.00    +0.017 A 
ATOM     14  C   UNL     1      -9.189  -3.782   5.676  0.00  0.00    +0.050 A 
ATOM     15  C   UNL     1     -10.481  -4.198   5.384  0.00  0.00    +0.166 A 
ATOM     16  C   UNL     1     -10.951  -4.149   4.072  0.00  0.00    +0.167 A 
ATOM     17  C   UNL     1     -10.133  -3.681   3.062  0.00  0.00    +0.062 A 
ATOM     18  O   UNL     1     -12.237  -4.607   4.052  0.00  0.00    -0.453 OA
ATOM     19  C   UNL     1     -12.410  -5.319   5.292  0.00  0.00    +0.466 C 
ATOM     20  O   UNL     1     -11.473  -4.686   6.183  0.00  0.00    -0.453 OA
ENDBRANCH  10  12
BRANCH   1  21
ATOM     21  C   UNL     1      -2.810  -5.179  -0.128  0.00  0.00    +0.020 C 
BRANCH  21  30
ATOM     22  C   UNL     1      -0.639  -5.360  -1.121  0.00  0.00    -0.005 C 
ATOM     23  C   UNL     1       0.655  -6.167  -1.125  0.00  0.00    -0.047 A 
ATOM     24  C   UNL     1       1.847  -5.726  -1.694  0.00  0.00    +0.010 A 
ATOM     25  C   UNL     1       2.950  -6.510  -1.648  0.00  0.00    +0.045 A 
ATOM     26  S   UNL     1       2.344  -7.949  -0.777  0.00  0.00    -0.101 S 
ATOM     27  C   UNL     1       0.678  -7.400  -0.543  0.00  0.00    -0.010 A 
ATOM     28  C   UNL     1      -0.469  -8.087   0.123  0.00  0.00    +0.024 C 
ATOM     29  C   UNL     1      -1.750  -7.326  -0.257  0.00  0.00    -0.072 C 
ATOM     30  N   UNL     1      -1.523  -5.886  -0.074  0.00  0.00    +0.393 N 
ATOM     31  H   UNL     1      -1.098  -5.730   0.828  0.00  0.00    -0.080 HD
BRANCH  22  36
ATOM     32  C   UNL     1       0.542   0.194  -0.050  0.00  0.00    +0.044 C 
ATOM     33  C   UNL     1       0.234  -1.254  -0.329  0.00  0.00    -0.050 A 
ATOM     34  C   UNL     1       0.005  -1.674  -1.626  0.00  0.00    +0.003 A 
ATOM     35  C   UNL     1      -0.278  -3.003  -1.882  0.00  0.00    +0.002 A 
ATOM     36  C   UNL     1      -0.330  -3.912  -0.842  0.00  0.00    -0.057 A 
ATOM     37  C   UNL     1      -0.100  -3.492   0.455  0.00  0.00    +0.002 A 
ATOM     38  C   UNL     1       0.186  -2.164   0.711  0.00  0.00    +0.003 A 
ENDBRANCH  22  36
ENDBRANCH  21  30
ENDBRANCH   1  21
TORSDOF 4
