REMARK  Name = ZINC11582511
REMARK  16 active torsions:
REMARK  status: ('A' for Active; 'I' for Inactive)
REMARK    1  A    between atoms: C_1  and  C_2
REMARK    2  A    between atoms: C_6  and  C_41
REMARK    3  A    between atoms: C_8  and  O_11
REMARK    4  A    between atoms: O_11  and  C_12
REMARK    5  A    between atoms: C_12  and  C_14
REMARK    6  A    between atoms: C_14  and  N_15
REMARK    7  A    between atoms: N_17  and  C_24
REMARK    8  A    between atoms: C_24  and  C_25
REMARK    9  A    between atoms: C_25  and  O_27
REMARK   10  A    between atoms: O_27  and  C_28
REMARK   11  A    between atoms: C_31  and  C_40
REMARK   12  A    between atoms: C_35  and  C_37
REMARK   13  A    between atoms: C_37  and  C_38
REMARK   14  A    between atoms: C_37  and  C_39
REMARK   15  A    between atoms: C_41  and  C_42
REMARK   16  A    between atoms: C_41  and  C_43
REMARK                            x       y       z     vdW  Elec       q    Type
REMARK                         _______ _______ _______ _____ _____    ______ ____
ROOT
ATOM      1  N   UNL     1      -3.237   0.169   3.671  0.00  0.00    -0.321 N 
ATOM      2  C   UNL     1      -4.574   0.280   3.446  0.00  0.00    +0.178 A 
ATOM      3  N   UNL     1      -5.185  -0.803   3.830  0.00  0.00    -0.321 N 
ATOM      4  C   UNL     1      -4.280  -1.685   4.327  0.00  0.00    +0.067 A 
ATOM      5  C   UNL     1      -3.017  -1.076   4.227  0.00  0.00    +0.067 A 
ATOM      6  C   UNL     1      -1.889  -1.750   4.672  0.00  0.00    +0.028 A 
ATOM      7  C   UNL     1      -2.014  -3.019   5.198  0.00  0.00    +0.002 A 
ATOM      8  C   UNL     1      -3.260  -3.621   5.292  0.00  0.00    +0.002 A 
ATOM      9  C   UNL     1      -4.383  -2.970   4.864  0.00  0.00    +0.028 A 
ENDROOT
BRANCH   1  10
ATOM     10  C   UNL     1      -2.219   1.179   3.373  0.00  0.00    +0.243 C 
BRANCH  10  11
ATOM     11  C   UNL     1      -1.612   0.897   2.023  0.00  0.00    +0.327 C 
ATOM     12  O   UNL     1      -1.991  -0.051   1.377  0.00  0.00    -0.249 OA
BRANCH  11  13
ATOM     13  O   UNL     1      -0.650   1.698   1.540  0.00  0.00    -0.460 OA
BRANCH  13  19
ATOM     14  C   UNL     1      -0.434   0.215  -2.441  0.00  0.00    +0.007 C 
ATOM     15  C   UNL     1      -0.356   1.728  -2.227  0.00  0.00    -0.011 C 
ATOM     16  C   UNL     1       1.103   2.180  -2.307  0.00  0.00    +0.004 C 
ATOM     17  C   UNL     1       1.917   1.470  -1.223  0.00  0.00    +0.007 C 
ATOM     18  C   UNL     1       1.349   1.819   0.154  0.00  0.00    +0.032 C 
ATOM     19  C   UNL     1      -0.111   1.367   0.233  0.00  0.00    +0.180 C 
ATOM     20  C   UNL     1      -0.925   2.077  -0.850  0.00  0.00    +0.048 C 
BRANCH  18  21
ATOM     21  C   UNL     1       2.163   1.109   1.237  0.00  0.00    -0.011 C 
ATOM     22  C   UNL     1       2.172  -0.397   0.962  0.00  0.00    +0.007 C 
ATOM     23  C   UNL     1       3.598   1.638   1.226  0.00  0.00    +0.007 C 
ENDBRANCH  18  21
ENDBRANCH  13  19
ENDBRANCH  11  13
ENDBRANCH  10  11
ENDBRANCH   1  10
BRANCH   3  24
ATOM     24  C   UNL     1      -6.628  -1.036   3.738  0.00  0.00    +0.243 C 
BRANCH  24  25
ATOM     25  C   UNL     1      -7.279  -0.675   5.049  0.00  0.00    +0.327 C 
ATOM     26  O   UNL     1      -6.606  -0.266   5.965  0.00  0.00    -0.249 OA
BRANCH  25  27
ATOM     27  O   UNL     1      -8.606  -0.809   5.198  0.00  0.00    -0.460 OA
BRANCH  27  28
ATOM     28  C   UNL     1      -9.165  -0.443   6.488  0.00  0.00    +0.180 C 
ATOM     29  C   UNL     1      -9.172  -1.666   7.406  0.00  0.00    +0.048 C 
ATOM     30  C   UNL     1     -10.024  -2.771   6.777  0.00  0.00    -0.011 C 
ATOM     31  C   UNL     1     -11.455  -2.266   6.588  0.00  0.00    +0.004 C 
ATOM     32  C   UNL     1     -11.448  -1.043   5.669  0.00  0.00    +0.007 C 
ATOM     33  C   UNL     1     -10.597   0.062   6.298  0.00  0.00    +0.032 C 
ATOM     34  C   UNL     1     -10.031  -3.995   7.695  0.00  0.00    +0.007 C 
BRANCH  33  35
ATOM     35  C   UNL     1     -10.589   1.286   5.380  0.00  0.00    -0.011 C 
ATOM     36  C   UNL     1     -12.021   1.790   5.191  0.00  0.00    +0.007 C 
ATOM     37  C   UNL     1      -9.738   2.390   6.009  0.00  0.00    +0.007 C 
ENDBRANCH  33  35
ENDBRANCH  27  28
ENDBRANCH  25  27
ENDBRANCH  24  25
ENDBRANCH   3  24
TORSDOF 10
