REMARK  Name = ZINC08694507
REMARK  6 active torsions:
REMARK  status: ('A' for Active; 'I' for Inactive)
REMARK    1  A    between atoms: C_1  and  O_2
REMARK    2  A    between atoms: O_2  and  C_3
REMARK    3  A    between atoms: C_3  and  C_5
REMARK    4  A    between atoms: C_13  and  C_27
REMARK    5  A    between atoms: C_13  and  O_31
REMARK    6  A    between atoms: C_15  and  C_17
REMARK                            x       y       z     vdW  Elec       q    Type
REMARK                         _______ _______ _______ _____ _____    ______ ____
ROOT
ATOM      1  C   UNL     1       4.615  -5.966  -0.068  0.00  0.00    +0.112 C 
ATOM      2  C   UNL     1       4.665  -4.612  -0.033  0.00  0.00    +0.086 C 
ATOM      3  C   UNL     1       5.827  -3.690  -0.230  0.00  0.00    +0.276 C 
ATOM      4  O   UNL     1       6.947  -4.105  -0.465  0.00  0.00    -0.267 OA
ATOM      5  N   UNL     1       5.564  -2.408  -0.141  0.00  0.00    -0.152 NA
ATOM      6  C   UNL     1       4.350  -1.944   0.120  0.00  0.00    +0.176 C 
ATOM      7  S   UNL     1       3.362  -3.424   0.265  0.00  0.00    -0.050 S 
ATOM      8  N   UNL     1       3.950  -0.646   0.243  0.00  0.00    -0.162 N 
ATOM      9  C   UNL     1       4.820   0.534   0.112  0.00  0.00    +0.256 C 
ATOM     10  C   UNL     1       3.861   1.718   0.340  0.00  0.00    +0.124 C 
ATOM     11  C   UNL     1       2.521   1.061   0.581  0.00  0.00    +0.071 C 
ATOM     12  N   UNL     1       2.652  -0.220   0.517  0.00  0.00    -0.179 NA
ENDROOT
BRANCH  11  13
ATOM     13  C   UNL     1       1.260   1.774   0.854  0.00  0.00    -0.002 A 
ATOM     14  C   UNL     1       1.250   3.181   0.904  0.00  0.00    +0.010 A 
ATOM     15  C   UNL     1       0.102   3.859   1.154  0.00  0.00    +0.009 A 
ATOM     16  C   UNL     1      -1.099   3.158   1.366  0.00  0.00    -0.018 A 
ATOM     17  C   UNL     1      -2.300   3.839   1.626  0.00  0.00    +0.008 A 
ATOM     18  C   UNL     1      -3.447   3.134   1.827  0.00  0.00    +0.001 A 
ATOM     19  C   UNL     1      -3.451   1.741   1.780  0.00  0.00    +0.001 A 
ATOM     20  C   UNL     1      -2.308   1.046   1.530  0.00  0.00    +0.008 A 
ATOM     21  C   UNL     1      -1.104   1.741   1.312  0.00  0.00    -0.017 A 
ATOM     22  C   UNL     1       0.093   1.055   1.059  0.00  0.00    +0.018 A 
ENDBRANCH  11  13
BRANCH   9  23
ATOM     23  C   UNL     1       5.435   0.601  -1.288  0.00  0.00    +0.438 C 
ATOM     24  F   UNL     1       6.149   1.796  -1.427  0.00  0.00    -0.166 F 
ATOM     25  F   UNL     1       6.300  -0.484  -1.469  0.00  0.00    -0.166 F 
ATOM     26  F   UNL     1       4.417   0.551  -2.246  0.00  0.00    -0.166 F 
ENDBRANCH   9  23
BRANCH   1  27
ATOM     27  C   UNL     1       5.853  -6.743  -0.195  0.00  0.00    +0.333 C 
ATOM     28  O   UNL     1       6.928  -6.176  -0.203  0.00  0.00    -0.246 OA
BRANCH  27  30
ATOM     29  C   UNL     1       7.062  -8.790  -0.424  0.00  0.00    +0.280 C 
ATOM     30  O   UNL     1       5.798  -8.086  -0.302  0.00  0.00    -0.465 OA
ENDBRANCH  27  30
ENDBRANCH   1  27
BRANCH   9  31
ATOM     31  O   UNL     1       5.844   0.517   1.109  0.00  0.00    -0.363 OA
ATOM     32  H   UNL     1       6.476  -0.209   1.012  0.00  0.00    +0.212 HD
ENDBRANCH   9  31
TORSDOF 5
