REMARK  Name = ZINC49251952
REMARK  5 active torsions:
REMARK  status: ('A' for Active; 'I' for Inactive)
REMARK    1  A    between atoms: C_1  and  C_2
REMARK    2  A    between atoms: C_3  and  C_7
REMARK    3  A    between atoms: C_7  and  N_8
REMARK    4  A    between atoms: N_8  and  C_9
REMARK    5  A    between atoms: C_10  and  C_12
REMARK                            x       y       z     vdW  Elec       q    Type
REMARK                         _______ _______ _______ _____ _____    ______ ____
ROOT
ATOM      1  N   UNL     1      -3.034  -0.114  -1.128  0.00  0.00    -0.294 N 
ATOM      2  C   UNL     1      -3.764  -1.184  -1.811  0.00  0.00    +0.133 C 
ATOM      3  C   UNL     1      -3.087   1.147  -1.601  0.00  0.00    +0.286 C 
ATOM      4  O   UNL     1      -2.426   2.022  -1.075  0.00  0.00    -0.267 OA
ENDROOT
BRANCH   3   5
ATOM      5  C   UNL     1      -3.949   1.467  -2.758  0.00  0.00    +0.239 A 
ATOM      6  N   UNL     1      -4.809   0.646  -3.322  0.00  0.00    -0.145 NA
ATOM      7  N   UNL     1      -5.409   1.350  -4.379  0.00  0.00    -0.225 N 
ATOM      8  C   UNL     1      -4.856   2.583  -4.383  0.00  0.00    +0.364 A 
ATOM      9  O   UNL     1      -5.153   3.584  -5.245  0.00  0.00    -0.243 OA
ATOM     10  N   UNL     1      -3.986   2.644  -3.404  0.00  0.00    -0.166 NA
ATOM     11  H   UNL     1      -6.088   1.017  -4.987  0.00  0.00    +0.194 HD
ENDBRANCH   3   5
BRANCH   1  12
ATOM     12  C   UNL     1      -2.244  -0.414   0.070  0.00  0.00    +0.146 C 
BRANCH  12  15
ATOM     13  C   UNL     1       0.269   1.243  -0.767  0.00  0.00    +0.086 C 
ATOM     14  C   UNL     1       0.181  -0.260  -0.699  0.00  0.00    +0.106 A 
ATOM     15  C   UNL     1      -0.904  -0.969  -0.338  0.00  0.00    +0.010 A 
ATOM     16  C   UNL     1      -0.545  -2.334  -0.415  0.00  0.00    +0.046 A 
ATOM     17  C   UNL     1       0.737  -2.378  -0.817  0.00  0.00    +0.195 A 
ATOM     18  O   UNL     1       1.170  -1.119  -0.994  0.00  0.00    -0.468 OA
ENDBRANCH  12  15
ENDBRANCH   1  12
TORSDOF 3
