REMARK  Name = ZINC09849746
REMARK  8 active torsions:
REMARK  status: ('A' for Active; 'I' for Inactive)
REMARK    1  A    between atoms: C_2  and  C_15
REMARK    2  A    between atoms: C_4  and  C_11
REMARK    3  A    between atoms: C_6  and  C_7
REMARK    4  A    between atoms: N_17  and  N_18
REMARK    5  A    between atoms: C_19  and  C_21
REMARK    6  A    between atoms: C_21  and  C_22
REMARK    7  A    between atoms: C_22  and  C_23
REMARK    8  A    between atoms: N_25  and  C_26
REMARK                            x       y       z     vdW  Elec       q    Type
REMARK                         _______ _______ _______ _____ _____    ______ ____
ROOT
ATOM      1  N   UNL     1       4.848   4.222  -0.023  0.00  0.00    -0.234 N 
ATOM      2  C   UNL     1       4.833   5.569  -0.015  0.00  0.00    +0.230 C 
ATOM      3  O   UNL     1       3.776   6.164  -0.002  0.00  0.00    -0.274 OA
ATOM      4  H   UNL     1       5.693   3.746  -0.034  0.00  0.00    +0.173 HD
ENDROOT
BRANCH   1   7
ATOM      5  C   UNL     1       3.657   2.160  -0.022  0.00  0.00    +0.260 C 
ATOM      6  O   UNL     1       4.716   1.564  -0.036  0.00  0.00    -0.269 OA
ATOM      7  N   UNL     1       3.642   3.508  -0.015  0.00  0.00    -0.230 N 
ATOM      8  H   UNL     1       2.797   3.984  -0.004  0.00  0.00    +0.173 HD
BRANCH   5  10
ATOM      9  C   UNL     1       2.397   0.011  -0.021  0.00  0.00    +0.025 A 
ATOM     10  C   UNL     1       2.385   1.407  -0.013  0.00  0.00    +0.039 A 
ATOM     11  C   UNL     1       1.167   2.088   0.002  0.00  0.00    +0.025 A 
ATOM     12  C   UNL     1      -0.017   1.379   0.010  0.00  0.00    +0.056 A 
ATOM     13  C   UNL     1       0.002  -0.004   0.002  0.00  0.00    +0.024 A 
ATOM     14  C   UNL     1       1.206  -0.686  -0.013  0.00  0.00    +0.056 A 
BRANCH  14  15
ATOM     15  C   UNL     1       1.217  -2.193  -0.022  0.00  0.00    +0.417 C 
ATOM     16  F   UNL     1       1.208  -2.651  -1.343  0.00  0.00    -0.166 F 
ATOM     17  F   UNL     1       2.369  -2.654   0.624  0.00  0.00    -0.166 F 
ATOM     18  F   UNL     1       0.084  -2.671   0.646  0.00  0.00    -0.166 F 
ENDBRANCH  14  15
BRANCH  12  19
ATOM     19  C   UNL     1      -1.333   2.113   0.020  0.00  0.00    +0.417 C 
ATOM     20  F   UNL     1      -1.734   2.333   1.342  0.00  0.00    -0.166 F 
ATOM     21  F   UNL     1      -1.187   3.342  -0.634  0.00  0.00    -0.166 F 
ATOM     22  F   UNL     1      -2.300   1.347  -0.639  0.00  0.00    -0.166 F 
ENDBRANCH  12  19
ENDBRANCH   5  10
ENDBRANCH   1   7
BRANCH   2  23
ATOM     23  C   UNL     1       6.129   6.337  -0.024  0.00  0.00    +0.106 C 
BRANCH  23  24
ATOM     24  C   UNL     1       5.833   7.838  -0.013  0.00  0.00    +0.105 C 
BRANCH  24  25
ATOM     25  C   UNL     1       7.130   8.606  -0.022  0.00  0.00    +0.214 C 
ATOM     26  O   UNL     1       8.187   8.011  -0.036  0.00  0.00    -0.276 OA
ATOM     27  N   UNL     1       7.115   9.954  -0.015  0.00  0.00    -0.310 N 
ATOM     28  H   UNL     1       6.270  10.430  -0.004  0.00  0.00    +0.149 HD
BRANCH  27  29
ATOM     29  C   UNL     1       8.376  10.700  -0.023  0.00  0.00    +0.035 C 
ATOM     30  C   UNL     1       9.194  10.333   1.216  0.00  0.00    +0.029 C 
ATOM     31  C   UNL     1      10.511  11.113   1.207  0.00  0.00    -0.008 C 
ATOM     32  C   UNL     1      10.215  12.614   1.218  0.00  0.00    +0.007 C 
ATOM     33  C   UNL     1       9.396  12.981  -0.021  0.00  0.00    -0.008 C 
ATOM     34  C   UNL     1       8.079  12.201  -0.012  0.00  0.00    +0.029 C 
ATOM     35  C   UNL     1      10.190  12.627  -1.280  0.00  0.00    +0.007 C 
ATOM     36  C   UNL     1      10.486  11.126  -1.291  0.00  0.00    -0.008 C 
ATOM     37  C   UNL     1      11.305  10.759  -0.052  0.00  0.00    +0.007 C 
ATOM     38  C   UNL     1       9.169  10.346  -1.282  0.00  0.00    +0.029 C 
ENDBRANCH  27  29
ENDBRANCH  24  25
ENDBRANCH  23  24
ENDBRANCH   2  23
TORSDOF 8
