REMARK  Name = ZINC09222186
REMARK  5 active torsions:
REMARK  status: ('A' for Active; 'I' for Inactive)
REMARK    1  A    between atoms: C_1  and  C_2
REMARK    2  A    between atoms: C_15  and  C_17
REMARK    3  A    between atoms: C_17  and  C_19
REMARK    4  A    between atoms: C_17  and  N_60
REMARK    5  A    between atoms: C_22  and  C_25
REMARK                            x       y       z     vdW  Elec       q    Type
REMARK                         _______ _______ _______ _____ _____    ______ ____
ROOT
ATOM      1  C   UNL     1       0.002  -0.004   0.002  0.00  0.00    -0.004 C 
ATOM      2  C   UNL     1       0.821  -0.424   1.225  0.00  0.00    -0.005 C 
ENDROOT
BRANCH   1  16
ATOM      3  C   UNL     1      -9.655  -2.432   0.832  0.00  0.00    +0.008 C 
ATOM      4  C   UNL     1      -8.156  -2.197   1.033  0.00  0.00    -0.009 C 
ATOM      5  C   UNL     1      -7.364  -3.305   0.334  0.00  0.00    +0.008 C 
ATOM      6  C   UNL     1      -5.890  -3.221   0.732  0.00  0.00    +0.037 C 
ATOM      7  C   UNL     1      -5.393  -1.800   0.485  0.00  0.00    -0.023 A 
ATOM      8  C   UNL     1      -6.265  -0.778   0.353  0.00  0.00    -0.004 A 
ATOM      9  S   UNL     1      -5.256   0.655   0.085  0.00  0.00    -0.073 S 
ATOM     10  C   UNL     1      -3.663  -0.125   0.153  0.00  0.00    +0.116 A 
ATOM     11  C   UNL     1      -3.971  -1.476   0.381  0.00  0.00    +0.075 A 
ATOM     12  C   UNL     1      -2.847  -2.359   0.483  0.00  0.00    +0.260 A 
ATOM     13  O   UNL     1      -3.011  -3.551   0.679  0.00  0.00    -0.267 OA
ATOM     14  N   UNL     1      -1.607  -1.852   0.351  0.00  0.00    -0.312 N 
ATOM     15  H   UNL     1      -0.842  -2.445   0.415  0.00  0.00    +0.170 HD
ATOM     16  C   UNL     1      -1.405  -0.526   0.137  0.00  0.00    +0.097 A 
ATOM     17  N   UNL     1      -2.409   0.303   0.039  0.00  0.00    -0.228 NA
ATOM     18  C   UNL     1      -7.760  -0.846   0.419  0.00  0.00    +0.046 C 
ENDBRANCH   1  16
BRANCH   1  24
ATOM     19  C   UNL     1       1.264   1.985  -0.556  0.00  0.00    -0.077 C 
ATOM     20  C   UNL     1       1.153   3.495  -0.777  0.00  0.00    -0.009 C 
ATOM     21  C   UNL     1       0.753   4.171   0.537  0.00  0.00    +0.041 C 
ATOM     22  C   UNL     1      -0.570   3.574   1.027  0.00  0.00    -0.009 C 
ATOM     23  C   UNL     1      -0.409   2.062   1.196  0.00  0.00    -0.077 C 
ATOM     24  N   UNL     1      -0.047   1.468  -0.109  0.00  0.00    +0.386 N 
ATOM     25  H   UNL     1      -0.760   1.727  -0.801  0.00  0.00    -0.081 HD
BRANCH  21  26
ATOM     26  C   UNL     1       0.584   5.652   0.313  0.00  0.00    +0.082 A 
ATOM     27  N   UNL     1       1.223   6.634   0.884  0.00  0.00    -0.244 NA
ATOM     28  C   UNL     1       0.975   7.927   0.591  0.00  0.00    +0.078 A 
ATOM     29  C   UNL     1       1.577   9.091   1.119  0.00  0.00    +0.029 A 
ATOM     30  C   UNL     1       1.192  10.325   0.696  0.00  0.00    +0.002 A 
ATOM     31  C   UNL     1       0.202  10.490  -0.263  0.00  0.00    +0.001 A 
ATOM     32  C   UNL     1      -0.412   9.376  -0.804  0.00  0.00    +0.017 A 
ATOM     33  C   UNL     1      -0.030   8.125  -0.383  0.00  0.00    +0.039 A 
ATOM     34  S   UNL     1      -0.502   6.460  -0.774  0.00  0.00    -0.072 S 
ENDBRANCH  21  26
ENDBRANCH   1  24
TORSDOF 3
