REMARK  Name = ZINC33685126
REMARK  10 active torsions:
REMARK  status: ('A' for Active; 'I' for Inactive)
REMARK    1  A    between atoms: C_1  and  O_2
REMARK    2  A    between atoms: O_2  and  C_3
REMARK    3  A    between atoms: C_6  and  N_9
REMARK    4  A    between atoms: C_12  and  C_22
REMARK    5  A    between atoms: N_14  and  C_17
REMARK    6  A    between atoms: C_17  and  C_18
REMARK    7  A    between atoms: C_18  and  O_20
REMARK    8  A    between atoms: O_20  and  C_21
REMARK    9  A    between atoms: C_22  and  C_23
REMARK   10  A    between atoms: N_25  and  C_26
REMARK                            x       y       z     vdW  Elec       q    Type
REMARK                         _______ _______ _______ _____ _____    ______ ____
ROOT
ATOM      1  N   UNL     1      -4.767  -2.339   0.824  0.00  0.00    -0.220 N 
ATOM      2  C   UNL     1      -4.789  -3.675   0.653  0.00  0.00    +0.246 C 
ATOM      3  O   UNL     1      -3.849  -4.438   0.720  0.00  0.00    -0.273 OA
ATOM      4  C   UNL     1      -6.235  -4.027   0.361  0.00  0.00    +0.171 C 
ATOM      5  N   UNL     1      -6.923  -2.725   0.405  0.00  0.00    -0.289 N 
ATOM      6  C   UNL     1      -5.985  -1.803   0.686  0.00  0.00    +0.147 C 
ATOM      7  S   UNL     1      -6.312  -0.130   0.846  0.00  0.00    -0.018 S 
ENDROOT
BRANCH   1  11
ATOM      8  C   UNL     1      -1.325  -0.146   1.691  0.00  0.00    +0.120 A 
ATOM      9  C   UNL     1      -2.339  -0.246   2.633  0.00  0.00    +0.047 A 
ATOM     10  C   UNL     1      -3.478  -0.972   2.346  0.00  0.00    +0.027 A 
ATOM     11  C   UNL     1      -3.609  -1.601   1.115  0.00  0.00    +0.043 A 
ATOM     12  C   UNL     1      -2.594  -1.500   0.174  0.00  0.00    +0.027 A 
ATOM     13  C   UNL     1      -1.458  -0.770   0.459  0.00  0.00    +0.047 A 
BRANCH   8  15
ATOM     14  C   UNL     1      -0.134   1.184   3.262  0.00  0.00    +0.277 C 
ATOM     15  O   UNL     1      -0.203   0.568   1.974  0.00  0.00    -0.495 OA
ENDBRANCH   8  15
ENDBRANCH   1  11
BRANCH   5  16
ATOM     16  C   UNL     1      -8.352  -2.483   0.189  0.00  0.00    +0.228 C 
BRANCH  16  17
ATOM     17  C   UNL     1      -9.068  -2.488   1.515  0.00  0.00    +0.324 C 
ATOM     18  O   UNL     1      -8.449  -2.675   2.536  0.00  0.00    -0.249 OA
BRANCH  17  19
ATOM     19  O   UNL     1     -10.394  -2.284   1.562  0.00  0.00    -0.467 OA
ATOM     20  C   UNL     1     -11.008  -2.303   2.853  0.00  0.00    +0.280 C 
ENDBRANCH  17  19
ENDBRANCH  16  17
ENDBRANCH   5  16
BRANCH   4  21
ATOM     21  C   UNL     1      -6.787  -4.968   1.433  0.00  0.00    +0.128 C 
BRANCH  21  22
ATOM     22  C   UNL     1      -6.083  -6.298   1.345  0.00  0.00    +0.219 C 
ATOM     23  O   UNL     1      -5.295  -6.508   0.448  0.00  0.00    -0.275 OA
ATOM     24  N   UNL     1      -6.329  -7.252   2.264  0.00  0.00    -0.285 N 
ATOM     25  H   UNL     1      -7.007  -7.109   2.943  0.00  0.00    +0.155 HD
BRANCH  24  26
ATOM     26  C   UNL     1      -5.606  -8.451   2.239  0.00  0.00    +0.033 A 
ATOM     27  C   UNL     1      -5.263  -9.081   3.428  0.00  0.00    +0.024 A 
ATOM     28  C   UNL     1      -4.550 -10.264   3.400  0.00  0.00    +0.017 A 
ATOM     29  C   UNL     1      -4.178 -10.820   2.189  0.00  0.00    +0.018 A 
ATOM     30  C   UNL     1      -4.519 -10.194   1.003  0.00  0.00    +0.017 A 
ATOM     31  C   UNL     1      -5.236  -9.014   1.025  0.00  0.00    +0.024 A 
ATOM     32 BR   UNL     1      -3.202 -12.440   2.155  0.00  0.00    -0.050 Br
ENDBRANCH  24  26
ENDBRANCH  21  22
ENDBRANCH   4  21
TORSDOF 8
