REMARK  Name = ZINC24937672
REMARK  12 active torsions:
REMARK  status: ('A' for Active; 'I' for Inactive)
REMARK    1  A    between atoms: C_1  and  C_2
REMARK    2  A    between atoms: C_2  and  C_3
REMARK    3  A    between atoms: C_3  and  C_4
REMARK    4  A    between atoms: C_7  and  C_10
REMARK    5  A    between atoms: C_10  and  C_32
REMARK    6  A    between atoms: N_13  and  C_17
REMARK    7  A    between atoms: C_17  and  C_18
REMARK    8  A    between atoms: N_20  and  C_21
REMARK    9  A    between atoms: N_20  and  C_22
REMARK   10  A    between atoms: C_22  and  C_23
REMARK   11  A    between atoms: C_26  and  O_30
REMARK   12  A    between atoms: O_30  and  C_31
REMARK                            x       y       z     vdW  Elec       q    Type
REMARK                         _______ _______ _______ _____ _____    ______ ____
ROOT
ATOM      1  C   UNL     1       1.467  -0.394  -0.014  0.00  0.00    +0.135 C 
ATOM      2  C   UNL     1       0.002  -0.004   0.002  0.00  0.00    +0.251 C 
ATOM      3  O   UNL     1      -0.954  -0.749   0.008  0.00  0.00    -0.272 OA
ATOM      4  N   UNL     1      -0.016   1.343   0.009  0.00  0.00    -0.215 N 
ATOM      5  C   UNL     1       1.220   1.854   0.000  0.00  0.00    +0.310 C 
ATOM      6  O   UNL     1       1.460   3.045   0.004  0.00  0.00    -0.252 OA
ATOM      7  N   UNL     1       2.170   0.901  -0.014  0.00  0.00    -0.281 N 
ATOM      8  C   UNL     1       1.823  -1.200   1.237  0.00  0.00    +0.047 C 
ATOM      9  H   UNL     1       3.269   0.929  -0.024  0.00  0.00    +0.152 HD
ENDROOT
BRANCH   1  13
ATOM     10  C   UNL     1       2.394  -2.608  -3.548  0.00  0.00    -0.047 A 
ATOM     11  C   UNL     1       3.362  -1.823  -2.950  0.00  0.00    +0.004 A 
ATOM     12  C   UNL     1       3.062  -1.106  -1.806  0.00  0.00    +0.006 A 
ATOM     13  C   UNL     1       1.794  -1.175  -1.261  0.00  0.00    -0.015 A 
ATOM     14  C   UNL     1       0.828  -1.964  -1.856  0.00  0.00    +0.006 A 
ATOM     15  C   UNL     1       1.126  -2.676  -3.002  0.00  0.00    +0.004 A 
BRANCH  10  16
ATOM     16  C   UNL     1       2.722  -3.389  -4.794  0.00  0.00    +0.035 C 
BRANCH  16  18
ATOM     17  C   UNL     1       3.574  -5.568  -5.670  0.00  0.00    +0.004 C 
ATOM     18  C   UNL     1       3.242  -4.775  -4.405  0.00  0.00    +0.001 C 
ENDBRANCH  16  18
ENDBRANCH  10  16
ENDBRANCH   1  13
BRANCH   4  19
ATOM     19  C   UNL     1      -1.239   2.150   0.020  0.00  0.00    +0.213 C 
BRANCH  19  20
ATOM     20  C   UNL     1      -1.652   2.419   1.444  0.00  0.00    +0.234 C 
ATOM     21  O   UNL     1      -0.989   1.980   2.360  0.00  0.00    -0.274 OA
ATOM     22  N   UNL     1      -2.757   3.147   1.700  0.00  0.00    -0.299 N 
ATOM     23  C   UNL     1      -3.557   3.677   0.593  0.00  0.00    +0.132 C 
BRANCH  22  24
ATOM     24  C   UNL     1      -3.158   3.408   3.084  0.00  0.00    +0.142 C 
BRANCH  24  25
ATOM     25  C   UNL     1      -2.513   4.684   3.562  0.00  0.00    -0.027 A 
ATOM     26  C   UNL     1      -3.163   5.892   3.389  0.00  0.00    +0.009 A 
ATOM     27  C   UNL     1      -2.575   7.064   3.826  0.00  0.00    +0.049 A 
ATOM     28  C   UNL     1      -1.332   7.028   4.439  0.00  0.00    +0.155 A 
ATOM     29  C   UNL     1      -0.680   5.814   4.612  0.00  0.00    +0.165 A 
ATOM     30  C   UNL     1      -1.276   4.643   4.177  0.00  0.00    +0.047 A 
ATOM     31  F   UNL     1       0.532   5.775   5.208  0.00  0.00    -0.202 F 
BRANCH  28  32
ATOM     32  O   UNL     1      -0.752   8.180   4.870  0.00  0.00    -0.492 OA
ATOM     33  C   UNL     1      -1.480   9.391   4.659  0.00  0.00    +0.277 C 
ENDBRANCH  28  32
ENDBRANCH  24  25
ENDBRANCH  22  24
ENDBRANCH  19  20
ENDBRANCH   4  19
TORSDOF 8
