REMARK  Name = ZINC27303095
REMARK  11 active torsions:
REMARK  status: ('A' for Active; 'I' for Inactive)
REMARK    1  A    between atoms: C_1  and  C_2
REMARK    2  A    between atoms: C_2  and  C_3
REMARK    3  A    between atoms: C_3  and  C_4
REMARK    4  A    between atoms: C_4  and  C_5
REMARK    5  A    between atoms: C_8  and  C_11
REMARK    6  A    between atoms: N_13  and  C_14
REMARK    7  A    between atoms: N_13  and  S_20
REMARK    8  A    between atoms: C_14  and  C_15
REMARK    9  A    between atoms: S_20  and  C_23
REMARK   10  A    between atoms: N_35  and  C_36
REMARK   11  A    between atoms: C_36  and  C_37
REMARK                            x       y       z     vdW  Elec       q    Type
REMARK                         _______ _______ _______ _____ _____    ______ ____
ROOT
ATOM      1  C   UNL     1      -4.398   2.015   1.236  0.00  0.00    +0.238 C 
ATOM      2  O   UNL     1      -4.093   2.472   2.317  0.00  0.00    -0.274 OA
ATOM      3  N   UNL     1      -4.333   0.686   1.023  0.00  0.00    -0.164 N 
ENDROOT
BRANCH   1   7
ATOM      4  C   UNL     1      -3.803   5.483   1.124  0.00  0.00    -0.011 C 
ATOM      5  C   UNL     1      -5.022   4.816   1.764  0.00  0.00    +0.004 C 
ATOM      6  C   UNL     1      -5.775   4.008   0.705  0.00  0.00    +0.013 C 
ATOM      7  C   UNL     1      -4.850   2.934   0.130  0.00  0.00    +0.077 C 
ATOM      8  C   UNL     1      -3.631   3.601  -0.510  0.00  0.00    +0.013 C 
ATOM      9  C   UNL     1      -2.877   4.409   0.549  0.00  0.00    +0.004 C 
BRANCH   4  10
ATOM     10  C   UNL     1      -3.050   6.291   2.183  0.00  0.00    +0.003 C 
BRANCH  10  11
ATOM     11  C   UNL     1      -1.885   7.034   1.525  0.00  0.00    +0.000 C 
BRANCH  11  13
ATOM     12  C   UNL     1       0.071   8.533   1.935  0.00  0.00    +0.004 C 
ATOM     13  C   UNL     1      -1.094   7.790   2.593  0.00  0.00    -0.003 C 
ENDBRANCH  11  13
ENDBRANCH  10  11
ENDBRANCH   4  10
ENDBRANCH   1   7
BRANCH   3  14
ATOM     14  S   UNL     1      -4.539   0.081  -0.505  0.00  0.00    +0.078 S 
ATOM     15  O   UNL     1      -4.068  -1.259  -0.477  0.00  0.00    -0.150 OA
ATOM     16  O   UNL     1      -4.018   1.053  -1.400  0.00  0.00    -0.150 OA
BRANCH  14  17
ATOM     17  C   UNL     1      -6.274  -0.001  -0.803  0.00  0.00    +0.117 A 
ATOM     18  C   UNL     1      -6.898   0.948  -1.567  0.00  0.00    +0.031 A 
ATOM     19  C   UNL     1      -8.265   0.930  -1.841  0.00  0.00    +0.026 A 
ATOM     20  C   UNL     1      -9.060  -0.078  -1.327  0.00  0.00    +0.045 A 
ATOM     21  C   UNL     1      -8.412  -1.031  -0.548  0.00  0.00    +0.018 A 
ATOM     22  C   UNL     1      -7.048  -1.039  -0.258  0.00  0.00    +0.011 A 
ATOM     23  C   UNL     1      -6.568  -2.086   0.548  0.00  0.00    +0.010 A 
ATOM     24  C   UNL     1      -7.450  -3.030   1.001  0.00  0.00    +0.001 A 
ATOM     25  C   UNL     1      -8.812  -3.009   0.701  0.00  0.00    +0.014 A 
ATOM     26  C   UNL     1      -9.323  -1.995  -0.090  0.00  0.00    +0.047 A 
ATOM     27  C   UNL     1     -10.612  -1.567  -0.647  0.00  0.00    +0.251 C 
ATOM     28  O   UNL     1     -11.680  -2.128  -0.492  0.00  0.00    -0.270 OA
ATOM     29  N   UNL     1     -10.402  -0.433  -1.368  0.00  0.00    -0.267 N 
BRANCH  29  30
ATOM     30  C   UNL     1     -11.443   0.308  -2.084  0.00  0.00    +0.110 C 
ATOM     31  C   UNL     1     -11.560  -0.228  -3.512  0.00  0.00    +0.025 C 
ENDBRANCH  29  30
ENDBRANCH  14  17
ENDBRANCH   3  14
BRANCH   3  32
ATOM     32  C   UNL     1      -4.080  -0.223   2.143  0.00  0.00    +0.208 C 
BRANCH  32  33
ATOM     33  C   UNL     1      -2.594  -0.389   2.330  0.00  0.00    +0.124 A 
ATOM     34  C   UNL     1      -1.810   0.373   3.114  0.00  0.00    +0.046 A 
ATOM     35  C   UNL     1      -0.495  -0.131   2.991  0.00  0.00    +0.041 A 
ATOM     36  C   UNL     1      -0.553  -1.170   2.139  0.00  0.00    +0.195 A 
ATOM     37  O   UNL     1      -1.828  -1.325   1.747  0.00  0.00    -0.466 OA
ENDBRANCH  32  33
ENDBRANCH   3  32
TORSDOF 9
