REMARK  Name = ZINC39711215
REMARK  12 active torsions:
REMARK  status: ('A' for Active; 'I' for Inactive)
REMARK    1  A    between atoms: C_1  and  C_2
REMARK    2  A    between atoms: C_6  and  C_15
REMARK    3  A    between atoms: C_13  and  C_14
REMARK    4  A    between atoms: C_15  and  C_17
REMARK    5  A    between atoms: C_15  and  N_26
REMARK    6  A    between atoms: N_21  and  C_22
REMARK    7  A    between atoms: C_22  and  C_23
REMARK    8  A    between atoms: C_23  and  O_24
REMARK    9  A    between atoms: O_24  and  C_25
REMARK   10  A    between atoms: N_29  and  C_32
REMARK   11  A    between atoms: C_37  and  O_38
REMARK   12  A    between atoms: O_38  and  C_39
REMARK                            x       y       z     vdW  Elec       q    Type
REMARK                         _______ _______ _______ _____ _____    ______ ____
ROOT
ATOM      1  C   UNL     1      -1.181  -4.887  -2.984  0.00  0.00    +0.142 C 
ENDROOT
BRANCH   1   7
ATOM      2  C   UNL     1      -3.347   1.179   0.104  0.00  0.00    +0.044 C 
ATOM      3  C   UNL     1      -2.670  -0.168   0.110  0.00  0.00    -0.047 A 
ATOM      4  C   UNL     1      -2.215  -0.688  -1.059  0.00  0.00    +0.013 A 
ATOM      5  C   UNL     1      -1.560  -1.996  -1.041  0.00  0.00    -0.007 A 
ATOM      6  C   UNL     1      -1.087  -2.558  -2.190  0.00  0.00    -0.003 C 
ATOM      7  C   UNL     1      -0.422  -3.916  -2.078  0.00  0.00    +0.123 C 
ATOM      8  C   UNL     1      -0.337  -4.536  -0.702  0.00  0.00    +0.226 C 
ATOM      9  O   UNL     1       0.187  -5.624  -0.554  0.00  0.00    -0.275 OA
ATOM     10  N   UNL     1      -0.834  -3.892   0.340  0.00  0.00    -0.284 N 
ATOM     11  C   UNL     1      -1.420  -2.698   0.246  0.00  0.00    +0.041 A 
ATOM     12  C   UNL     1      -1.926  -2.071   1.399  0.00  0.00    +0.027 A 
ATOM     13  C   UNL     1      -2.520  -0.852   1.317  0.00  0.00    -0.046 A 
ATOM     14  C   UNL     1      -3.042  -0.214   2.579  0.00  0.00    +0.044 C 
ATOM     15  H   UNL     1      -0.770  -4.308   1.214  0.00  0.00    +0.155 HD
ENDBRANCH   1   7
BRANCH   1  16
ATOM     16  N   UNL     1      -0.516  -6.196  -2.965  0.00  0.00    -0.289 NA
ATOM     17  C   UNL     1       0.864  -6.094  -3.458  0.00  0.00    +0.104 C 
ATOM     18  C   UNL     1       1.577  -7.434  -3.254  0.00  0.00    +0.120 C 
ATOM     19  N   UNL     1       0.770  -8.493  -3.878  0.00  0.00    -0.325 N 
ATOM     20  C   UNL     1      -0.658  -8.573  -3.536  0.00  0.00    +0.120 C 
ATOM     21  C   UNL     1      -1.284  -7.188  -3.730  0.00  0.00    +0.104 C 
BRANCH  19  22
ATOM     22  C   UNL     1       1.346  -9.401  -4.775  0.00  0.00    +0.072 A 
ATOM     23  C   UNL     1       1.887 -10.591  -4.309  0.00  0.00    +0.027 A 
ATOM     24  C   UNL     1       2.454 -11.486  -5.196  0.00  0.00    +0.002 A 
ATOM     25  C   UNL     1       2.485 -11.199  -6.548  0.00  0.00    +0.004 A 
ATOM     26  C   UNL     1       1.948 -10.015  -7.020  0.00  0.00    +0.047 A 
ATOM     27  C   UNL     1       1.373  -9.115  -6.138  0.00  0.00    +0.141 A 
BRANCH  27  28
ATOM     28  O   UNL     1       0.840  -7.953  -6.601  0.00  0.00    -0.493 OA
ATOM     29  C   UNL     1       0.903  -7.726  -8.011  0.00  0.00    +0.277 C 
ENDBRANCH  27  28
ENDBRANCH  19  22
ENDBRANCH   1  16
BRANCH   1  30
ATOM     30  C   UNL     1      -1.196  -4.352  -4.393  0.00  0.00    +0.170 A 
ATOM     31  N   UNL     1      -0.154  -4.132  -5.158  0.00  0.00    -0.112 NA
ATOM     32  N   UNL     1      -0.577  -3.676  -6.286  0.00  0.00    -0.023 NA
ATOM     33  N   UNL     1      -1.862  -3.600  -6.261  0.00  0.00    -0.044 NA
ATOM     34  N   UNL     1      -2.281  -4.013  -5.113  0.00  0.00    -0.225 N 
BRANCH  34  35
ATOM     35  C   UNL     1      -3.677  -4.093  -4.673  0.00  0.00    +0.175 C 
BRANCH  35  36
ATOM     36  C   UNL     1      -4.119  -2.734  -4.128  0.00  0.00    +0.183 C 
BRANCH  36  37
ATOM     37  O   UNL     1      -5.511  -2.780  -3.807  0.00  0.00    -0.381 OA
ATOM     38  C   UNL     1      -6.028  -1.554  -3.286  0.00  0.00    +0.194 C 
ENDBRANCH  36  37
ENDBRANCH  35  36
ENDBRANCH  34  35
ENDBRANCH   1  30
TORSDOF 8
