REMARK  Name = ZINC35778508
REMARK  15 active torsions:
REMARK  status: ('A' for Active; 'I' for Inactive)
REMARK    1  A    between atoms: C_1  and  C_2
REMARK    2  A    between atoms: C_2  and  C_3
REMARK    3  A    between atoms: C_2  and  C_33
REMARK    4  A    between atoms: C_2  and  O_35
REMARK    5  A    between atoms: C_3  and  N_4
REMARK    6  A    between atoms: N_4  and  C_5
REMARK    7  A    between atoms: N_4  and  C_11
REMARK    8  A    between atoms: C_5  and  C_6
REMARK    9  A    between atoms: C_11  and  C_12
REMARK   10  A    between atoms: C_13  and  C_27
REMARK   11  A    between atoms: N_15  and  C_26
REMARK   12  A    between atoms: C_16  and  O_17
REMARK   13  A    between atoms: O_17  and  C_18
REMARK   14  A    between atoms: C_21  and  O_24
REMARK   15  A    between atoms: O_24  and  C_25
REMARK                            x       y       z     vdW  Elec       q    Type
REMARK                         _______ _______ _______ _____ _____    ______ ____
ROOT
ATOM      1  C   UNL     1       2.269   1.791  -1.116  0.00  0.00    +0.025 A 
ATOM      2  C   UNL     1       2.624   1.590  -2.463  0.00  0.00    +0.098 A 
ATOM      3  N   UNL     1       1.873   2.376  -3.206  0.00  0.00    -0.168 NA
ATOM      4  N   UNL     1       1.022   3.097  -2.360  0.00  0.00    -0.235 N 
ATOM      5  C   UNL     1       1.278   2.718  -1.082  0.00  0.00    +0.221 A 
ATOM      6  C   UNL     1       0.024   4.084  -2.782  0.00  0.00    +0.176 C 
ENDROOT
BRANCH   2   7
ATOM      7  C   UNL     1       3.664   0.655  -2.960  0.00  0.00    +0.002 A 
ATOM      8  C   UNL     1       4.938   0.662  -2.394  0.00  0.00    +0.010 A 
ATOM      9  C   UNL     1       5.902  -0.209  -2.860  0.00  0.00    +0.001 A 
ATOM     10  C   UNL     1       5.606  -1.088  -3.886  0.00  0.00    +0.000 A 
ATOM     11  C   UNL     1       4.343  -1.098  -4.452  0.00  0.00    +0.001 A 
ATOM     12  C   UNL     1       3.370  -0.236  -3.990  0.00  0.00    +0.010 A 
ENDBRANCH   2   7
BRANCH   1  13
ATOM     13  C   UNL     1       2.876   1.095   0.075  0.00  0.00    -0.035 C 
BRANCH  13  14
ATOM     14  N   UNL     1       2.241  -0.218   0.251  0.00  0.00    +0.389 N 
ATOM     15  H   UNL     1       2.280  -0.729  -0.618  0.00  0.00    -0.081 HD
BRANCH  14  16
ATOM     16  C   UNL     1       0.840  -0.035   0.651  0.00  0.00    -0.039 C 
BRANCH  16  18
ATOM     17  C   UNL     1       0.323  -2.084  -0.681  0.00  0.00    +0.044 C 
ATOM     18  C   UNL     1       0.134  -1.392   0.670  0.00  0.00    +0.067 C 
BRANCH  18  19
ATOM     19  C   UNL     1      -1.337  -1.190   0.929  0.00  0.00    -0.003 C 
ATOM     20  C   UNL     1      -1.897  -1.733   1.982  0.00  0.00    +0.006 C 
ENDBRANCH  18  19
BRANCH  18  21
ATOM     21  O   UNL     1       0.692  -2.205   1.704  0.00  0.00    -0.387 OA
ATOM     22  H   UNL     1       0.560  -1.854   2.595  0.00  0.00    +0.210 HD
ENDBRANCH  18  21
ENDBRANCH  16  18
ENDBRANCH  14  16
BRANCH  14  23
ATOM     23  C   UNL     1       2.953  -0.970   1.293  0.00  0.00    -0.003 C 
BRANCH  23  24
ATOM     24  C   UNL     1       3.444  -2.276   0.724  0.00  0.00    +0.089 A 
ATOM     25  C   UNL     1       4.610  -2.464   0.080  0.00  0.00    +0.042 A 
ATOM     26  C   UNL     1       4.663  -3.830  -0.280  0.00  0.00    +0.041 A 
ATOM     27  C   UNL     1       3.526  -4.395   0.166  0.00  0.00    +0.195 A 
ATOM     28  O   UNL     1       2.795  -3.450   0.778  0.00  0.00    -0.470 OA
ENDBRANCH  23  24
ENDBRANCH  14  23
ENDBRANCH  13  14
ENDBRANCH   1  13
BRANCH   5  29
ATOM     29  O   UNL     1       0.657   3.185   0.031  0.00  0.00    -0.438 OA
BRANCH  29  30
ATOM     30  C   UNL     1       1.166   4.295   0.629  0.00  0.00    +0.131 A 
ATOM     31  C   UNL     1       2.347   4.854   0.162  0.00  0.00    +0.050 A 
ATOM     32  C   UNL     1       2.865   5.981   0.769  0.00  0.00    +0.049 A 
ATOM     33  C   UNL     1       2.204   6.555   1.845  0.00  0.00    +0.120 A 
ATOM     34  C   UNL     1       1.023   5.996   2.312  0.00  0.00    +0.049 A 
ATOM     35  C   UNL     1       0.502   4.872   1.701  0.00  0.00    +0.050 A 
BRANCH  33  36
ATOM     36  O   UNL     1       2.714   7.664   2.443  0.00  0.00    -0.495 OA
ATOM     37  C   UNL     1       1.981   8.202   3.546  0.00  0.00    +0.277 C 
ENDBRANCH  33  36
ENDBRANCH  29  30
ENDBRANCH   5  29
TORSDOF 12
