REMARK  Name = ZINC20575662
REMARK  6 active torsions:
REMARK  status: ('A' for Active; 'I' for Inactive)
REMARK    1  A    between atoms: C_4  and  C_7
REMARK    2  A    between atoms: C_7  and  N_8
REMARK    3  A    between atoms: C_17  and  N_18
REMARK    4  A    between atoms: N_18  and  C_19
REMARK    5  A    between atoms: C_22  and  O_25
REMARK    6  A    between atoms: O_25  and  C_26
REMARK                            x       y       z     vdW  Elec       q    Type
REMARK                         _______ _______ _______ _____ _____    ______ ____
ROOT
ATOM      1  N   UNL     1      -4.321  -1.984  -1.179  0.00  0.00    -0.197 N 
ATOM      2  C   UNL     1      -4.471  -3.360  -0.891  0.00  0.00    +0.070 A 
ATOM      3  C   UNL     1      -5.671  -4.052  -0.957  0.00  0.00    +0.033 A 
ATOM      4  C   UNL     1      -5.705  -5.373  -0.653  0.00  0.00    +0.048 A 
ATOM      5  S   UNL     1      -4.056  -5.737  -0.255  0.00  0.00    -0.091 S 
ATOM      6  C   UNL     1      -3.366  -4.124  -0.505  0.00  0.00    +0.083 A 
ATOM      7  C   UNL     1      -1.994  -3.685  -0.353  0.00  0.00    +0.222 C 
ATOM      8  O   UNL     1      -1.087  -4.495  -0.252  0.00  0.00    -0.285 OA
ATOM      9  C   UNL     1      -1.729  -2.281  -0.322  0.00  0.00    +0.170 C 
ATOM     10  C   UNL     1      -0.466  -1.815  -0.246  0.00  0.00    +0.105 C 
ATOM     11  S   UNL     1      -3.105  -1.172  -0.379  0.00  0.00    +0.080 S 
ATOM     12  O   UNL     1      -3.541  -0.992   0.961  0.00  0.00    -0.150 OA
ATOM     13  O   UNL     1      -2.722  -0.088  -1.214  0.00  0.00    -0.150 OA
ENDROOT
BRANCH  10  14
ATOM     14  N   UNL     1      -0.235  -0.465  -0.218  0.00  0.00    -0.319 N 
ATOM     15  H   UNL     1      -1.079   0.238  -0.258  0.00  0.00    +0.152 HD
BRANCH  14  16
ATOM     16  C   UNL     1       1.076   0.018  -0.140  0.00  0.00    +0.031 A 
ATOM     17  C   UNL     1       1.311   1.387  -0.111  0.00  0.00    +0.027 A 
ATOM     18  C   UNL     1       2.604   1.863  -0.033  0.00  0.00    +0.048 A 
ATOM     19  C   UNL     1       3.669   0.975   0.016  0.00  0.00    +0.129 A 
ATOM     20  C   UNL     1       3.435  -0.392  -0.011  0.00  0.00    +0.048 A 
ATOM     21  C   UNL     1       2.142  -0.870  -0.089  0.00  0.00    +0.027 A 
BRANCH  19  22
ATOM     22  O   UNL     1       4.943   1.445   0.092  0.00  0.00    -0.456 OA
BRANCH  22  23
ATOM     23  C   UNL     1       5.131   2.789   0.039  0.00  0.00    +0.128 A 
ATOM     24  C   UNL     1       5.563   3.385  -1.138  0.00  0.00    +0.046 A 
ATOM     25  C   UNL     1       5.749   4.752  -1.191  0.00  0.00    +0.004 A 
ATOM     26  C   UNL     1       5.514   5.527  -0.070  0.00  0.00    +0.000 A 
ATOM     27  C   UNL     1       5.089   4.936   1.106  0.00  0.00    +0.004 A 
ATOM     28  C   UNL     1       4.897   3.569   1.163  0.00  0.00    +0.046 A 
ENDBRANCH  22  23
ENDBRANCH  19  22
ENDBRANCH  14  16
ENDBRANCH  10  14
BRANCH   1  29
ATOM     29  C   UNL     1      -5.198  -1.303  -2.135  0.00  0.00    +0.166 C 
BRANCH  29  33
ATOM     30  C   UNL     1      -3.716  -1.888  -6.098  0.00  0.00    +0.000 A 
ATOM     31  C   UNL     1      -4.538  -2.837  -5.520  0.00  0.00    +0.000 A 
ATOM     32  C   UNL     1      -5.018  -2.648  -4.238  0.00  0.00    +0.005 A 
ATOM     33  C   UNL     1      -4.675  -1.510  -3.533  0.00  0.00    -0.028 A 
ATOM     34  C   UNL     1      -3.857  -0.558  -4.112  0.00  0.00    +0.005 A 
ATOM     35  C   UNL     1      -3.374  -0.750  -5.393  0.00  0.00    +0.000 A 
ENDBRANCH  29  33
ENDBRANCH   1  29
TORSDOF 6
