REMARK  Name = ZINC40721901
REMARK  12 active torsions:
REMARK  status: ('A' for Active; 'I' for Inactive)
REMARK    1  A    between atoms: C_1  and  O_2
REMARK    2  A    between atoms: O_2  and  C_3
REMARK    3  A    between atoms: C_7  and  C_18
REMARK    4  A    between atoms: C_8  and  O_9
REMARK    5  A    between atoms: O_9  and  C_10
REMARK    6  A    between atoms: C_10  and  C_11
REMARK    7  A    between atoms: C_18  and  N_19
REMARK    8  A    between atoms: N_19  and  C_20
REMARK    9  A    between atoms: C_20  and  C_21
REMARK   10  A    between atoms: C_21  and  S_22
REMARK   11  A    between atoms: S_22  and  C_23
REMARK   12  A    between atoms: N_27  and  C_28
REMARK                            x       y       z     vdW  Elec       q    Type
REMARK                         _______ _______ _______ _____ _____    ______ ____
ROOT
ATOM      1  C   UNL     1       1.292  -4.106  -2.290  0.00  0.00    -0.043 C 
ENDROOT
BRANCH   1   6
ATOM      2  C   UNL     1       0.661  -0.598  -1.016  0.00  0.00    +0.162 A 
ATOM      3  C   UNL     1       1.192   0.164  -2.044  0.00  0.00    +0.049 A 
ATOM      4  C   UNL     1       1.752  -0.457  -3.145  0.00  0.00    +0.004 A 
ATOM      5  C   UNL     1       1.784  -1.837  -3.224  0.00  0.00    +0.005 A 
ATOM      6  C   UNL     1       1.256  -2.602  -2.201  0.00  0.00    -0.019 A 
ATOM      7  C   UNL     1       0.698  -1.987  -1.092  0.00  0.00    +0.164 A 
BRANCH   2   9
ATOM      8  C   UNL     1       0.106   1.440   0.078  0.00  0.00    +0.277 C 
ATOM      9  O   UNL     1       0.110   0.011   0.069  0.00  0.00    -0.491 OA
ENDBRANCH   2   9
BRANCH   7  10
ATOM     10  O   UNL     1       0.183  -2.739  -0.082  0.00  0.00    -0.484 OA
BRANCH  10  11
ATOM     11  C   UNL     1       1.036  -2.995   1.036  0.00  0.00    +0.264 C 
BRANCH  11  12
ATOM     12  C   UNL     1       0.344  -3.933   1.990  0.00  0.00    -0.009 A 
ATOM     13  C   UNL     1      -0.452  -3.427   3.002  0.00  0.00    +0.007 A 
ATOM     14  C   UNL     1      -1.087  -4.287   3.878  0.00  0.00    +0.002 A 
ATOM     15  C   UNL     1      -0.926  -5.654   3.744  0.00  0.00    +0.020 A 
ATOM     16  C   UNL     1      -0.131  -6.161   2.732  0.00  0.00    +0.041 A 
ATOM     17  C   UNL     1       0.500  -5.300   1.852  0.00  0.00    +0.027 A 
ATOM     18 CL   UNL     1       0.071  -7.877   2.563  0.00  0.00    -0.084 Cl
ENDBRANCH  11  12
ENDBRANCH  10  11
ENDBRANCH   7  10
ENDBRANCH   1   6
BRANCH   1  19
ATOM     19  N   UNL     1      -0.039  -4.607  -2.661  0.00  0.00    +0.382 N 
ATOM     20  H   UNL     1      -0.695  -4.396  -1.924  0.00  0.00    -0.085 HD
ATOM     21  H   UNL     1      -0.339  -4.162  -3.515  0.00  0.00    -0.085 HD
BRANCH  19  22
ATOM     22  C   UNL     1       0.023  -6.061  -2.860  0.00  0.00    -0.071 C 
BRANCH  22  23
ATOM     23  C   UNL     1      -1.362  -6.582  -3.246  0.00  0.00    +0.058 C 
BRANCH  23  24
ATOM     24  S   UNL     1      -1.286  -8.378  -3.492  0.00  0.00    -0.086 S 
BRANCH  24  25
ATOM     25  C   UNL     1      -2.936  -8.819  -3.926  0.00  0.00    +0.214 A 
ATOM     26  N   UNL     1      -3.960  -8.001  -4.041  0.00  0.00    -0.101 NA
ATOM     27  N   UNL     1      -5.018  -8.649  -4.371  0.00  0.00    -0.022 NA
ATOM     28  N   UNL     1      -4.757  -9.906  -4.490  0.00  0.00    -0.038 NA
ATOM     29  N   UNL     1      -3.389 -10.066  -4.210  0.00  0.00    -0.187 N 
BRANCH  29  30
ATOM     30  C   UNL     1      -2.651 -11.259  -4.220  0.00  0.00    +0.070 A 
ATOM     31  C   UNL     1      -1.325 -11.253  -4.631  0.00  0.00    +0.028 A 
ATOM     32  C   UNL     1      -0.602 -12.430  -4.639  0.00  0.00    +0.002 A 
ATOM     33  C   UNL     1      -1.196 -13.612  -4.239  0.00  0.00    +0.000 A 
ATOM     34  C   UNL     1      -2.517 -13.621  -3.829  0.00  0.00    +0.002 A 
ATOM     35  C   UNL     1      -3.244 -12.447  -3.813  0.00  0.00    +0.028 A 
ENDBRANCH  29  30
ENDBRANCH  24  25
ENDBRANCH  23  24
ENDBRANCH  22  23
ENDBRANCH  19  22
ENDBRANCH   1  19
TORSDOF 11
