REMARK  Name = ZINC39690770
REMARK  4 active torsions:
REMARK  status: ('A' for Active; 'I' for Inactive)
REMARK    1  A    between atoms: C_9  and  C_11
REMARK    2  A    between atoms: C_15  and  C_24
REMARK    3  A    between atoms: N_26  and  C_27
REMARK    4  A    between atoms: C_27  and  C_28
REMARK                            x       y       z     vdW  Elec       q    Type
REMARK                         _______ _______ _______ _____ _____    ______ ____
ROOT
ATOM      1  C   UNL     1       5.003  -2.548  -0.059  0.00  0.00    +0.265 C 
ATOM      2  O   UNL     1       5.081  -3.757   0.035  0.00  0.00    -0.268 OA
ATOM      3  N   UNL     1       6.123  -1.806  -0.169  0.00  0.00    -0.295 N 
ATOM      4  C   UNL     1       6.237  -0.329  -0.172  0.00  0.00    +0.121 C 
ATOM      5  C   UNL     1       7.510  -0.034   0.652  0.00  0.00    +0.100 C 
ATOM      6  C   UNL     1       8.348  -1.320   0.554  0.00  0.00    -0.004 C 
ATOM      7  C   UNL     1       7.519  -2.285  -0.306  0.00  0.00    +0.115 C 
ATOM      8  C   UNL     1       8.566  -1.916   1.942  0.00  0.00    -0.010 C 
ATOM      9  C   UNL     1       9.448  -3.161   1.825  0.00  0.00    -0.082 C 
ATOM     10  N   UNL     1      10.735  -2.796   1.219  0.00  0.00    +0.379 N 
ATOM     11  C   UNL     1      10.524  -2.311  -0.150  0.00  0.00    -0.082 C 
ATOM     12  C   UNL     1       9.687  -1.030  -0.116  0.00  0.00    -0.010 C 
ATOM     13  H   UNL     1      11.170  -2.071   1.769  0.00  0.00    -0.086 HD
ATOM     14  H   UNL     1      11.337  -3.606   1.199  0.00  0.00    -0.086 HD
ENDROOT
BRANCH   1  23
ATOM     15  C   UNL     1      -0.019   1.360  -0.037  0.00  0.00    +0.001 A 
ATOM     16  C   UNL     1       1.167   2.093  -0.048  0.00  0.00    +0.002 A 
ATOM     17  C   UNL     1       2.376   1.471  -0.054  0.00  0.00    +0.028 A 
ATOM     18  C   UNL     1       2.438   0.064  -0.050  0.00  0.00    +0.072 A 
ATOM     19  C   UNL     1       1.229  -0.679  -0.038  0.00  0.00    +0.000 A 
ATOM     20  C   UNL     1      -0.001  -0.001  -0.032  0.00  0.00    +0.010 A 
ATOM     21  C   UNL     1       1.288  -2.085  -0.033  0.00  0.00    +0.012 A 
ATOM     22  C   UNL     1       2.517  -2.680  -0.040  0.00  0.00    +0.033 A 
ATOM     23  C   UNL     1       3.675  -1.889  -0.052  0.00  0.00    +0.126 A 
ATOM     24  N   UNL     1       3.609  -0.571  -0.056  0.00  0.00    -0.242 NA
ENDBRANCH   1  23
BRANCH   5  25
ATOM     25  C   UNL     1       8.261   1.130   0.059  0.00  0.00    +0.218 C 
ATOM     26  O   UNL     1       8.135   1.397  -1.117  0.00  0.00    -0.275 OA
ATOM     27  N   UNL     1       9.073   1.875   0.836  0.00  0.00    -0.311 N 
ATOM     28  H   UNL     1       9.174   1.661   1.776  0.00  0.00    +0.149 HD
BRANCH  27  29
ATOM     29  C   UNL     1       9.803   3.006   0.259  0.00  0.00    +0.140 C 
BRANCH  29  30
ATOM     30  C   UNL     1      10.633   3.667   1.330  0.00  0.00    -0.016 A 
ATOM     31  C   UNL     1      10.178   4.819   1.944  0.00  0.00    +0.006 A 
ATOM     32  C   UNL     1      10.939   5.424   2.927  0.00  0.00    +0.000 A 
ATOM     33  C   UNL     1      12.155   4.879   3.295  0.00  0.00    +0.001 A 
ATOM     34  C   UNL     1      12.610   3.727   2.681  0.00  0.00    +0.015 A 
ATOM     35  C   UNL     1      11.847   3.118   1.701  0.00  0.00    +0.023 A 
ATOM     36 BR   UNL     1      12.466   1.539   0.865  0.00  0.00    -0.050 Br
ENDBRANCH  29  30
ENDBRANCH  27  29
ENDBRANCH   5  25
TORSDOF 4
