REMARK  Name = ZINC34974139
REMARK  12 active torsions:
REMARK  status: ('A' for Active; 'I' for Inactive)
REMARK    1  A    between atoms: C_1  and  C_2
REMARK    2  A    between atoms: C_5  and  C_8
REMARK    3  A    between atoms: C_8  and  N_9
REMARK    4  A    between atoms: N_9  and  C_10
REMARK    5  A    between atoms: C_10  and  C_11
REMARK    6  A    between atoms: C_11  and  C_12
REMARK    7  A    between atoms: C_12  and  C_13
REMARK    8  A    between atoms: C_13  and  C_14
REMARK    9  A    between atoms: C_14  and  C_15
REMARK   10  A    between atoms: C_15  and  N_16
REMARK   11  A    between atoms: N_25  and  C_26
REMARK   12  A    between atoms: C_30  and  C_32
REMARK                            x       y       z     vdW  Elec       q    Type
REMARK                         _______ _______ _______ _____ _____    ______ ____
ROOT
ATOM      1  N   UNL     1       1.410  -4.904  -0.038  0.00  0.00    -0.281 N 
ATOM      2  C   UNL     1       2.027  -5.115  -1.218  0.00  0.00    +0.307 C 
ATOM      3  O   UNL     1       3.118  -5.651  -1.246  0.00  0.00    -0.252 OA
ATOM      4  N   UNL     1       1.434  -4.733  -2.366  0.00  0.00    -0.269 N 
ATOM      5  H   UNL     1       0.532  -4.377  -2.351  0.00  0.00    +0.156 HD
ENDROOT
BRANCH   4   6
ATOM      6  C   UNL     1       2.120  -4.850  -3.580  0.00  0.00    +0.035 A 
ATOM      7  C   UNL     1       1.424  -5.133  -4.748  0.00  0.00    +0.023 A 
ATOM      8  C   UNL     1       2.104  -5.247  -5.945  0.00  0.00    +0.002 A 
ATOM      9  C   UNL     1       3.476  -5.080  -5.981  0.00  0.00    +0.003 A 
ATOM     10  C   UNL     1       4.172  -4.798  -4.820  0.00  0.00    -0.049 A 
ATOM     11  C   UNL     1       3.497  -4.677  -3.621  0.00  0.00    +0.026 A 
ATOM     12  C   UNL     1       5.668  -4.618  -4.863  0.00  0.00    +0.044 C 
ENDBRANCH   4   6
BRANCH   1  13
ATOM     13  C   UNL     1       0.095  -4.259  -0.004  0.00  0.00    +0.144 C 
BRANCH  13  18
ATOM     14  C   UNL     1       0.766   1.465   0.423  0.00  0.00    +0.044 C 
ATOM     15  C   UNL     1       0.591  -0.028   0.311  0.00  0.00    -0.050 A 
ATOM     16  C   UNL     1       0.524  -0.625  -0.933  0.00  0.00    +0.003 A 
ATOM     17  C   UNL     1       0.364  -1.994  -1.036  0.00  0.00    +0.005 A 
ATOM     18  C   UNL     1       0.271  -2.766   0.107  0.00  0.00    -0.030 A 
ATOM     19  C   UNL     1       0.339  -2.169   1.352  0.00  0.00    +0.005 A 
ATOM     20  C   UNL     1       0.503  -0.800   1.454  0.00  0.00    +0.003 A 
ENDBRANCH  13  18
ENDBRANCH   1  13
BRANCH   1  21
ATOM     21  C   UNL     1       2.054  -5.319   1.210  0.00  0.00    +0.110 C 
BRANCH  21  22
ATOM     22  C   UNL     1       1.642  -6.755   1.544  0.00  0.00    +0.019 C 
BRANCH  22  23
ATOM     23  C   UNL     1       2.315  -7.189   2.847  0.00  0.00    +0.002 C 
BRANCH  23  24
ATOM     24  C   UNL     1       1.903  -8.624   3.181  0.00  0.00    +0.002 C 
BRANCH  24  25
ATOM     25  C   UNL     1       2.576  -9.058   4.484  0.00  0.00    +0.019 C 
BRANCH  25  26
ATOM     26  C   UNL     1       2.164 -10.493   4.818  0.00  0.00    +0.103 C 
BRANCH  26  27
ATOM     27  N   UNL     1       2.809 -10.909   6.066  0.00  0.00    -0.331 N 
ATOM     28  C   UNL     1       2.583 -12.183   6.574  0.00  0.00    +0.096 A 
ATOM     29  C   UNL     1       1.749 -13.061   5.888  0.00  0.00    +0.041 A 
ATOM     30  C   UNL     1       1.534 -14.326   6.405  0.00  0.00    +0.005 A 
ATOM     31  C   UNL     1       2.162 -14.672   7.594  0.00  0.00    +0.018 A 
ATOM     32  C   UNL     1       2.977 -13.751   8.221  0.00  0.00    +0.084 A 
ATOM     33  N   UNL     1       3.169 -12.553   7.702  0.00  0.00    -0.350 N 
ATOM     34  H   UNL     1       3.392 -10.295   6.538  0.00  0.00    +0.147 HD
ATOM     35  H   UNL     1       3.749 -11.926   8.161  0.00  0.00    +0.166 HD
ENDBRANCH  26  27
ENDBRANCH  25  26
ENDBRANCH  24  25
ENDBRANCH  23  24
ENDBRANCH  22  23
ENDBRANCH  21  22
ENDBRANCH   1  21
TORSDOF 10
