REMARK  Name = ZINC43631972
REMARK  10 active torsions:
REMARK  status: ('A' for Active; 'I' for Inactive)
REMARK    1  A    between atoms: C_1  and  C_2
REMARK    2  A    between atoms: C_2  and  C_3
REMARK    3  A    between atoms: C_2  and  N_4
REMARK    4  A    between atoms: C_5  and  C_7
REMARK    5  A    between atoms: C_10  and  S_26
REMARK    6  A    between atoms: N_13  and  C_14
REMARK    7  A    between atoms: C_14  and  C_15
REMARK    8  A    between atoms: C_23  and  C_24
REMARK    9  A    between atoms: C_23  and  C_25
REMARK   10  A    between atoms: S_26  and  C_27
REMARK                            x       y       z     vdW  Elec       q    Type
REMARK                         _______ _______ _______ _____ _____    ______ ____
ROOT
ATOM      1  C   UNL     1      -3.057  -2.256  -0.474  0.00  0.00    +0.021 C 
ATOM      2  C   UNL     1      -3.563  -2.369   0.976  0.00  0.00    +0.006 C 
ATOM      3  C   UNL     1      -3.918  -3.862   1.163  0.00  0.00    +0.037 C 
ATOM      4  C   UNL     1      -4.135  -4.353  -0.290  0.00  0.00    -0.063 C 
ATOM      5  N   UNL     1      -3.098  -3.613  -1.060  0.00  0.00    +0.391 N 
ATOM      6  H   UNL     1      -2.201  -4.064  -0.956  0.00  0.00    -0.080 HD
ENDROOT
BRANCH   1   8
ATOM      7  N   UNL     1      -1.372  -0.511   0.012  0.00  0.00    -0.314 N 
ATOM      8  C   UNL     1      -1.643  -1.734  -0.485  0.00  0.00    +0.200 C 
ATOM      9  O   UNL     1      -0.749  -2.415  -0.941  0.00  0.00    -0.278 OA
ATOM     10  H   UNL     1      -2.087   0.033   0.377  0.00  0.00    +0.149 HD
BRANCH   7  12
ATOM     11  C   UNL     1      -0.019   1.526   0.010  0.00  0.00    +0.027 C 
ATOM     12  C   UNL     1       0.002  -0.004   0.002  0.00  0.00    +0.067 C 
ATOM     13  C   UNL     1       0.742  -0.511   1.242  0.00  0.00    +0.027 C 
ENDBRANCH   7  12
ENDBRANCH   1   8
BRANCH   5  14
ATOM     14  C   UNL     1      -3.469  -3.542  -2.479  0.00  0.00    -0.046 C 
BRANCH  14  15
ATOM     15  C   UNL     1      -3.386  -4.917  -3.090  0.00  0.00    -0.086 C 
ATOM     16  C   UNL     1      -4.447  -5.685  -3.188  0.00  0.00    -0.029 C 
ATOM     17  C   UNL     1      -4.324  -7.053  -3.814  0.00  0.00    +0.031 C 
ATOM     18  C   UNL     1      -2.857  -7.325  -4.175  0.00  0.00    -0.000 C 
ATOM     19  C   UNL     1      -1.883  -6.927  -3.053  0.00  0.00    +0.012 C 
ATOM     20  C   UNL     1      -2.075  -5.466  -3.623  0.00  0.00    +0.019 C 
ATOM     21  C   UNL     1      -2.264  -6.154  -4.983  0.00  0.00    -0.025 C 
ATOM     22  C   UNL     1      -3.276  -5.453  -5.892  0.00  0.00    +0.012 C 
ATOM     23  C   UNL     1      -0.952  -6.493  -5.694  0.00  0.00    +0.012 C 
ENDBRANCH  14  15
ENDBRANCH   5  14
BRANCH   3  24
ATOM     24  S   UNL     1      -5.437  -4.043   2.139  0.00  0.00    -0.086 S 
BRANCH  24  25
ATOM     25  C   UNL     1      -4.992  -3.443   3.735  0.00  0.00    +0.167 A 
ATOM     26  N   UNL     1      -5.827  -3.390   4.815  0.00  0.00    -0.333 N 
ATOM     27  H   UNL     1      -6.755  -3.672   4.839  0.00  0.00    +0.168 HD
ATOM     28  C   UNL     1      -5.102  -2.859   5.869  0.00  0.00    +0.067 A 
ATOM     29  C   UNL     1      -5.401  -2.569   7.192  0.00  0.00    +0.028 A 
ATOM     30  C   UNL     1      -4.432  -2.029   8.013  0.00  0.00    +0.002 A 
ATOM     31  C   UNL     1      -3.159  -1.775   7.524  0.00  0.00    +0.002 A 
ATOM     32  C   UNL     1      -2.845  -2.057   6.213  0.00  0.00    +0.030 A 
ATOM     33  C   UNL     1      -3.815  -2.603   5.369  0.00  0.00    +0.090 A 
ATOM     34  N   UNL     1      -3.809  -2.985   4.065  0.00  0.00    -0.222 NA
ENDBRANCH  24  25
ENDBRANCH   3  24
TORSDOF 6
