REMARK  Name = ZINC12680993
REMARK  5 active torsions:
REMARK  status: ('A' for Active; 'I' for Inactive)
REMARK    1  A    between atoms: C_6  and  N_7
REMARK    2  A    between atoms: C_8  and  C_10
REMARK    3  A    between atoms: C_10  and  O_11
REMARK    4  A    between atoms: O_11  and  C_12
REMARK    5  A    between atoms: C_12  and  C_14
REMARK                            x       y       z     vdW  Elec       q    Type
REMARK                         _______ _______ _______ _____ _____    ______ ____
ROOT
ATOM      1  N   UNL     1      -1.202  -0.720   0.010  0.00  0.00    -0.283 N 
ATOM      2  C   UNL     1      -2.374  -0.065   0.127  0.00  0.00    +0.255 C 
ATOM      3  O   UNL     1      -2.393   1.148   0.134  0.00  0.00    -0.272 OA
ATOM      4  H   UNL     1      -1.192  -1.687  -0.063  0.00  0.00    +0.155 HD
ENDROOT
BRANCH   1  10
ATOM      5  C   UNL     1       1.138  -0.544   0.583  0.00  0.00    +0.025 A 
ATOM      6  C   UNL     1       2.328   0.156   0.570  0.00  0.00    +0.029 A 
ATOM      7  C   UNL     1       2.390   1.403  -0.033  0.00  0.00    +0.067 A 
ATOM      8  C   UNL     1       1.249   1.950  -0.626  0.00  0.00    +0.069 A 
ATOM      9  C   UNL     1       0.057   1.244  -0.610  0.00  0.00    +0.051 A 
ATOM     10  C   UNL     1       0.002  -0.003  -0.006  0.00  0.00    +0.036 A 
ATOM     11  N   UNL     1       1.618   3.191  -1.139  0.00  0.00    -0.306 N 
ATOM     12  C   UNL     1       2.922   3.391  -0.872  0.00  0.00    +0.325 A 
ATOM     13  N   UNL     1       3.417   2.331  -0.205  0.00  0.00    -0.306 N 
ATOM     14  H   UNL     1       4.331   2.231   0.103  0.00  0.00    +0.170 HD
ATOM     15  O   UNL     1       3.557   4.381  -1.185  0.00  0.00    -0.247 OA
ATOM     16  H   UNL     1       1.034   3.806  -1.611  0.00  0.00    +0.170 HD
ENDBRANCH   1  10
BRANCH   2  17
ATOM     17  C   UNL     1      -3.661  -0.839   0.249  0.00  0.00    +0.328 C 
BRANCH  17  18
ATOM     18  O   UNL     1      -4.757   0.072   0.360  0.00  0.00    -0.455 OA
BRANCH  18  19
ATOM     19  C   UNL     1      -5.983  -0.461   0.477  0.00  0.00    +0.314 C 
ATOM     20  O   UNL     1      -6.122  -1.661   0.486  0.00  0.00    -0.250 OA
BRANCH  19  21
ATOM     21  C   UNL     1      -7.187   0.437   0.598  0.00  0.00    +0.070 C 
ATOM     22  C   UNL     1      -7.287   1.326  -0.644  0.00  0.00    +0.021 C 
ATOM     23  C   UNL     1      -8.509   2.238  -0.521  0.00  0.00    -0.008 C 
ATOM     24  C   UNL     1      -9.773   1.384  -0.401  0.00  0.00    +0.007 C 
ATOM     25  C   UNL     1      -9.673   0.496   0.841  0.00  0.00    -0.008 C 
ATOM     26  C   UNL     1      -8.451  -0.416   0.718  0.00  0.00    +0.021 C 
ATOM     27  C   UNL     1      -9.531   1.374   2.086  0.00  0.00    +0.021 C 
ATOM     28  C   UNL     1      -8.267   2.228   1.966  0.00  0.00    +0.028 C 
ATOM     29  C   UNL     1      -8.367   3.116   0.724  0.00  0.00    +0.021 C 
ATOM     30  C   UNL     1      -7.045   1.315   1.843  0.00  0.00    +0.036 C 
ATOM     31 BR   UNL     1      -8.085   3.356   3.566  0.00  0.00    -0.084 Br
ENDBRANCH  19  21
ENDBRANCH  18  19
ENDBRANCH  17  18
ENDBRANCH   2  17
TORSDOF 5
