REMARK  Name = ZINC40028472
REMARK  13 active torsions:
REMARK  status: ('A' for Active; 'I' for Inactive)
REMARK    1  A    between atoms: C_1  and  C_2
REMARK    2  A    between atoms: C_2  and  O_3
REMARK    3  A    between atoms: O_3  and  C_4
REMARK    4  A    between atoms: C_6  and  C_14
REMARK    5  A    between atoms: C_9  and  O_10
REMARK    6  A    between atoms: O_10  and  C_11
REMARK    7  A    between atoms: C_11  and  C_12
REMARK    8  A    between atoms: C_16  and  C_25
REMARK    9  A    between atoms: N_20  and  C_21
REMARK   10  A    between atoms: C_21  and  C_22
REMARK   11  A    between atoms: C_25  and  C_27
REMARK   12  A    between atoms: C_33  and  O_36
REMARK   13  A    between atoms: O_36  and  C_37
REMARK                            x       y       z     vdW  Elec       q    Type
REMARK                         _______ _______ _______ _____ _____    ______ ____
ROOT
ATOM      1  C   UNL     1      -0.809  -5.090   0.209  0.00  0.00    +0.145 C 
ATOM      2  C   UNL     1       0.247  -5.776   1.044  0.00  0.00    +0.079 C 
ATOM      3  C   UNL     1       0.073  -7.108   0.876  0.00  0.00    +0.249 C 
ATOM      4  C   UNL     1      -1.062  -7.338  -0.040  0.00  0.00    +0.288 C 
ATOM      5  O   UNL     1      -1.467  -8.429  -0.388  0.00  0.00    -0.266 OA
ATOM      6  N   UNL     1      -1.583  -6.159  -0.433  0.00  0.00    -0.280 N 
ATOM      7  O   UNL     1       0.822  -8.075   1.456  0.00  0.00    -0.282 OA
ENDROOT
BRANCH   1  10
ATOM      8  C   UNL     1       0.336  -2.043  -1.707  0.00  0.00    +0.162 A 
ATOM      9  C   UNL     1      -0.260  -2.844  -0.747  0.00  0.00    +0.055 A 
ATOM     10  C   UNL     1      -0.160  -4.220  -0.836  0.00  0.00    -0.019 A 
ATOM     11  C   UNL     1       0.534  -4.800  -1.882  0.00  0.00    +0.009 A 
ATOM     12  C   UNL     1       1.131  -4.006  -2.843  0.00  0.00    +0.050 A 
ATOM     13  C   UNL     1       1.030  -2.626  -2.763  0.00  0.00    +0.162 A 
BRANCH   8  14
ATOM     14  O   UNL     1       0.239  -0.689  -1.621  0.00  0.00    -0.489 OA
BRANCH  14  16
ATOM     15  C   UNL     1      -0.444   1.369  -0.554  0.00  0.00    +0.048 C 
ATOM     16  C   UNL     1      -0.400  -0.157  -0.459  0.00  0.00    +0.226 C 
ENDBRANCH  14  16
ENDBRANCH   8  14
BRANCH  13  17
ATOM     17  O   UNL     1       1.612  -1.844  -3.711  0.00  0.00    -0.484 OA
BRANCH  17  18
ATOM     18  C   UNL     1       2.308  -2.512  -4.766  0.00  0.00    +0.256 C 
BRANCH  18  19
ATOM     19  C   UNL     1       2.882  -1.491  -5.714  0.00  0.00    +0.006 C 
ATOM     20  C   UNL     1       4.114  -1.616  -6.143  0.00  0.00    +0.007 C 
ENDBRANCH  18  19
ENDBRANCH  17  18
ENDBRANCH  13  17
ENDBRANCH   1  10
BRANCH   2  21
ATOM     21  C   UNL     1       1.266  -5.125   1.874  0.00  0.00    +0.230 C 
ATOM     22  O   UNL     1       2.444  -5.215   1.577  0.00  0.00    -0.283 OA
BRANCH  21  23
ATOM     23  C   UNL     1       0.866  -4.363   3.065  0.00  0.00    +0.176 A 
ATOM     24  C   UNL     1       1.707  -3.636   3.849  0.00  0.00    +0.062 A 
ATOM     25  C   UNL     1       0.877  -3.056   4.904  0.00  0.00    +0.025 A 
ATOM     26  C   UNL     1       1.134  -2.227   6.001  0.00  0.00    +0.012 A 
ATOM     27  C   UNL     1       0.110  -1.852   6.823  0.00  0.00    +0.004 A 
ATOM     28  C   UNL     1      -1.185  -2.288   6.579  0.00  0.00    +0.049 A 
ATOM     29  C   UNL     1      -1.462  -3.108   5.501  0.00  0.00    +0.163 A 
ATOM     30  C   UNL     1      -0.432  -3.503   4.649  0.00  0.00    +0.177 A 
ATOM     31  O   UNL     1      -0.393  -4.273   3.543  0.00  0.00    -0.448 OA
BRANCH  29  32
ATOM     32  O   UNL     1      -2.735  -3.529   5.274  0.00  0.00    -0.491 OA
ATOM     33  C   UNL     1      -3.756  -2.996   6.120  0.00  0.00    +0.277 C 
ENDBRANCH  29  32
ENDBRANCH  21  23
ENDBRANCH   2  21
BRANCH   6  34
ATOM     34  C   UNL     1      -2.719  -5.976  -1.340  0.00  0.00    +0.136 C 
BRANCH  34  35
ATOM     35  C   UNL     1      -2.220  -5.890  -2.759  0.00  0.00    -0.016 C 
ATOM     36  C   UNL     1      -2.696  -6.702  -3.671  0.00  0.00    +0.005 C 
ENDBRANCH  34  35
ENDBRANCH   6  34
TORSDOF 11
