REMARK  Name = ZINC49048981
REMARK  12 active torsions:
REMARK  status: ('A' for Active; 'I' for Inactive)
REMARK    1  A    between atoms: C_1  and  C_2
REMARK    2  A    between atoms: C_4  and  C_13
REMARK    3  A    between atoms: C_13  and  C_15
REMARK    4  A    between atoms: C_13  and  O_21
REMARK    5  A    between atoms: O_21  and  C_22
REMARK    6  A    between atoms: C_22  and  C_23
REMARK    7  A    between atoms: C_23  and  C_25
REMARK    8  A    between atoms: C_23  and  O_30
REMARK    9  A    between atoms: C_25  and  N_26
REMARK   10  A    between atoms: N_26  and  C_27
REMARK   11  A    between atoms: C_27  and  C_28
REMARK   12  A    between atoms: C_28  and  N_29
REMARK                            x       y       z     vdW  Elec       q    Type
REMARK                         _______ _______ _______ _____ _____    ______ ____
ROOT
ATOM      1  C   UNL     1       0.028  -2.790  -2.553  0.00  0.00    +0.179 C 
ENDROOT
BRANCH   1   5
ATOM      2  C   UNL     1      -0.018   1.503   0.010  0.00  0.00    +0.065 C 
ATOM      3  C   UNL     1       0.002  -0.004   0.002  0.00  0.00    +0.039 A 
ATOM      4  C   UNL     1       0.005  -0.675  -1.219  0.00  0.00    +0.030 A 
ATOM      5  C   UNL     1       0.024  -2.041  -1.246  0.00  0.00    -0.004 A 
ATOM      6  C   UNL     1       0.040  -2.729  -0.018  0.00  0.00    +0.007 A 
ATOM      7  C   UNL     1       0.060  -4.132   0.033  0.00  0.00    +0.025 A 
ATOM      8  C   UNL     1       0.075  -4.761   1.241  0.00  0.00    +0.019 A 
ATOM      9  C   UNL     1       0.071  -4.030   2.429  0.00  0.00    +0.017 A 
ATOM     10  C   UNL     1       0.051  -2.670   2.415  0.00  0.00    +0.029 A 
ATOM     11  C   UNL     1       0.035  -1.984   1.188  0.00  0.00    +0.072 A 
ATOM     12  N   UNL     1       0.022  -0.648   1.144  0.00  0.00    -0.252 NA
ATOM     13 BR   UNL     1       0.103  -6.651   1.309  0.00  0.00    -0.050 Br
ENDBRANCH   1   5
BRANCH   1  14
ATOM     14  C   UNL     1       1.446  -3.127  -2.935  0.00  0.00    -0.012 A 
ATOM     15  C   UNL     1       2.269  -2.176  -3.519  0.00  0.00    +0.026 A 
ATOM     16  C   UNL     1       3.564  -2.522  -3.856  0.00  0.00    +0.111 A 
ATOM     17  N   UNL     1       4.018  -3.739  -3.628  0.00  0.00    -0.263 NA
ATOM     18  C   UNL     1       3.264  -4.668  -3.075  0.00  0.00    +0.111 A 
ATOM     19  C   UNL     1       1.961  -4.394  -2.706  0.00  0.00    +0.026 A 
ENDBRANCH   1  14
BRANCH   1  20
ATOM     20  O   UNL     1      -0.558  -1.975  -3.570  0.00  0.00    -0.365 OA
BRANCH  20  21
ATOM     21  C   UNL     1      -1.218  -2.715  -4.600  0.00  0.00    +0.190 C 
BRANCH  21  22
ATOM     22  C   UNL     1      -1.804  -1.746  -5.629  0.00  0.00    +0.123 C 
BRANCH  22  23
ATOM     23  O   UNL     1      -0.744  -1.048  -6.285  0.00  0.00    -0.391 OA
ATOM     24  H   UNL     1      -0.126  -1.624  -6.755  0.00  0.00    +0.210 HD
ENDBRANCH  22  23
BRANCH  22  25
ATOM     25  C   UNL     1      -2.615  -2.530  -6.662  0.00  0.00    -0.049 C 
BRANCH  25  26
ATOM     26  N   UNL     1      -3.179  -1.600  -7.650  0.00  0.00    +0.380 N 
ATOM     27  H   UNL     1      -3.780  -0.937  -7.184  0.00  0.00    -0.086 HD
ATOM     28  H   UNL     1      -2.430  -1.107  -8.113  0.00  0.00    -0.086 HD
BRANCH  26  29
ATOM     29  C   UNL     1      -3.957  -2.352  -8.643  0.00  0.00    -0.102 C 
BRANCH  29  30
ATOM     30  C   UNL     1      -4.544  -1.384  -9.671  0.00  0.00    -0.106 C 
BRANCH  30  31
ATOM     31  N   UNL     1      -5.323  -2.136 -10.664  0.00  0.00    +0.377 N 
ATOM     32  H   UNL     1      -5.710  -1.497 -11.343  0.00  0.00    -0.090 HD
ATOM     33  H   UNL     1      -4.722  -2.799 -11.131  0.00  0.00    -0.090 HD
ATOM     34  H   UNL     1      -6.072  -2.629 -10.201  0.00  0.00    -0.090 HD
ENDBRANCH  30  31
ENDBRANCH  29  30
ENDBRANCH  26  29
ENDBRANCH  25  26
ENDBRANCH  22  25
ENDBRANCH  21  22
ENDBRANCH  20  21
ENDBRANCH   1  20
TORSDOF 11
