REMARK  Name = ZINC13656355
REMARK  16 active torsions:
REMARK  status: ('A' for Active; 'I' for Inactive)
REMARK    1  A    between atoms: C_1  and  C_2
REMARK    2  A    between atoms: C_2  and  C_3
REMARK    3  A    between atoms: C_3  and  N_4
REMARK    4  A    between atoms: N_4  and  C_5
REMARK    5  A    between atoms: N_4  and  C_8
REMARK    6  A    between atoms: C_5  and  C_6
REMARK    7  A    between atoms: C_6  and  C_7
REMARK    8  A    between atoms: C_8  and  C_9
REMARK    9  A    between atoms: C_10  and  O_32
REMARK   10  A    between atoms: C_17  and  C_18
REMARK   11  A    between atoms: C_20  and  O_28
REMARK   12  A    between atoms: C_21  and  O_26
REMARK   13  A    between atoms: C_23  and  O_24
REMARK   14  A    between atoms: O_24  and  C_25
REMARK   15  A    between atoms: O_26  and  C_27
REMARK   16  A    between atoms: O_28  and  C_29
REMARK                            x       y       z     vdW  Elec       q    Type
REMARK                         _______ _______ _______ _____ _____    ______ ____
ROOT
ATOM      1  C   UNL     1       4.064  -2.693  -2.742  0.00  0.00    +0.020 A 
ATOM      2  C   UNL     1       4.573  -1.621  -3.458  0.00  0.00    +0.122 A 
ATOM      3  C   UNL     1       5.766  -1.014  -3.073  0.00  0.00    +0.046 A 
ATOM      4  C   UNL     1       6.448  -1.473  -1.982  0.00  0.00    +0.019 A 
ATOM      5  C   UNL     1       5.948  -2.552  -1.252  0.00  0.00    +0.068 A 
ATOM      6  C   UNL     1       4.743  -3.168  -1.627  0.00  0.00    +0.144 A 
ATOM      7  O   UNL     1       4.463  -4.175  -0.772  0.00  0.00    -0.451 OA
ATOM      8  C   UNL     1       5.408  -4.297   0.190  0.00  0.00    +0.176 C 
ATOM      9  C   UNL     1       5.417  -5.211   1.196  0.00  0.00    +0.062 C 
ATOM     10  C   UNL     1       6.428  -3.271  -0.058  0.00  0.00    +0.231 C 
ATOM     11  O   UNL     1       7.440  -3.054   0.587  0.00  0.00    -0.283 OA
ENDROOT
BRANCH   9  12
ATOM     12  C   UNL     1       4.423  -6.287   1.217  0.00  0.00    +0.024 A 
ATOM     13  C   UNL     1       3.687  -6.588   0.062  0.00  0.00    +0.061 A 
ATOM     14  C   UNL     1       2.753  -7.602   0.087  0.00  0.00    +0.162 A 
ATOM     15  C   UNL     1       2.538  -8.328   1.260  0.00  0.00    +0.165 A 
ATOM     16  C   UNL     1       3.261  -8.037   2.406  0.00  0.00    +0.095 A 
ATOM     17  C   UNL     1       4.207  -7.026   2.393  0.00  0.00    +0.131 A 
BRANCH  17  18
ATOM     18  O   UNL     1       4.919  -6.745   3.514  0.00  0.00    -0.494 OA
ATOM     19  C   UNL     1       4.646  -7.537   4.671  0.00  0.00    +0.277 C 
ENDBRANCH  17  18
BRANCH  15  20
ATOM     20  O   UNL     1       1.615  -9.325   1.278  0.00  0.00    -0.491 OA
ATOM     21  C   UNL     1       1.445 -10.029   2.510  0.00  0.00    +0.277 C 
ENDBRANCH  15  20
BRANCH  14  22
ATOM     22  O   UNL     1       2.038  -7.894  -1.033  0.00  0.00    -0.491 OA
ATOM     23  C   UNL     1       2.308  -7.112  -2.197  0.00  0.00    +0.277 C 
ENDBRANCH  14  22
ENDBRANCH   9  12
BRANCH   2  24
ATOM     24  O   UNL     1       3.903  -1.158  -4.544  0.00  0.00    -0.506 OA
ATOM     25  H   UNL     1       3.258  -0.466  -4.342  0.00  0.00    +0.292 HD
ENDBRANCH   2  24
BRANCH   1  26
ATOM     26  C   UNL     1       2.772  -3.339  -3.170  0.00  0.00    -0.036 C 
BRANCH  26  27
ATOM     27  N   UNL     1       1.646  -2.670  -2.504  0.00  0.00    +0.383 N 
ATOM     28  H   UNL     1       1.791  -2.681  -1.506  0.00  0.00    -0.081 HD
BRANCH  27  29
ATOM     29  C   UNL     1       1.558  -1.279  -2.970  0.00  0.00    -0.079 C 
BRANCH  29  31
ATOM     30  C   UNL     1       0.455   0.928  -2.580  0.00  0.00    +0.002 C 
ATOM     31  C   UNL     1       0.443  -0.557  -2.213  0.00  0.00    -0.022 C 
ENDBRANCH  29  31
ENDBRANCH  27  29
BRANCH  27  32
ATOM     32  C   UNL     1       0.398  -3.374  -2.827  0.00  0.00    -0.079 C 
BRANCH  32  33
ATOM     33  C   UNL     1       0.192  -3.378  -4.343  0.00  0.00    -0.022 C 
ATOM     34  C   UNL     1      -1.073  -4.170  -4.683  0.00  0.00    +0.002 C 
ENDBRANCH  32  33
ENDBRANCH  27  32
ENDBRANCH  26  27
ENDBRANCH   1  26
TORSDOF 11
