REMARK  Name = ZINC63896695
REMARK  9 active torsions:
REMARK  status: ('A' for Active; 'I' for Inactive)
REMARK    1  A    between atoms: C_1  and  C_2
REMARK    2  A    between atoms: C_2  and  O_3
REMARK    3  A    between atoms: O_3  and  C_4
REMARK    4  A    between atoms: C_4  and  C_6
REMARK    5  A    between atoms: C_19  and  N_20
REMARK    6  A    between atoms: N_20  and  C_21
REMARK    7  A    between atoms: C_21  and  C_22
REMARK    8  A    between atoms: C_22  and  C_23
REMARK    9  A    between atoms: C_33  and  C_35
REMARK                            x       y       z     vdW  Elec       q    Type
REMARK                         _______ _______ _______ _____ _____    ______ ____
ROOT
ATOM      1  C   UNL     1       1.472  -2.352   2.426  0.00  0.00    +0.071 C 
ATOM      2  C   UNL     1       1.660  -3.657   2.696  0.00  0.00    +0.010 C 
ATOM      3  C   UNL     1       2.463  -3.763   3.974  0.00  0.00    +0.181 C 
ATOM      4  C   UNL     1       1.973  -4.916   4.800  0.00  0.00    -0.004 A 
ATOM      5  C   UNL     1       2.412  -5.010   6.112  0.00  0.00    +0.007 A 
ATOM      6  C   UNL     1       2.011  -6.056   6.918  0.00  0.00    +0.000 A 
ATOM      7  C   UNL     1       1.164  -7.032   6.422  0.00  0.00    +0.001 A 
ATOM      8  C   UNL     1       0.712  -6.952   5.123  0.00  0.00    +0.012 A 
ATOM      9  C   UNL     1       1.106  -5.888   4.303  0.00  0.00    +0.028 A 
ATOM     10  C   UNL     1       0.550  -5.831   2.926  0.00  0.00    +0.195 C 
ATOM     11  O   UNL     1      -0.369  -6.550   2.580  0.00  0.00    -0.287 OA
ATOM     12  C   UNL     1       1.180  -4.852   1.983  0.00  0.00    +0.042 C 
ATOM     13  C   UNL     1       1.285  -5.036   0.615  0.00  0.00    +0.079 C 
ATOM     14  O   UNL     1       2.291  -2.506   4.636  0.00  0.00    -0.360 OA
ATOM     15  C   UNL     1       2.122  -1.567   3.549  0.00  0.00    +0.154 C 
ATOM     16  C   UNL     1       1.212  -0.416   3.984  0.00  0.00    +0.043 C 
ENDROOT
BRANCH   1  17
ATOM     17  C   UNL     1       0.801  -1.815   1.305  0.00  0.00    +0.338 C 
ATOM     18  O   UNL     1       0.321  -2.559   0.469  0.00  0.00    -0.245 OA
BRANCH  17  19
ATOM     19  O   UNL     1       0.693  -0.477   1.160  0.00  0.00    -0.462 OA
BRANCH  19  21
ATOM     20  C   UNL     1      -0.019   1.526   0.010  0.00  0.00    +0.048 C 
ATOM     21  C   UNL     1       0.002  -0.004   0.002  0.00  0.00    +0.229 C 
ENDBRANCH  19  21
ENDBRANCH  17  19
ENDBRANCH   1  17
BRANCH  13  22
ATOM     22  N   UNL     1       0.816  -6.167   0.048  0.00  0.00    -0.349 N 
ATOM     23  H   UNL     1       0.405  -6.851   0.599  0.00  0.00    +0.146 HD
BRANCH  22  24
ATOM     24  C   UNL     1       0.927  -6.361  -1.400  0.00  0.00    +0.105 C 
BRANCH  24  25
ATOM     25  C   UNL     1       0.324  -7.714  -1.781  0.00  0.00    +0.052 C 
BRANCH  25  26
ATOM     26  C   UNL     1       0.438  -7.914  -3.270  0.00  0.00    -0.040 C 
ATOM     27  C   UNL     1       1.416  -8.578  -3.929  0.00  0.00    -0.001 A 
ATOM     28  C   UNL     1       2.619  -9.283  -3.474  0.00  0.00    +0.010 A 
ATOM     29  C   UNL     1       3.427  -9.863  -4.391  0.00  0.00    +0.001 A 
ATOM     30  C   UNL     1       3.144  -9.806  -5.763  0.00  0.00    +0.002 A 
ATOM     31  C   UNL     1       2.057  -9.176  -6.258  0.00  0.00    +0.026 A 
ATOM     32  C   UNL     1       1.139  -8.532  -5.383  0.00  0.00    +0.043 A 
ATOM     33  N   UNL     1       0.033  -7.867  -5.614  0.00  0.00    -0.380 N 
ATOM     34  C   UNL     1      -0.520  -7.419  -4.331  0.00  0.00    +0.144 C 
ATOM     35  H   UNL     1      -0.356  -7.701  -6.487  0.00  0.00    +0.160 HD
ENDBRANCH  25  26
ENDBRANCH  24  25
ENDBRANCH  22  24
ENDBRANCH  13  22
TORSDOF 7
