REMARK  Name = ZINC39461381
REMARK  10 active torsions:
REMARK  status: ('A' for Active; 'I' for Inactive)
REMARK    1  A    between atoms: C_1  and  O_2
REMARK    2  A    between atoms: O_2  and  C_3
REMARK    3  A    between atoms: C_6  and  N_9
REMARK    4  A    between atoms: C_11  and  C_23
REMARK    5  A    between atoms: C_13  and  C_16
REMARK    6  A    between atoms: C_23  and  N_24
REMARK    7  A    between atoms: N_24  and  C_25
REMARK    8  A    between atoms: C_25  and  C_26
REMARK    9  A    between atoms: C_26  and  S_27
REMARK   10  A    between atoms: S_27  and  C_28
REMARK                            x       y       z     vdW  Elec       q    Type
REMARK                         _______ _______ _______ _____ _____    ______ ____
ROOT
ATOM      1  N   UNL     1      -4.889  -2.379   0.176  0.00  0.00    -0.266 N 
ATOM      2  C   UNL     1      -5.000  -3.828  -0.058  0.00  0.00    +0.127 C 
ATOM      3  C   UNL     1      -6.518  -4.129  -0.063  0.00  0.00    +0.014 C 
ATOM      4  C   UNL     1      -7.073  -2.885   0.683  0.00  0.00    +0.107 C 
ATOM      5  N   UNL     1      -6.140  -1.821   0.240  0.00  0.00    -0.232 NA
ATOM      6  H   UNL     1      -6.417  -1.451  -0.657  0.00  0.00    +0.145 HD
ENDROOT
BRANCH   4   7
ATOM      7  C   UNL     1      -8.485  -2.582   0.251  0.00  0.00    -0.010 A 
ATOM      8  C   UNL     1      -8.715  -1.733  -0.815  0.00  0.00    +0.006 A 
ATOM      9  C   UNL     1     -10.009  -1.456  -1.212  0.00  0.00    +0.000 A 
ATOM     10  C   UNL     1     -11.075  -2.027  -0.542  0.00  0.00    +0.001 A 
ATOM     11  C   UNL     1     -10.847  -2.876   0.524  0.00  0.00    +0.020 A 
ATOM     12  C   UNL     1      -9.551  -3.159   0.918  0.00  0.00    +0.046 A 
ATOM     13 CL   UNL     1      -9.263  -4.231   2.253  0.00  0.00    -0.083 Cl
ENDBRANCH   4   7
BRANCH   1  17
ATOM     14  C   UNL     1      -1.308  -0.289   0.603  0.00  0.00    +0.120 A 
ATOM     15  C   UNL     1      -2.518   0.384   0.685  0.00  0.00    +0.047 A 
ATOM     16  C   UNL     1      -3.705  -0.307   0.544  0.00  0.00    +0.028 A 
ATOM     17  C   UNL     1      -3.687  -1.677   0.319  0.00  0.00    +0.045 A 
ATOM     18  C   UNL     1      -2.475  -2.351   0.237  0.00  0.00    +0.028 A 
ATOM     19  C   UNL     1      -1.289  -1.657   0.373  0.00  0.00    +0.047 A 
BRANCH  14  21
ATOM     20  C   UNL     1      -0.233   1.799   0.977  0.00  0.00    +0.277 C 
ATOM     21  O   UNL     1      -0.140   0.393   0.742  0.00  0.00    -0.495 OA
ENDBRANCH  14  21
ENDBRANCH   1  17
BRANCH   3  22
ATOM     22  C   UNL     1      -6.827  -5.415   0.706  0.00  0.00    -0.076 C 
BRANCH  22  23
ATOM     23  N   UNL     1      -6.251  -6.562  -0.009  0.00  0.00    +0.380 N 
ATOM     24  H   UNL     1      -6.651  -6.619  -0.933  0.00  0.00    -0.086 HD
ATOM     25  H   UNL     1      -5.251  -6.446  -0.082  0.00  0.00    -0.086 HD
BRANCH  23  26
ATOM     26  C   UNL     1      -6.547  -7.798   0.729  0.00  0.00    -0.071 C 
BRANCH  26  27
ATOM     27  C   UNL     1      -5.947  -8.992  -0.015  0.00  0.00    +0.057 C 
BRANCH  27  28
ATOM     28  S   UNL     1      -6.312 -10.518   0.896  0.00  0.00    -0.107 S 
BRANCH  28  29
ATOM     29  C   UNL     1      -5.565 -11.784  -0.075  0.00  0.00    +0.112 A 
ATOM     30  C   UNL     1      -5.568 -13.118   0.188  0.00  0.00    +0.170 A 
ATOM     31  N   UNL     1      -4.900 -13.748  -0.778  0.00  0.00    -0.137 NA
ATOM     32  N   UNL     1      -4.470 -12.898  -1.644  0.00  0.00    -0.067 NA
ATOM     33  N   UNL     1      -4.877 -11.618  -1.240  0.00  0.00    -0.251 N 
ATOM     34  H   UNL     1      -4.702 -10.781  -1.698  0.00  0.00    +0.191 HD
ENDBRANCH  28  29
ENDBRANCH  27  28
ENDBRANCH  26  27
ENDBRANCH  23  26
ENDBRANCH  22  23
ENDBRANCH   3  22
TORSDOF 9
