REMARK  Name = ZINC17418414
REMARK  8 active torsions:
REMARK  status: ('A' for Active; 'I' for Inactive)
REMARK    1  A    between atoms: C_2  and  N_10
REMARK    2  A    between atoms: C_5  and  N_7
REMARK    3  A    between atoms: N_10  and  N_11
REMARK    4  A    between atoms: C_12  and  C_13
REMARK    5  A    between atoms: C_16  and  C_20
REMARK    6  A    between atoms: N_21  and  N_22
REMARK    7  A    between atoms: N_22  and  C_23
REMARK    8  A    between atoms: C_26  and  N_29
REMARK                            x       y       z     vdW  Elec       q    Type
REMARK                         _______ _______ _______ _____ _____    ______ ____
ROOT
ATOM      1  C   UNL     1       3.477   6.162   0.001  0.00  0.00    +0.014 A 
ATOM      2  C   UNL     1       4.751   5.443  -0.021  0.00  0.00    +0.050 A 
ATOM      3  C   UNL     1       5.918   6.131  -0.028  0.00  0.00    +0.031 A 
ATOM      4  C   UNL     1       5.905   7.547  -0.015  0.00  0.00    +0.014 A 
ATOM      5  C   UNL     1       4.631   8.267   0.005  0.00  0.00    +0.050 A 
ATOM      6  C   UNL     1       3.464   7.579   0.008  0.00  0.00    +0.031 A 
ATOM      7 CL   UNL     1       4.615  10.003   0.021  0.00  0.00    -0.083 Cl
ATOM      8 CL   UNL     1       4.767   3.707  -0.036  0.00  0.00    -0.083 Cl
ENDROOT
BRANCH   1  10
ATOM      9  N   UNL     1       2.282   4.125   0.002  0.00  0.00    -0.190 NA
ATOM     10  C   UNL     1       2.269   5.450   0.009  0.00  0.00    +0.139 C 
BRANCH   9  11
ATOM     11  N   UNL     1       1.171   3.470   0.009  0.00  0.00    -0.238 N 
ATOM     12  H   UNL     1       0.326   3.947   0.019  0.00  0.00    +0.174 HD
BRANCH  11  14
ATOM     13  C   UNL     1      -0.017   1.375   0.010  0.00  0.00    +0.027 A 
ATOM     14  C   UNL     1       1.183   2.086   0.002  0.00  0.00    +0.048 A 
ATOM     15  C   UNL     1       2.396   1.397  -0.013  0.00  0.00    +0.027 A 
ATOM     16  C   UNL     1       2.403   0.018  -0.021  0.00  0.00    +0.034 A 
ATOM     17  C   UNL     1       1.209  -0.683  -0.014  0.00  0.00    +0.126 A 
ATOM     18  C   UNL     1       0.002  -0.004   0.002  0.00  0.00    +0.034 A 
BRANCH  17  19
ATOM     19  N   UNL     1       1.223  -2.163  -0.023  0.00  0.00    +0.056 N 
ATOM     20  O   UNL     1       2.369  -2.810  -0.037  0.00  0.00    -0.126 OA
ATOM     21  O   UNL     1       0.088  -2.832  -0.016  0.00  0.00    -0.126 OA
ENDBRANCH  17  19
ENDBRANCH  11  14
ENDBRANCH   9  11
ENDBRANCH   1  10
BRANCH   4  22
ATOM     22  C   UNL     1       7.113   8.260  -0.022  0.00  0.00    +0.139 C 
ATOM     23  N   UNL     1       7.101   9.585  -0.010  0.00  0.00    -0.190 NA
BRANCH  23  24
ATOM     24  N   UNL     1       8.212  10.240  -0.017  0.00  0.00    -0.238 N 
ATOM     25  H   UNL     1       9.056   9.763  -0.030  0.00  0.00    +0.174 HD
BRANCH  24  26
ATOM     26  C   UNL     1       8.199  11.623  -0.004  0.00  0.00    +0.048 A 
ATOM     27  C   UNL     1       6.986  12.312   0.021  0.00  0.00    +0.027 A 
ATOM     28  C   UNL     1       6.979  13.691   0.033  0.00  0.00    +0.034 A 
ATOM     29  C   UNL     1       8.173  14.392   0.020  0.00  0.00    +0.126 A 
ATOM     30  C   UNL     1       9.380  13.714  -0.005  0.00  0.00    +0.034 A 
ATOM     31  C   UNL     1       9.399  12.335  -0.011  0.00  0.00    +0.027 A 
BRANCH  29  32
ATOM     32  N   UNL     1       8.160  15.872   0.033  0.00  0.00    +0.056 N 
ATOM     33  O   UNL     1       7.013  16.520   0.056  0.00  0.00    -0.126 OA
ATOM     34  O   UNL     1       9.294  16.541   0.020  0.00  0.00    -0.126 OA
ENDBRANCH  29  32
ENDBRANCH  24  26
ENDBRANCH  23  24
ENDBRANCH   4  22
TORSDOF 8
