REMARK  Name = ZINC39361793
REMARK  8 active torsions:
REMARK  status: ('A' for Active; 'I' for Inactive)
REMARK    1  A    between atoms: C_1  and  C_2
REMARK    2  A    between atoms: C_5  and  C_8
REMARK    3  A    between atoms: C_8  and  S_9
REMARK    4  A    between atoms: S_9  and  C_10
REMARK    5  A    between atoms: C_13  and  C_23
REMARK    6  A    between atoms: N_15  and  C_16
REMARK    7  A    between atoms: C_20  and  C_22
REMARK    8  A    between atoms: C_23  and  C_24
REMARK                            x       y       z     vdW  Elec       q    Type
REMARK                         _______ _______ _______ _____ _____    ______ ____
ROOT
ATOM      1  C   UNL     1       1.637  -6.635  -0.268  0.00  0.00    +0.180 C 
ATOM      2  N   UNL     1       0.511  -7.262  -0.204  0.00  0.00    -0.162 NA
ATOM      3  N   UNL     1       0.696  -8.622   0.070  0.00  0.00    -0.246 N 
ATOM      4  C   UNL     1       2.151  -8.824   0.184  0.00  0.00    +0.187 C 
ATOM      5  N   UNL     1       2.713  -7.483  -0.054  0.00  0.00    -0.258 N 
ATOM      6  H   UNL     1       0.006  -9.297   0.166  0.00  0.00    +0.170 HD
ENDROOT
BRANCH   5   7
ATOM      7  C   UNL     1       4.066  -7.134  -0.059  0.00  0.00    +0.038 A 
ATOM      8  C   UNL     1       4.906  -7.618  -1.055  0.00  0.00    +0.023 A 
ATOM      9  C   UNL     1       6.242  -7.270  -1.057  0.00  0.00    +0.002 A 
ATOM     10  C   UNL     1       6.745  -6.442  -0.070  0.00  0.00    +0.003 A 
ATOM     11  C   UNL     1       5.912  -5.959   0.922  0.00  0.00    -0.049 A 
ATOM     12  C   UNL     1       4.573  -6.298   0.927  0.00  0.00    +0.027 A 
ATOM     13  C   UNL     1       6.465  -5.057   1.996  0.00  0.00    +0.044 C 
ENDBRANCH   5   7
BRANCH   1  14
ATOM     14  S   UNL     1       1.789  -4.910  -0.596  0.00  0.00    -0.084 S 
BRANCH  14  15
ATOM     15  C   UNL     1       0.075  -4.346  -0.784  0.00  0.00    +0.112 C 
BRANCH  15  20
ATOM     16  C   UNL     1       0.020   1.325  -1.889  0.00  0.00    +0.044 C 
ATOM     17  C   UNL     1       0.034  -0.154  -1.601  0.00  0.00    -0.050 A 
ATOM     18  C   UNL     1       0.096  -1.060  -2.642  0.00  0.00    +0.003 A 
ATOM     19  C   UNL     1       0.109  -2.417  -2.378  0.00  0.00    +0.005 A 
ATOM     20  C   UNL     1       0.061  -2.867  -1.072  0.00  0.00    -0.037 A 
ATOM     21  C   UNL     1       0.001  -1.961  -0.030  0.00  0.00    +0.005 A 
ATOM     22  C   UNL     1      -0.008  -0.604  -0.294  0.00  0.00    +0.003 A 
ENDBRANCH  15  20
ENDBRANCH  14  15
ENDBRANCH   1  14
BRANCH   4  23
ATOM     23  C   UNL     1       2.516  -9.328   1.581  0.00  0.00    +0.097 C 
BRANCH  23  24
ATOM     24  C   UNL     1       1.949 -10.710   1.781  0.00  0.00    +0.029 A 
ATOM     25  N   UNL     1       0.656 -10.869   2.200  0.00  0.00    -0.311 N 
ATOM     26  C   UNL     1       0.141 -12.098   2.380  0.00  0.00    +0.327 A 
ATOM     27  O   UNL     1      -1.010 -12.217   2.753  0.00  0.00    -0.247 OA
ATOM     28  N   UNL     1       0.882 -13.199   2.154  0.00  0.00    -0.275 N 
ATOM     29  C   UNL     1       2.160 -13.085   1.741  0.00  0.00    +0.254 A 
ATOM     30  O   UNL     1       2.831 -14.080   1.536  0.00  0.00    -0.268 OA
ATOM     31  C   UNL     1       2.714 -11.797   1.542  0.00  0.00    +0.091 A 
ATOM     32  H   UNL     1       0.495 -14.078   2.289  0.00  0.00    +0.173 HD
ATOM     33  H   UNL     1       0.106 -10.088   2.368  0.00  0.00    +0.170 HD
ENDBRANCH  23  24
ENDBRANCH   4  23
TORSDOF 6
