REMARK  Name = ZINC63165689
REMARK  9 active torsions:
REMARK  status: ('A' for Active; 'I' for Inactive)
REMARK    1  A    between atoms: C_1  and  C_2
REMARK    2  A    between atoms: C_4  and  C_36
REMARK    3  A    between atoms: C_5  and  C_34
REMARK    4  A    between atoms: C_6  and  N_15
REMARK    5  A    between atoms: N_8  and  C_9
REMARK    6  A    between atoms: C_16  and  C_18
REMARK    7  A    between atoms: C_18  and  S_19
REMARK    8  A    between atoms: S_19  and  C_20
REMARK    9  A    between atoms: C_23  and  C_25
REMARK                            x       y       z     vdW  Elec       q    Type
REMARK                         _______ _______ _______ _____ _____    ______ ____
ROOT
ATOM      1  N   UNL     1      -0.219  -1.946   2.896  0.00  0.00    -0.294 N 
ATOM      2  C   UNL     1       0.145  -1.831   4.189  0.00  0.00    +0.225 C 
ATOM      3  O   UNL     1       0.291  -0.733   4.682  0.00  0.00    -0.275 OA
ATOM      4  H   UNL     1      -0.335  -2.825   2.502  0.00  0.00    +0.151 HD
ENDROOT
BRANCH   1   9
ATOM      5  C   UNL     1       0.033   1.538  -0.008  0.00  0.00    +0.029 C 
ATOM      6  C   UNL     1      -0.029   0.010  -0.069  0.00  0.00    +0.083 C 
ATOM      7  C   UNL     1      -1.463  -0.459   0.027  0.00  0.00    -0.039 C 
ATOM      8  C   UNL     1      -1.698  -0.892   1.264  0.00  0.00    +0.065 C 
ATOM      9  C   UNL     1      -0.439  -0.745   2.087  0.00  0.00    +0.186 C 
ATOM     10  N   UNL     1       0.660  -0.578   1.104  0.00  0.00    -0.271 NA
ATOM     11  C   UNL     1      -2.466  -0.440  -1.097  0.00  0.00    +0.042 C 
BRANCH  10  12
ATOM     12  C   UNL     1       1.264  -1.873   0.764  0.00  0.00    +0.059 C 
ATOM     13  C   UNL     1       2.475  -1.648  -0.145  0.00  0.00    +0.019 C 
ATOM     14  C   UNL     1       3.104  -2.997  -0.499  0.00  0.00    +0.002 C 
ATOM     15  C   UNL     1       2.075  -3.865  -1.226  0.00  0.00    +0.000 C 
ATOM     16  C   UNL     1       0.865  -4.090  -0.317  0.00  0.00    +0.002 C 
ATOM     17  C   UNL     1       0.235  -2.741   0.037  0.00  0.00    +0.019 C 
ENDBRANCH  10  12
BRANCH   8  18
ATOM     18  C   UNL     1      -2.944  -1.414   1.738  0.00  0.00    +0.098 C 
ATOM     19  N   UNL     1      -3.933  -1.827   2.115  0.00  0.00    -0.191 NA
ENDBRANCH   8  18
ENDBRANCH   1   9
BRANCH   2  20
ATOM     20  C   UNL     1       0.372  -3.067   5.021  0.00  0.00    +0.174 C 
BRANCH  20  21
ATOM     21  S   UNL     1       0.848  -2.584   6.703  0.00  0.00    -0.056 S 
BRANCH  21  22
ATOM     22  C   UNL     1       1.074  -4.118   7.539  0.00  0.00    +0.278 A 
ATOM     23  N   UNL     1       0.924  -5.325   7.014  0.00  0.00    -0.101 NA
ATOM     24  N   UNL     1       1.169  -6.214   7.912  0.00  0.00    -0.107 NA
ATOM     25  C   UNL     1       1.485  -5.612   9.047  0.00  0.00    +0.248 A 
ATOM     26  O   UNL     1       1.434  -4.277   8.825  0.00  0.00    -0.411 OA
BRANCH  25  27
ATOM     27  C   UNL     1       1.816  -6.241  10.256  0.00  0.00    +0.044 C 
ATOM     28  C   UNL     1       1.886  -7.613  10.502  0.00  0.00    +0.008 A 
ATOM     29  C   UNL     1       1.663  -8.741   9.683  0.00  0.00    +0.010 A 
ATOM     30  C   UNL     1       1.807  -9.988  10.201  0.00  0.00    +0.001 A 
ATOM     31  C   UNL     1       2.172 -10.188  11.534  0.00  0.00    +0.002 A 
ATOM     32  C   UNL     1       2.402  -9.152  12.377  0.00  0.00    +0.026 A 
ATOM     33  C   UNL     1       2.272  -7.819  11.908  0.00  0.00    +0.043 A 
ATOM     34  N   UNL     1       2.436  -6.660  12.515  0.00  0.00    -0.380 N 
ATOM     35  C   UNL     1       2.180  -5.574  11.564  0.00  0.00    +0.154 C 
ATOM     36  H   UNL     1       2.690  -6.545  13.444  0.00  0.00    +0.160 HD
ENDBRANCH  25  27
ENDBRANCH  21  22
ENDBRANCH  20  21
ENDBRANCH   2  20
TORSDOF 7
