REMARK  Name = ZINC13065380
REMARK  7 active torsions:
REMARK  status: ('A' for Active; 'I' for Inactive)
REMARK    1  A    between atoms: C_6  and  C_7
REMARK    2  A    between atoms: C_7  and  N_66
REMARK    3  A    between atoms: C_8  and  C_9
REMARK    4  A    between atoms: C_8  and  N_66
REMARK    5  A    between atoms: C_24  and  C_25
REMARK    6  A    between atoms: C_24  and  N_66
REMARK    7  A    between atoms: N_29  and  C_30
REMARK                            x       y       z     vdW  Elec       q    Type
REMARK                         _______ _______ _______ _____ _____    ______ ____
ROOT
ATOM      1  N   UNL     1      -0.885  -2.823  -2.118  0.00  0.00    +0.390 N 
ATOM      2  H   UNL     1      -1.641  -3.498  -1.951  0.00  0.00    -0.080 HD
ENDROOT
BRANCH   1   3
ATOM      3  C   UNL     1       0.100  -2.926  -1.021  0.00  0.00    -0.042 C 
BRANCH   3   9
ATOM      4  C   UNL     1      -0.441  -5.097   0.099  0.00  0.00    +0.005 A 
ATOM      5  C   UNL     1      -0.192  -6.436   0.342  0.00  0.00    +0.050 A 
ATOM      6  C   UNL     1       0.885  -7.062  -0.264  0.00  0.00    +0.166 A 
ATOM      7  C   UNL     1       1.713  -6.341  -1.121  0.00  0.00    +0.166 A 
ATOM      8  C   UNL     1       1.456  -5.002  -1.363  0.00  0.00    +0.051 A 
ATOM      9  C   UNL     1       0.378  -4.383  -0.755  0.00  0.00    -0.060 A 
ATOM     10  O   UNL     1       2.691  -7.173  -1.584  0.00  0.00    -0.453 OA
ATOM     11  C   UNL     1       2.695  -8.299  -0.688  0.00  0.00    +0.466 C 
ATOM     12  O   UNL     1       1.344  -8.345  -0.191  0.00  0.00    -0.453 OA
ENDBRANCH   3   9
ENDBRANCH   1   3
BRANCH   1  13
ATOM     13  C   UNL     1      -0.238  -3.137  -3.409  0.00  0.00    -0.036 C 
BRANCH  13  14
ATOM     14  C   UNL     1      -1.308  -3.471  -4.417  0.00  0.00    +0.001 A 
ATOM     15  C   UNL     1      -1.768  -2.510  -5.258  0.00  0.00    +0.017 A 
ATOM     16  C   UNL     1      -2.805  -2.865  -6.226  0.00  0.00    +0.002 A 
ATOM     17  C   UNL     1      -3.315  -1.916  -7.120  0.00  0.00    +0.059 A 
ATOM     18  C   UNL     1      -4.292  -2.281  -8.020  0.00  0.00    +0.167 A 
ATOM     19  C   UNL     1      -4.774  -3.595  -8.043  0.00  0.00    +0.168 A 
ATOM     20  C   UNL     1      -4.276  -4.539  -7.164  0.00  0.00    +0.075 A 
ATOM     21  C   UNL     1      -3.291  -4.187  -6.250  0.00  0.00    +0.053 A 
ATOM     22  N   UNL     1      -2.781  -5.117  -5.367  0.00  0.00    -0.322 N 
ATOM     23  H   UNL     1      -3.116  -6.027  -5.384  0.00  0.00    +0.169 HD
ATOM     24  C   UNL     1      -1.823  -4.781  -4.486  0.00  0.00    +0.251 A 
ATOM     25  O   UNL     1      -1.392  -5.630  -3.724  0.00  0.00    -0.268 OA
ATOM     26  O   UNL     1      -5.725  -3.690  -9.017  0.00  0.00    -0.453 OA
ATOM     27  C   UNL     1      -5.529  -2.540  -9.861  0.00  0.00    +0.466 C 
ATOM     28  O   UNL     1      -4.945  -1.562  -8.980  0.00  0.00    -0.453 OA
ENDBRANCH  13  14
ENDBRANCH   1  13
BRANCH   1  29
ATOM     29  C   UNL     1      -1.458  -1.461  -2.157  0.00  0.00    +0.001 C 
BRANCH  29  30
ATOM     30  C   UNL     1      -2.368  -1.283  -0.969  0.00  0.00    +0.135 A 
ATOM     31  N   UNL     1      -3.619  -1.664  -0.877  0.00  0.00    -0.115 NA
ATOM     32  N   UNL     1      -4.050  -1.335   0.291  0.00  0.00    -0.023 NA
ATOM     33  N   UNL     1      -3.106  -0.759   0.949  0.00  0.00    -0.044 NA
ATOM     34  N   UNL     1      -2.054  -0.703   0.204  0.00  0.00    -0.228 N 
BRANCH  34  35
ATOM     35  C   UNL     1      -0.759  -0.123   0.569  0.00  0.00    +0.111 C 
ATOM     36  C   UNL     1      -0.905   1.392   0.728  0.00  0.00    +0.027 C 
ATOM     37  C   UNL     1       0.447   1.998   1.109  0.00  0.00    +0.002 C 
ATOM     38  C   UNL     1       0.924   1.391   2.430  0.00  0.00    +0.000 C 
ATOM     39  C   UNL     1       1.070  -0.124   2.272  0.00  0.00    +0.002 C 
ATOM     40  C   UNL     1      -0.282  -0.730   1.890  0.00  0.00    +0.027 C 
ENDBRANCH  34  35
ENDBRANCH  29  30
ENDBRANCH   1  29
TORSDOF 7
