REMARK  Name = ZINC34947797
REMARK  7 active torsions:
REMARK  status: ('A' for Active; 'I' for Inactive)
REMARK    1  A    between atoms: C_1  and  C_2
REMARK    2  A    between atoms: C_6  and  C_8
REMARK    3  A    between atoms: C_8  and  N_9
REMARK    4  A    between atoms: N_9  and  C_10
REMARK    5  A    between atoms: N_13  and  C_16
REMARK    6  A    between atoms: C_16  and  C_17
REMARK    7  A    between atoms: N_25  and  C_26
REMARK                            x       y       z     vdW  Elec       q    Type
REMARK                         _______ _______ _______ _____ _____    ______ ____
ROOT
ATOM      1  N   UNL     1       1.430  -2.786   3.000  0.00  0.00    -0.277 N 
ATOM      2  C   UNL     1       2.178  -3.860   2.679  0.00  0.00    +0.303 C 
ATOM      3  O   UNL     1       3.323  -3.945   3.078  0.00  0.00    -0.253 OA
ATOM      4  N   UNL     1       1.656  -4.840   1.914  0.00  0.00    -0.294 N 
ATOM      5  H   UNL     1       0.743  -4.772   1.595  0.00  0.00    +0.151 HD
ENDROOT
BRANCH   4   6
ATOM      6  C   UNL     1       2.469  -6.007   1.564  0.00  0.00    +0.037 C 
ATOM      7  C   UNL     1       2.904  -6.728   2.842  0.00  0.00    +0.029 C 
ATOM      8  C   UNL     1       3.752  -7.947   2.477  0.00  0.00    -0.008 C 
ATOM      9  C   UNL     1       2.929  -8.900   1.609  0.00  0.00    +0.007 C 
ATOM     10  C   UNL     1       2.494  -8.180   0.331  0.00  0.00    -0.008 C 
ATOM     11  C   UNL     1       1.646  -6.961   0.696  0.00  0.00    +0.029 C 
ATOM     12  C   UNL     1       3.733  -7.726  -0.444  0.00  0.00    +0.007 C 
ATOM     13  C   UNL     1       4.556  -6.772   0.424  0.00  0.00    -0.008 C 
ATOM     14  C   UNL     1       4.991  -7.493   1.702  0.00  0.00    +0.007 C 
ATOM     15  C   UNL     1       3.708  -5.553   0.789  0.00  0.00    +0.029 C 
ENDBRANCH   4   6
BRANCH   1  16
ATOM     16  C   UNL     1       1.997  -1.721   3.831  0.00  0.00    +0.074 C 
ATOM     17  C   UNL     1       3.227  -1.129   3.137  0.00  0.00    +0.004 C 
ATOM     18  C   UNL     1       3.860  -0.073   4.045  0.00  0.00    -0.077 C 
ATOM     19  N   UNL     1       4.263  -0.692   5.314  0.00  0.00    +0.382 N 
ATOM     20  C   UNL     1       3.080  -1.199   6.019  0.00  0.00    -0.077 C 
ATOM     21  C   UNL     1       2.417  -2.298   5.187  0.00  0.00    +0.004 C 
ATOM     22  H   UNL     1       4.896  -1.456   5.128  0.00  0.00    -0.081 HD
BRANCH  19  23
ATOM     23  C   UNL     1       4.941   0.307   6.151  0.00  0.00    -0.043 C 
BRANCH  23  24
ATOM     24  C   UNL     1       5.463  -0.355   7.400  0.00  0.00    -0.064 A 
ATOM     25  C   UNL     1       4.667  -0.430   8.528  0.00  0.00    +0.002 A 
ATOM     26  C   UNL     1       5.146  -1.037   9.673  0.00  0.00    +0.000 A 
ATOM     27  C   UNL     1       6.421  -1.570   9.691  0.00  0.00    +0.000 A 
ATOM     28  C   UNL     1       7.217  -1.496   8.563  0.00  0.00    +0.000 A 
ATOM     29  C   UNL     1       6.736  -0.893   7.416  0.00  0.00    +0.002 A 
ENDBRANCH  23  24
ENDBRANCH  19  23
ENDBRANCH   1  16
BRANCH   1  30
ATOM     30  C   UNL     1       0.050  -2.683   2.519  0.00  0.00    +0.165 C 
BRANCH  30  36
ATOM     31  C   UNL     1      -0.018   1.503   0.010  0.00  0.00    +0.065 C 
ATOM     32  C   UNL     1       0.002  -0.004   0.002  0.00  0.00    +0.039 A 
ATOM     33  C   UNL     1       0.005  -0.681  -1.203  0.00  0.00    +0.023 A 
ATOM     34  C   UNL     1       0.024  -2.067  -1.200  0.00  0.00    +0.004 A 
ATOM     35  C   UNL     1       0.039  -2.724   0.021  0.00  0.00    +0.025 A 
ATOM     36  C   UNL     1       0.035  -1.980   1.186  0.00  0.00    +0.059 A 
ATOM     37  N   UNL     1       0.022  -0.662   1.145  0.00  0.00    -0.255 NA
ENDBRANCH  30  36
ENDBRANCH   1  30
TORSDOF 6
