REMARK  Name = ZINC23545689
REMARK  10 active torsions:
REMARK  status: ('A' for Active; 'I' for Inactive)
REMARK    1  A    between atoms: C_1  and  C_2
REMARK    2  A    between atoms: C_2  and  C_4
REMARK    3  A    between atoms: C_2  and  S_16
REMARK    4  A    between atoms: N_6  and  C_7
REMARK    5  A    between atoms: C_11  and  N_13
REMARK    6  A    between atoms: S_16  and  C_17
REMARK    7  A    between atoms: C_20  and  C_30
REMARK    8  A    between atoms: N_21  and  C_22
REMARK    9  A    between atoms: C_27  and  O_28
REMARK   10  A    between atoms: O_28  and  C_29
REMARK                            x       y       z     vdW  Elec       q    Type
REMARK                         _______ _______ _______ _____ _____    ______ ____
ROOT
ATOM      1  C   UNL     1       2.277   9.729   1.097  0.00  0.00    +0.197 A 
ATOM      2  N   UNL     1       1.150  10.327   0.785  0.00  0.00    -0.122 NA
ATOM      3  N   UNL     1       1.230  11.584   1.036  0.00  0.00    -0.127 NA
ATOM      4  C   UNL     1       2.417  11.870   1.525  0.00  0.00    +0.176 A 
ATOM      5  N   UNL     1       3.124  10.688   1.585  0.00  0.00    -0.266 N 
ENDROOT
BRANCH   5   6
ATOM      6  C   UNL     1       4.436  10.506   2.047  0.00  0.00    +0.092 A 
ATOM      7  C   UNL     1       5.504  10.612   1.168  0.00  0.00    +0.030 A 
ATOM      8  C   UNL     1       6.796  10.432   1.626  0.00  0.00    +0.002 A 
ATOM      9  C   UNL     1       7.027  10.148   2.959  0.00  0.00    +0.004 A 
ATOM     10  C   UNL     1       5.968  10.040   3.841  0.00  0.00    +0.048 A 
ATOM     11  C   UNL     1       4.671  10.224   3.391  0.00  0.00    +0.144 A 
BRANCH  11  12
ATOM     12  O   UNL     1       3.628  10.124   4.258  0.00  0.00    -0.493 OA
ATOM     13  C   UNL     1       3.944   9.833   5.621  0.00  0.00    +0.277 C 
ENDBRANCH  11  12
ENDBRANCH   5   6
BRANCH   4  14
ATOM     14  C   UNL     1       2.898  13.199   1.936  0.00  0.00    +0.057 A 
ATOM     15  C   UNL     1       2.180  14.346   2.164  0.00  0.00    +0.019 A 
ATOM     16  C   UNL     1       2.855  15.482   2.549  0.00  0.00    +0.008 A 
ATOM     17  C   UNL     1       4.206  15.438   2.682  0.00  0.00    +0.046 A 
ATOM     18  S   UNL     1       4.568  13.741   2.261  0.00  0.00    -0.094 S 
ENDBRANCH   4  14
BRANCH   1  19
ATOM     19  S   UNL     1       2.631   8.011   0.926  0.00  0.00    -0.073 S 
BRANCH  19  21
ATOM     20  C   UNL     1       0.846   8.051  -1.141  0.00  0.00    +0.029 C 
ATOM     21  C   UNL     1       1.059   7.433   0.242  0.00  0.00    +0.137 C 
BRANCH  21  22
ATOM     22  C   UNL     1       1.085   5.931   0.122  0.00  0.00    +0.230 C 
ATOM     23  O   UNL     1       2.146   5.342   0.109  0.00  0.00    -0.274 OA
ATOM     24  N   UNL     1      -0.069   5.242   0.028  0.00  0.00    -0.285 N 
ATOM     25  H   UNL     1      -1.026   5.779  -0.048  0.00  0.00    +0.155 HD
BRANCH  24  26
ATOM     26  C   UNL     1      -0.051   3.842   0.028  0.00  0.00    +0.036 A 
ATOM     27  C   UNL     1       0.907   3.159   0.765  0.00  0.00    +0.023 A 
ATOM     28  C   UNL     1       0.923   1.778   0.762  0.00  0.00    +0.004 A 
ATOM     29  C   UNL     1      -0.013   1.076   0.025  0.00  0.00    +0.033 A 
ATOM     30  C   UNL     1      -0.965   1.753  -0.714  0.00  0.00    +0.128 A 
ATOM     31  C   UNL     1      -0.990   3.134  -0.711  0.00  0.00    +0.056 A 
BRANCH  30  32
ATOM     32  N   UNL     1      -1.961   0.998  -1.506  0.00  0.00    +0.056 N 
ATOM     33  O   UNL     1      -1.943  -0.220  -1.506  0.00  0.00    -0.126 OA
ATOM     34  O   UNL     1      -2.800   1.594  -2.157  0.00  0.00    -0.126 OA
ENDBRANCH  30  32
ENDBRANCH  24  26
ENDBRANCH  21  22
ENDBRANCH  19  21
ENDBRANCH   1  19
TORSDOF 8
