REMARK  Name = ZINC39396165
REMARK  5 active torsions:
REMARK  status: ('A' for Active; 'I' for Inactive)
REMARK    1  A    between atoms: C_1  and  C_2
REMARK    2  A    between atoms: C_5  and  C_8
REMARK    3  A    between atoms: N_10  and  N_11
REMARK    4  A    between atoms: C_12  and  C_14
REMARK    5  A    between atoms: C_17  and  C_20
REMARK                            x       y       z     vdW  Elec       q    Type
REMARK                         _______ _______ _______ _____ _____    ______ ____
ROOT
ATOM      1  C   UNL     1       0.059  -4.251  -0.021  0.00  0.00    +0.260 C 
ATOM      2  O   UNL     1       0.062  -4.853  -1.077  0.00  0.00    -0.269 OA
ATOM      3  N   UNL     1       0.074  -4.931   1.142  0.00  0.00    -0.230 N 
ATOM      4  H   UNL     1       0.072  -4.451   1.985  0.00  0.00    +0.173 HD
ENDROOT
BRANCH   1   9
ATOM      5  C   UNL     1      -0.018   1.503   0.010  0.00  0.00    +0.044 C 
ATOM      6  C   UNL     1       0.002  -0.004   0.002  0.00  0.00    -0.050 A 
ATOM      7  C   UNL     1       0.006  -0.686  -1.202  0.00  0.00    +0.004 A 
ATOM      8  C   UNL     1       0.024  -2.066  -1.216  0.00  0.00    +0.013 A 
ATOM      9  C   UNL     1       0.040  -2.773  -0.013  0.00  0.00    +0.038 A 
ATOM     10  C   UNL     1       0.036  -2.079   1.198  0.00  0.00    +0.013 A 
ATOM     11  C   UNL     1       0.023  -0.699   1.198  0.00  0.00    +0.004 A 
ENDBRANCH   1   9
BRANCH   3  12
ATOM     12  N   UNL     1       0.092  -6.332   1.134  0.00  0.00    -0.232 N 
ATOM     13  C   UNL     1       0.107  -7.013   2.298  0.00  0.00    +0.259 C 
ATOM     14  O   UNL     1       0.104  -6.412   3.352  0.00  0.00    -0.272 OA
ATOM     15  H   UNL     1       0.095  -6.813   0.292  0.00  0.00    +0.173 HD
BRANCH  13  16
ATOM     16  C   UNL     1       0.127  -8.519   2.290  0.00  0.00    +0.239 C 
ATOM     17  C   UNL     1       1.541  -9.037   2.092  0.00  0.00    +0.035 C 
ATOM     18  C   UNL     1       1.788  -9.729   3.206  0.00  0.00    +0.059 C 
ATOM     19  N   UNL     1       0.723  -9.697   4.038  0.00  0.00    -0.159 NA
ATOM     20  N   UNL     1      -0.243  -9.052   3.612  0.00  0.00    -0.170 NA
ATOM     21  C   UNL     1       3.080 -10.449   3.498  0.00  0.00    +0.067 C 
ENDBRANCH  13  16
ENDBRANCH   3  12
TORSDOF 3
