REMARK  Name = ZINC31862951
REMARK  6 active torsions:
REMARK  status: ('A' for Active; 'I' for Inactive)
REMARK    1  A    between atoms: C_1  and  C_2
REMARK    2  A    between atoms: C_4  and  N_23
REMARK    3  A    between atoms: C_8  and  C_11
REMARK    4  A    between atoms: C_11  and  C_13
REMARK    5  A    between atoms: C_11  and  O_14
REMARK    6  A    between atoms: O_14  and  C_15
REMARK                            x       y       z     vdW  Elec       q    Type
REMARK                         _______ _______ _______ _____ _____    ______ ____
ROOT
ATOM      1  C   UNL     1       6.596  -4.445   3.184  0.00  0.00    +0.045 C 
ATOM      2  C   UNL     1       5.294  -4.952   2.618  0.00  0.00    -0.032 A 
ATOM      3  C   UNL     1       4.849  -6.244   2.942  0.00  0.00    +0.031 A 
ATOM      4  C   UNL     1       3.668  -6.702   2.428  0.00  0.00    +0.070 A 
ATOM      5  C   UNL     1       2.917  -5.860   1.576  0.00  0.00    +0.182 A 
ATOM      6  N   UNL     1       1.768  -6.005   0.937  0.00  0.00    -0.127 NA
ATOM      7  N   UNL     1       1.502  -4.928   0.284  0.00  0.00    -0.130 NA
ATOM      8  C   UNL     1       2.455  -4.048   0.455  0.00  0.00    +0.178 A 
ATOM      9  N   UNL     1       3.382  -4.604   1.281  0.00  0.00    -0.282 N 
ATOM     10  C   UNL     1       4.564  -4.162   1.804  0.00  0.00    +0.098 A 
ENDROOT
BRANCH   4  11
ATOM     11  N   UNL     1       3.211  -7.983   2.740  0.00  0.00    -0.355 N 
ATOM     12  H   UNL     1       2.260  -8.345   2.322  0.00  0.00    +0.142 HD
ATOM     13  H   UNL     1       3.801  -8.632   3.403  0.00  0.00    +0.142 HD
ENDBRANCH   4  11
BRANCH   8  14
ATOM     14  C   UNL     1       2.512  -2.668  -0.148  0.00  0.00    +0.238 C 
ATOM     15  C   UNL     1       2.885  -2.773  -1.628  0.00  0.00    +0.060 C 
BRANCH  14  16
ATOM     16  O   UNL     1       1.235  -2.040  -0.021  0.00  0.00    -0.480 OA
BRANCH  16  17
ATOM     17  C   UNL     1       1.214  -0.680  -0.013  0.00  0.00    +0.140 A 
ATOM     18  C   UNL     1       2.382   0.034  -0.239  0.00  0.00    +0.048 A 
ATOM     19  C   UNL     1       2.358   1.415  -0.231  0.00  0.00    +0.023 A 
ATOM     20  C   UNL     1       1.171   2.087   0.002  0.00  0.00    +0.043 A 
ATOM     21  C   UNL     1       0.005   1.377   0.227  0.00  0.00    +0.043 A 
ATOM     22  C   UNL     1       0.024  -0.005   0.220  0.00  0.00    +0.084 A 
ATOM     23 CL   UNL     1      -1.439  -0.895   0.503  0.00  0.00    -0.080 Cl
ATOM     24 CL   UNL     1       1.145   3.823   0.011  0.00  0.00    -0.083 Cl
ENDBRANCH  16  17
ENDBRANCH  14  16
ENDBRANCH   8  14
TORSDOF 4
