REMARK  Name = ZINC35694014
REMARK  10 active torsions:
REMARK  status: ('A' for Active; 'I' for Inactive)
REMARK    1  A    between atoms: C_1  and  C_2
REMARK    2  A    between atoms: C_3  and  C_33
REMARK    3  A    between atoms: C_4  and  C_24
REMARK    4  A    between atoms: C_7  and  C_12
REMARK    5  A    between atoms: C_13  and  N_15
REMARK    6  A    between atoms: N_15  and  C_16
REMARK    7  A    between atoms: C_16  and  C_17
REMARK    8  A    between atoms: C_28  and  N_30
REMARK    9  A    between atoms: C_33  and  O_35
REMARK   10  A    between atoms: O_35  and  C_36
REMARK                            x       y       z     vdW  Elec       q    Type
REMARK                         _______ _______ _______ _____ _____    ______ ____
ROOT
ATOM      1  C   UNL     1       0.220   1.214   0.943  0.00  0.00    +0.066 C 
ATOM      2  C   UNL     1       0.185  -0.241   0.554  0.00  0.00    +0.053 C 
ATOM      3  C   UNL     1      -1.025  -0.904   0.483  0.00  0.00    +0.082 C 
ATOM      4  C   UNL     1      -1.008  -2.364   0.089  0.00  0.00    +0.150 C 
ATOM      5  N   UNL     1       0.320  -2.973  -0.193  0.00  0.00    -0.267 N 
ATOM      6  C   UNL     1       0.573  -4.278  -0.567  0.00  0.00    +0.048 C 
ATOM      7  C   UNL     1       1.860  -4.631  -0.776  0.00  0.00    +0.072 C 
ATOM      8  S   UNL     1       2.720  -3.107  -0.442  0.00  0.00    -0.060 S 
ATOM      9  C   UNL     1       1.399  -2.143  -0.065  0.00  0.00    +0.166 C 
ATOM     10  N   UNL     1       1.313  -0.875   0.279  0.00  0.00    -0.230 NA
ENDROOT
BRANCH   4  11
ATOM     11  C   UNL     1      -1.653  -3.152   1.199  0.00  0.00    -0.020 A 
ATOM     12  C   UNL     1      -0.972  -3.362   2.384  0.00  0.00    +0.006 A 
ATOM     13  C   UNL     1      -1.564  -4.085   3.403  0.00  0.00    +0.003 A 
ATOM     14  C   UNL     1      -2.837  -4.598   3.236  0.00  0.00    +0.033 A 
ATOM     15  C   UNL     1      -3.518  -4.388   2.052  0.00  0.00    +0.127 A 
ATOM     16  C   UNL     1      -2.927  -3.661   1.035  0.00  0.00    +0.038 A 
BRANCH  15  17
ATOM     17  N   UNL     1      -4.880  -4.938   1.874  0.00  0.00    +0.056 N 
ATOM     18  O   UNL     1      -5.435  -5.490   2.796  0.00  0.00    -0.126 OA
ATOM     19  O   UNL     1      -5.439  -4.836   0.807  0.00  0.00    -0.126 OA
ENDBRANCH  15  17
ENDBRANCH   4  11
BRANCH   6  20
ATOM     20  C   UNL     1      -0.519  -5.248  -0.731  0.00  0.00    +0.091 C 
ATOM     21  C   UNL     1      -0.239  -6.544  -0.969  0.00  0.00    +0.239 C 
ATOM     22  O   UNL     1       1.045  -6.976  -0.935  0.00  0.00    -0.271 OA
BRANCH  21  23
ATOM     23  N   UNL     1      -1.262  -7.433  -1.249  0.00  0.00    -0.308 N 
ATOM     24  H   UNL     1      -2.186  -7.141  -1.201  0.00  0.00    +0.149 HD
BRANCH  23  25
ATOM     25  C   UNL     1      -0.950  -8.816  -1.618  0.00  0.00    +0.139 C 
BRANCH  25  26
ATOM     26  C   UNL     1      -2.221  -9.537  -1.988  0.00  0.00    -0.030 A 
ATOM     27  C   UNL     1      -2.947 -10.198  -1.016  0.00  0.00    +0.008 A 
ATOM     28  C   UNL     1      -4.113 -10.859  -1.354  0.00  0.00    +0.038 A 
ATOM     29  C   UNL     1      -4.553 -10.858  -2.667  0.00  0.00    +0.123 A 
ATOM     30  C   UNL     1      -3.825 -10.195  -3.639  0.00  0.00    +0.038 A 
ATOM     31  C   UNL     1      -2.662  -9.530  -3.298  0.00  0.00    +0.008 A 
ATOM     32  F   UNL     1      -5.693 -11.504  -2.998  0.00  0.00    -0.205 F 
ENDBRANCH  25  26
ENDBRANCH  23  25
ENDBRANCH  21  23
ENDBRANCH   6  20
BRANCH   3  33
ATOM     33  C   UNL     1      -2.228  -0.246   0.767  0.00  0.00    +0.339 C 
ATOM     34  O   UNL     1      -2.219   0.931   1.084  0.00  0.00    -0.245 OA
BRANCH  33  35
ATOM     35  O   UNL     1      -3.399  -0.916   0.691  0.00  0.00    -0.465 OA
ATOM     36  C   UNL     1      -4.587  -0.182   0.994  0.00  0.00    +0.280 C 
ENDBRANCH  33  35
ENDBRANCH   3  33
TORSDOF 8
