REMARK  Name = ZINC35037975
REMARK  12 active torsions:
REMARK  status: ('A' for Active; 'I' for Inactive)
REMARK    1  A    between atoms: C_1  and  C_2
REMARK    2  A    between atoms: C_2  and  C_3
REMARK    3  A    between atoms: C_3  and  C_5
REMARK    4  A    between atoms: C_3  and  N_23
REMARK    5  A    between atoms: N_15  and  C_16
REMARK    6  A    between atoms: N_23  and  C_24
REMARK    7  A    between atoms: C_24  and  C_25
REMARK    8  A    between atoms: C_25  and  N_26
REMARK    9  A    between atoms: N_26  and  C_27
REMARK   10  A    between atoms: N_26  and  C_28
REMARK   11  A    between atoms: C_29  and  C_31
REMARK   12  A    between atoms: C_31  and  C_32
REMARK                            x       y       z     vdW  Elec       q    Type
REMARK                         _______ _______ _______ _____ _____    ______ ____
ROOT
ATOM      1  C   UNL     1       1.512  -0.722   1.748  0.00  0.00    +0.142 C 
ENDROOT
BRANCH   1   2
ATOM      2  C   UNL     1       0.923  -2.103   1.608  0.00  0.00    +0.138 A 
ATOM      3  N   UNL     1       1.365  -2.867   0.656  0.00  0.00    -0.231 NA
ATOM      4  C   UNL     1       0.883  -4.121   0.470  0.00  0.00    +0.078 A 
ATOM      5  C   UNL     1       1.358  -4.944  -0.553  0.00  0.00    +0.028 A 
ATOM      6  C   UNL     1       0.840  -6.210  -0.706  0.00  0.00    +0.002 A 
ATOM      7  C   UNL     1      -0.151  -6.681   0.146  0.00  0.00    +0.001 A 
ATOM      8  C   UNL     1      -0.636  -5.888   1.162  0.00  0.00    +0.015 A 
ATOM      9  C   UNL     1      -0.125  -4.604   1.335  0.00  0.00    +0.065 A 
ATOM     10  C   UNL     1      -0.604  -3.713   2.402  0.00  0.00    +0.266 A 
ATOM     11  O   UNL     1      -1.470  -4.068   3.180  0.00  0.00    -0.267 OA
ATOM     12  N   UNL     1      -0.040  -2.486   2.489  0.00  0.00    -0.263 N 
BRANCH  12  13
ATOM     13  C   UNL     1      -0.456  -1.600   3.491  0.00  0.00    +0.051 A 
ATOM     14  C   UNL     1      -1.473  -0.689   3.236  0.00  0.00    +0.028 A 
ATOM     15  C   UNL     1      -1.882   0.183   4.226  0.00  0.00    +0.022 A 
ATOM     16  C   UNL     1      -1.279   0.150   5.471  0.00  0.00    +0.041 A 
ATOM     17  C   UNL     1      -0.265  -0.757   5.728  0.00  0.00    +0.022 A 
ATOM     18  C   UNL     1       0.143  -1.635   4.744  0.00  0.00    +0.028 A 
ATOM     19 CL   UNL     1      -1.794   1.248   6.713  0.00  0.00    -0.084 Cl
ENDBRANCH  12  13
ENDBRANCH   1   2
BRANCH   1  20
ATOM     20  N   UNL     1       2.924  -0.830   2.126  0.00  0.00    -0.293 N 
ATOM     21  C   UNL     1       3.356  -0.285   3.281  0.00  0.00    +0.221 C 
ATOM     22  O   UNL     1       2.576   0.294   4.007  0.00  0.00    -0.275 OA
BRANCH  20  23
ATOM     23  C   UNL     1       3.866  -1.529   1.249  0.00  0.00    +0.090 C 
BRANCH  23  24
ATOM     24  C   UNL     1       4.472  -0.535   0.256  0.00  0.00    -0.060 C 
BRANCH  24  25
ATOM     25  N   UNL     1       5.416  -1.237  -0.624  0.00  0.00    +0.377 N 
ATOM     26  C   UNL     1       5.908  -0.310  -1.653  0.00  0.00    -0.097 C 
ATOM     27  C   UNL     1       6.549  -1.733   0.169  0.00  0.00    -0.097 C 
ATOM     28  H   UNL     1       4.950  -2.014  -1.067  0.00  0.00    -0.083 HD
ENDBRANCH  24  25
ENDBRANCH  23  24
ENDBRANCH  20  23
BRANCH  21  29
ATOM     29  C   UNL     1       4.808  -0.396   3.669  0.00  0.00    +0.138 C 
BRANCH  29  30
ATOM     30  C   UNL     1       5.027   0.290   4.993  0.00  0.00    -0.001 A 
ATOM     31  C   UNL     1       4.954  -0.225   6.244  0.00  0.00    +0.011 A 
ATOM     32  C   UNL     1       5.198   0.601   7.325  0.00  0.00    +0.008 A 
ATOM     33  C   UNL     1       5.503   1.903   7.102  0.00  0.00    +0.045 A 
ATOM     34  S   UNL     1       5.459   1.992   5.319  0.00  0.00    -0.101 S 
ENDBRANCH  29  30
ENDBRANCH  21  29
ENDBRANCH   1  20
BRANCH   1  36
ATOM     35  C   UNL     1       1.895   1.456   0.586  0.00  0.00    +0.006 C 
ATOM     36  C   UNL     1       1.396   0.019   0.415  0.00  0.00    +0.027 C 
ENDBRANCH   1  36
TORSDOF 9
