REMARK  Name = ZINC36202546
REMARK  13 active torsions:
REMARK  status: ('A' for Active; 'I' for Inactive)
REMARK    1  A    between atoms: C_1  and  C_2
REMARK    2  A    between atoms: C_5  and  C_7
REMARK    3  A    between atoms: C_7  and  N_8
REMARK    4  A    between atoms: N_8  and  C_9
REMARK    5  A    between atoms: N_8  and  C_29
REMARK    6  A    between atoms: C_9  and  C_10
REMARK    7  A    between atoms: C_13  and  C_15
REMARK    8  A    between atoms: C_15  and  C_16
REMARK    9  A    between atoms: C_15  and  C_22
REMARK   10  A    between atoms: C_15  and  O_28
REMARK   11  A    between atoms: C_29  and  C_30
REMARK   12  A    between atoms: C_30  and  C_31
REMARK   13  A    between atoms: C_30  and  C_32
REMARK                            x       y       z     vdW  Elec       q    Type
REMARK                         _______ _______ _______ _____ _____    ______ ____
ROOT
ATOM      1  C   UNL     1       3.265  -4.606  -3.921  0.00  0.00    +0.089 A 
ATOM      2  C   UNL     1       3.618  -4.458  -5.211  0.00  0.00    +0.043 A 
ATOM      3  C   UNL     1       2.700  -5.213  -5.976  0.00  0.00    +0.048 A 
ATOM      4  C   UNL     1       1.841  -5.778  -5.108  0.00  0.00    +0.146 A 
ATOM      5  O   UNL     1       2.191  -5.411  -3.865  0.00  0.00    -0.463 OA
ENDROOT
BRANCH   1   6
ATOM      6  C   UNL     1       3.960  -3.980  -2.740  0.00  0.00    -0.003 C 
BRANCH   6   7
ATOM      7  N   UNL     1       3.345  -2.679  -2.443  0.00  0.00    +0.389 N 
ATOM      8  H   UNL     1       3.348  -2.108  -3.275  0.00  0.00    -0.081 HD
BRANCH   7   9
ATOM      9  C   UNL     1       1.962  -2.882  -1.993  0.00  0.00    -0.003 C 
BRANCH   9  14
ATOM     10  C   UNL     1       0.344   1.384   0.157  0.00  0.00    +0.086 C 
ATOM     11  C   UNL     1       0.589   0.310  -0.871  0.00  0.00    +0.102 A 
ATOM     12  C   UNL     1       0.155   0.327  -2.144  0.00  0.00    +0.044 A 
ATOM     13  C   UNL     1       0.609  -0.869  -2.747  0.00  0.00    +0.043 A 
ATOM     14  C   UNL     1       1.293  -1.545  -1.806  0.00  0.00    +0.089 A 
ATOM     15  O   UNL     1       1.282  -0.823  -0.674  0.00  0.00    -0.467 OA
ENDBRANCH   9  14
ENDBRANCH   7   9
BRANCH   7  16
ATOM     16  C   UNL     1       4.111  -2.006  -1.385  0.00  0.00    -0.075 C 
BRANCH  16  17
ATOM     17  C   UNL     1       5.509  -1.666  -1.905  0.00  0.00    -0.034 C 
ATOM     18  C   UNL     1       5.396  -0.669  -3.060  0.00  0.00    +0.005 C 
ATOM     19  C   UNL     1       6.337  -1.048  -0.776  0.00  0.00    +0.005 C 
ENDBRANCH  16  17
ENDBRANCH   7  16
ENDBRANCH   6   7
ENDBRANCH   1   6
BRANCH   4  20
ATOM     20  C   UNL     1       0.684  -6.674  -5.470  0.00  0.00    +0.174 C 
BRANCH  20  21
ATOM     21  C   UNL     1       0.435  -7.649  -4.348  0.00  0.00    -0.004 A 
ATOM     22  C   UNL     1       0.597  -9.005  -4.563  0.00  0.00    +0.007 A 
ATOM     23  C   UNL     1       0.367  -9.899  -3.534  0.00  0.00    +0.000 A 
ATOM     24  C   UNL     1      -0.023  -9.438  -2.291  0.00  0.00    +0.000 A 
ATOM     25  C   UNL     1      -0.184  -8.082  -2.076  0.00  0.00    +0.000 A 
ATOM     26  C   UNL     1       0.049  -7.187  -3.104  0.00  0.00    +0.007 A 
ENDBRANCH  20  21
BRANCH  20  27
ATOM     27  C   UNL     1      -0.549  -5.837  -5.692  0.00  0.00    -0.004 A 
ATOM     28  C   UNL     1      -0.825  -4.775  -4.851  0.00  0.00    +0.007 A 
ATOM     29  C   UNL     1      -1.956  -4.008  -5.055  0.00  0.00    +0.000 A 
ATOM     30  C   UNL     1      -2.812  -4.302  -6.100  0.00  0.00    +0.000 A 
ATOM     31  C   UNL     1      -2.536  -5.364  -6.942  0.00  0.00    +0.000 A 
ATOM     32  C   UNL     1      -1.402  -6.128  -6.740  0.00  0.00    +0.007 A 
ENDBRANCH  20  27
BRANCH  20  33
ATOM     33  O   UNL     1       0.994  -7.392  -6.666  0.00  0.00    -0.372 OA
ATOM     34  H   UNL     1       1.167  -6.827  -7.431  0.00  0.00    +0.212 HD
ENDBRANCH  20  33
ENDBRANCH   4  20
TORSDOF 10
