REMARK  Name = ZINC05399794
REMARK  10 active torsions:
REMARK  status: ('A' for Active; 'I' for Inactive)
REMARK    1  A    between atoms: C_1  and  N_2
REMARK    2  A    between atoms: N_2  and  C_3
REMARK    3  A    between atoms: N_2  and  C_10
REMARK    4  A    between atoms: C_3  and  C_4
REMARK    5  A    between atoms: C_10  and  C_11
REMARK    6  A    between atoms: N_13  and  C_16
REMARK    7  A    between atoms: C_26  and  N_28
REMARK    8  A    between atoms: N_28  and  C_29
REMARK    9  A    between atoms: C_29  and  N_31
REMARK   10  A    between atoms: N_31  and  C_32
REMARK                            x       y       z     vdW  Elec       q    Type
REMARK                         _______ _______ _______ _____ _____    ______ ____
ROOT
ATOM      1  C   UNL     1       5.031   1.985   1.755  0.00  0.00    +0.166 C 
ATOM      2  C   UNL     1       4.392   3.386   1.873  0.00  0.00    +0.190 C 
ATOM      3  O   UNL     1       5.060   4.002   2.995  0.00  0.00    -0.370 OA
ATOM      4  C   UNL     1       5.191   2.962   3.986  0.00  0.00    +0.171 C 
ATOM      5  C   UNL     1       5.559   1.684   3.174  0.00  0.00    +0.175 C 
ATOM      6  O   UNL     1       7.001   1.672   3.138  0.00  0.00    -0.370 OA
ATOM      7  C   UNL     1       7.425   2.094   4.451  0.00  0.00    +0.185 C 
ATOM      8  C   UNL     1       6.443   3.250   4.842  0.00  0.00    +0.129 C 
ENDROOT
BRANCH   1  11
ATOM      9  C   UNL     1       2.158  -0.072   1.120  0.00  0.00    +0.066 A 
ATOM     10  C   UNL     1       2.713   1.025   1.687  0.00  0.00    +0.132 A 
ATOM     11  N   UNL     1       4.026   0.995   1.361  0.00  0.00    -0.244 N 
ATOM     12  N   UNL     1       4.240  -0.054   0.645  0.00  0.00    -0.065 NA
ATOM     13  N   UNL     1       3.147  -0.714   0.488  0.00  0.00    -0.136 NA
BRANCH   9  14
ATOM     14  C   UNL     1       0.713  -0.491   1.192  0.00  0.00    -0.019 C 
BRANCH  14  16
ATOM     15  C   UNL     1      -0.018   1.465   0.010  0.00  0.00    -0.095 C 
ATOM     16  N   UNL     1       0.002  -0.004   0.002  0.00  0.00    +0.384 N 
ATOM     17  H   UNL     1       0.474  -0.330  -0.828  0.00  0.00    -0.081 HD
BRANCH  16  18
ATOM     18  C   UNL     1      -1.376  -0.512   0.012  0.00  0.00    -0.043 C 
BRANCH  18  19
ATOM     19  C   UNL     1      -2.067  -0.116  -1.267  0.00  0.00    -0.064 A 
ATOM     20  C   UNL     1      -2.750   1.083  -1.340  0.00  0.00    +0.002 A 
ATOM     21  C   UNL     1      -3.385   1.447  -2.513  0.00  0.00    +0.000 A 
ATOM     22  C   UNL     1      -3.335   0.611  -3.613  0.00  0.00    +0.000 A 
ATOM     23  C   UNL     1      -2.652  -0.588  -3.540  0.00  0.00    +0.000 A 
ATOM     24  C   UNL     1      -2.014  -0.950  -2.368  0.00  0.00    +0.002 A 
ENDBRANCH  18  19
ENDBRANCH  16  18
ENDBRANCH  14  16
ENDBRANCH   9  14
ENDBRANCH   1  11
BRANCH   8  25
ATOM     25  N   UNL     1       6.112   3.198   6.268  0.00  0.00    -0.319 N 
ATOM     26  H   UNL     1       5.355   2.673   6.572  0.00  0.00    +0.148 HD
BRANCH  25  27
ATOM     27  C   UNL     1       6.859   3.881   7.158  0.00  0.00    +0.131 C 
ATOM     28  S   UNL     1       8.195   4.808   6.622  0.00  0.00    -0.019 S 
BRANCH  27  29
ATOM     29  N   UNL     1       6.555   3.833   8.470  0.00  0.00    -0.324 N 
ATOM     30  H   UNL     1       5.798   3.308   8.774  0.00  0.00    +0.148 HD
BRANCH  29  31
ATOM     31  C   UNL     1       7.367   4.575   9.438  0.00  0.00    +0.072 C 
ATOM     32  C   UNL     1       6.867   6.019   9.524  0.00  0.00    +0.022 C 
ATOM     33  C   UNL     1       7.715   6.793  10.534  0.00  0.00    +0.002 C 
ATOM     34  C   UNL     1       7.601   6.131  11.909  0.00  0.00    +0.000 C 
ATOM     35  C   UNL     1       8.102   4.688  11.823  0.00  0.00    +0.002 C 
ATOM     36  C   UNL     1       7.253   3.913  10.813  0.00  0.00    +0.022 C 
ENDBRANCH  29  31
ENDBRANCH  27  29
ENDBRANCH  25  27
ENDBRANCH   8  25
TORSDOF 9
