REMARK  Name = ZINC43259303
REMARK  8 active torsions:
REMARK  status: ('A' for Active; 'I' for Inactive)
REMARK    1  A    between atoms: C_1  and  N_2
REMARK    2  A    between atoms: C_5  and  N_8
REMARK    3  A    between atoms: N_8  and  C_9
REMARK    4  A    between atoms: N_8  and  C_10
REMARK    5  A    between atoms: C_10  and  C_11
REMARK    6  A    between atoms: N_17  and  C_27
REMARK    7  A    between atoms: C_21  and  C_24
REMARK    8  A    between atoms: C_27  and  C_28
REMARK                            x       y       z     vdW  Elec       q    Type
REMARK                         _______ _______ _______ _____ _____    ______ ____
ROOT
ATOM      1  C   UNL     1       1.641  -6.130  -1.283  0.00  0.00    +0.204 C 
ATOM      2  O   UNL     1       0.977  -6.678  -0.429  0.00  0.00    -0.277 OA
ATOM      3  N   UNL     1       2.131  -6.842  -2.317  0.00  0.00    -0.262 N 
ATOM      4  C   UNL     1       2.943  -6.203  -3.363  0.00  0.00    +0.209 C 
ATOM      5  C   UNL     1       2.522  -6.740  -4.707  0.00  0.00    +0.238 C 
ATOM      6  O   UNL     1       2.636  -6.042  -5.693  0.00  0.00    -0.273 OA
ATOM      7  N   UNL     1       2.020  -7.983  -4.828  0.00  0.00    -0.264 N 
ATOM      8  C   UNL     1       1.832  -8.790  -3.708  0.00  0.00    +0.058 A 
ATOM      9  C   UNL     1       1.887  -8.221  -2.428  0.00  0.00    +0.059 A 
ATOM     10  C   UNL     1       1.703  -9.001  -1.306  0.00  0.00    +0.040 A 
ATOM     11  C   UNL     1       1.467 -10.373  -1.449  0.00  0.00    +0.065 A 
ATOM     12  C   UNL     1       1.420 -10.942  -2.726  0.00  0.00    +0.017 A 
ATOM     13  C   UNL     1       1.594 -10.151  -3.850  0.00  0.00    +0.026 A 
ENDROOT
BRANCH  11  14
ATOM     14  C   UNL     1       1.269 -11.216  -0.258  0.00  0.00    +0.387 C 
ATOM     15  O   UNL     1       1.311 -10.717   0.858  0.00  0.00    -0.241 OA
ATOM     16  O   UNL     1       1.063 -12.415  -0.385  0.00  0.00    -0.241 OA
ENDBRANCH  11  14
BRANCH   1  17
ATOM     17  C   UNL     1       1.917  -4.651  -1.189  0.00  0.00    +0.019 C 
BRANCH  17  18
ATOM     18  N   UNL     1       1.279  -4.109   0.018  0.00  0.00    +0.385 N 
ATOM     19  C   UNL     1       1.905  -4.699   1.209  0.00  0.00    -0.095 C 
ATOM     20  H   UNL     1       0.296  -4.335   0.009  0.00  0.00    -0.081 HD
BRANCH  18  25
ATOM     21  C   UNL     1       0.256   1.441   0.117  0.00  0.00    -0.096 C 
ATOM     22  N   UNL     1       0.217  -0.028   0.088  0.00  0.00    +0.378 N 
ATOM     23  C   UNL     1       0.902  -0.510  -1.117  0.00  0.00    -0.081 C 
ATOM     24  C   UNL     1       0.794  -2.035  -1.194  0.00  0.00    -0.034 C 
ATOM     25  C   UNL     1       1.446  -2.650   0.048  0.00  0.00    -0.072 C 
ATOM     26  C   UNL     1       0.773  -2.083   1.301  0.00  0.00    -0.034 C 
ATOM     27  C   UNL     1       0.882  -0.557   1.285  0.00  0.00    -0.081 C 
ATOM     28  H   UNL     1      -0.743  -0.337   0.073  0.00  0.00    -0.082 HD
ENDBRANCH  18  25
ENDBRANCH  17  18
ENDBRANCH   1  17
BRANCH   7  29
ATOM     29  C   UNL     1       1.667  -8.494  -6.155  0.00  0.00    +0.150 C 
BRANCH  29  30
ATOM     30  C   UNL     1       0.187  -8.326  -6.381  0.00  0.00    -0.011 A 
ATOM     31  C   UNL     1      -0.680  -9.358  -6.076  0.00  0.00    +0.008 A 
ATOM     32  C   UNL     1      -2.038  -9.205  -6.283  0.00  0.00    +0.020 A 
ATOM     33  C   UNL     1      -2.530  -8.017  -6.795  0.00  0.00    +0.042 A 
ATOM     34  C   UNL     1      -1.663  -6.983  -7.099  0.00  0.00    +0.040 A 
ATOM     35  C   UNL     1      -0.304  -7.136  -6.887  0.00  0.00    +0.047 A 
ATOM     36 CL   UNL     1       0.784  -5.837  -7.263  0.00  0.00    -0.083 Cl
ATOM     37 CL   UNL     1      -4.236  -7.824  -7.055  0.00  0.00    -0.083 Cl
ENDBRANCH  29  30
ENDBRANCH   7  29
TORSDOF 6
