REMARK  Name = ZINC13131396
REMARK  6 active torsions:
REMARK  status: ('A' for Active; 'I' for Inactive)
REMARK    1  A    between atoms: C_1  and  C_2
REMARK    2  A    between atoms: C_5  and  C_33
REMARK    3  A    between atoms: N_8  and  S_10
REMARK    4  A    between atoms: S_10  and  C_13
REMARK    5  A    between atoms: C_16  and  N_19
REMARK    6  A    between atoms: C_20  and  C_22
REMARK                            x       y       z     vdW  Elec       q    Type
REMARK                         _______ _______ _______ _____ _____    ______ ____
ROOT
ATOM      1  C   UNL     1       2.555  -3.282  -0.212  0.00  0.00    +0.106 A 
ATOM      2  C   UNL     1       2.227  -4.486  -0.807  0.00  0.00    +0.030 A 
ATOM      3  C   UNL     1       2.652  -4.763  -2.091  0.00  0.00    +0.025 A 
ATOM      4  C   UNL     1       3.410  -3.829  -2.786  0.00  0.00    +0.034 A 
ATOM      5  C   UNL     1       3.738  -2.620  -2.186  0.00  0.00    +0.025 A 
ATOM      6  C   UNL     1       3.305  -2.348  -0.902  0.00  0.00    +0.030 A 
ENDROOT
BRANCH   4   7
ATOM      7  N   UNL     1       3.843  -4.106  -4.087  0.00  0.00    -0.282 N 
ATOM      8  C   UNL     1       3.075  -4.847  -4.909  0.00  0.00    +0.261 C 
ATOM      9  O   UNL     1       1.968  -5.194  -4.556  0.00  0.00    -0.271 OA
ATOM     10  H   UNL     1       4.696  -3.764  -4.397  0.00  0.00    +0.155 HD
BRANCH   8  11
ATOM     11  C   UNL     1       3.592  -5.245  -6.268  0.00  0.00    +0.296 C 
ATOM     12  C   UNL     1       3.772  -3.995  -7.140  0.00  0.00    +0.283 C 
ATOM     13  O   UNL     1       4.250  -4.410  -8.424  0.00  0.00    -0.484 OA
ATOM     14  C   UNL     1       3.614  -5.466  -9.001  0.00  0.00    +0.162 A 
ATOM     15  C   UNL     1       3.766  -5.692 -10.361  0.00  0.00    +0.049 A 
ATOM     16  C   UNL     1       3.130  -6.762 -10.961  0.00  0.00    +0.004 A 
ATOM     17  C   UNL     1       2.340  -7.610 -10.207  0.00  0.00    +0.004 A 
ATOM     18  C   UNL     1       2.183  -7.390  -8.852  0.00  0.00    +0.049 A 
ATOM     19  C   UNL     1       2.818  -6.317  -8.244  0.00  0.00    +0.163 A 
ATOM     20  O   UNL     1       2.647  -6.109  -6.910  0.00  0.00    -0.473 OA
ENDBRANCH   8  11
ENDBRANCH   4   7
BRANCH   1  21
ATOM     21  S   UNL     1       2.010  -2.934   1.427  0.00  0.00    +0.061 S 
ATOM     22  O   UNL     1       2.904  -1.964   1.955  0.00  0.00    -0.153 OA
ATOM     23  O   UNL     1       1.788  -4.188   2.057  0.00  0.00    -0.153 OA
BRANCH  21  29
ATOM     24  C   UNL     1      -0.638   1.123  -0.088  0.00  0.00    +0.009 C 
ATOM     25  C   UNL     1      -0.408  -0.389  -0.036  0.00  0.00    +0.002 C 
ATOM     26  C   UNL     1      -1.756  -1.109   0.047  0.00  0.00    +0.009 C 
ATOM     27  C   UNL     1      -1.527  -2.622   0.066  0.00  0.00    +0.002 C 
ATOM     28  C   UNL     1      -0.703  -2.994   1.302  0.00  0.00    +0.112 C 
ATOM     29  N   UNL     1       0.531  -2.198   1.306  0.00  0.00    -0.176 NA
ATOM     30  C   UNL     1       0.430  -0.736   1.199  0.00  0.00    +0.112 C 
ATOM     31  C   UNL     1      -2.877  -3.341   0.115  0.00  0.00    +0.009 C 
ENDBRANCH  21  29
ENDBRANCH   1  21
TORSDOF 4
