REMARK  Name = ZINC12716227
REMARK  9 active torsions:
REMARK  status: ('A' for Active; 'I' for Inactive)
REMARK    1  A    between atoms: C_1  and  C_2
REMARK    2  A    between atoms: C_3  and  C_31
REMARK    3  A    between atoms: C_4  and  O_29
REMARK    4  A    between atoms: C_7  and  C_8
REMARK    5  A    between atoms: C_8  and  N_62
REMARK    6  A    between atoms: C_14  and  C_16
REMARK    7  A    between atoms: C_16  and  C_17
REMARK    8  A    between atoms: N_19  and  C_20
REMARK    9  A    between atoms: O_29  and  C_30
REMARK                            x       y       z     vdW  Elec       q    Type
REMARK                         _______ _______ _______ _____ _____    ______ ____
ROOT
ATOM      1  C   UNL     1       5.826  -1.513   0.648  0.00  0.00    -0.058 C 
ATOM      2  C   UNL     1       7.107  -0.865   0.118  0.00  0.00    +0.085 C 
ATOM      3  N   UNL     1       7.157   0.540   0.512  0.00  0.00    -0.318 N 
ATOM      4  C   UNL     1       6.078   1.221   0.912  0.00  0.00    +0.200 C 
ATOM      5  O   UNL     1       6.203   2.395   1.192  0.00  0.00    -0.278 OA
ATOM      6  C   UNL     1       4.718   0.594   1.029  0.00  0.00    +0.028 C 
ATOM      7  H   UNL     1       8.010   1.000   0.482  0.00  0.00    +0.149 HD
ATOM      8  N   UNL     1       4.686  -0.661   0.256  0.00  0.00    +0.391 N 
ATOM      9  H   UNL     1       4.760  -0.441  -0.745  0.00  0.00    -0.080 HD
ENDROOT
BRANCH   8  10
ATOM     10  C   UNL     1       3.411  -1.374   0.499  0.00  0.00    -0.042 C 
BRANCH  10  17
ATOM     11  C   UNL     1       4.344  -3.397   2.336  0.00  0.00    +0.044 C 
ATOM     12  C   UNL     1       3.993  -3.772   0.919  0.00  0.00    -0.043 A 
ATOM     13  C   UNL     1       4.117  -5.083   0.501  0.00  0.00    -0.006 A 
ATOM     14  C   UNL     1       3.793  -5.427  -0.803  0.00  0.00    +0.123 A 
ATOM     15  C   UNL     1       3.344  -4.453  -1.685  0.00  0.00    +0.046 A 
ATOM     16  C   UNL     1       3.217  -3.145  -1.260  0.00  0.00    +0.005 A 
ATOM     17  C   UNL     1       3.546  -2.803   0.040  0.00  0.00    -0.061 A 
ATOM     18  C   UNL     1       4.603  -6.138   1.460  0.00  0.00    +0.048 C 
BRANCH  14  19
ATOM     19  O   UNL     1       3.914  -6.715  -1.218  0.00  0.00    -0.495 OA
ATOM     20  C   UNL     1       3.563  -6.997  -2.574  0.00  0.00    +0.277 C 
ENDBRANCH  14  19
ENDBRANCH  10  17
ENDBRANCH   8  10
BRANCH   6  21
ATOM     21  C   UNL     1       3.666   1.552   0.465  0.00  0.00    +0.089 C 
BRANCH  21  22
ATOM     22  C   UNL     1       3.917   1.764  -1.006  0.00  0.00    +0.212 C 
ATOM     23  O   UNL     1       4.896   1.277  -1.530  0.00  0.00    -0.276 OA
ATOM     24  N   UNL     1       3.052   2.493  -1.738  0.00  0.00    -0.312 N 
ATOM     25  H   UNL     1       2.269   2.883  -1.319  0.00  0.00    +0.149 HD
BRANCH  24  26
ATOM     26  C   UNL     1       3.296   2.699  -3.168  0.00  0.00    +0.082 C 
ATOM     27  C   UNL     1       2.652   1.570  -4.002  0.00  0.00    +0.058 C 
ATOM     28  C   UNL     1       2.176   2.248  -5.275  0.00  0.00    -0.042 A 
ATOM     29  C   UNL     1       1.819   1.707  -6.499  0.00  0.00    +0.004 A 
ATOM     30  C   UNL     1       1.409   2.530  -7.530  0.00  0.00    +0.000 A 
ATOM     31  C   UNL     1       1.355   3.898  -7.340  0.00  0.00    +0.000 A 
ATOM     32  C   UNL     1       1.710   4.440  -6.120  0.00  0.00    +0.004 A 
ATOM     33  C   UNL     1       2.121   3.616  -5.086  0.00  0.00    -0.042 A 
ATOM     34  C   UNL     1       2.556   3.955  -3.676  0.00  0.00    +0.058 C 
ENDBRANCH  24  26
ENDBRANCH  21  22
ENDBRANCH   6  21
TORSDOF 6
