REMARK  Name = ZINC12489358
REMARK  7 active torsions:
REMARK  status: ('A' for Active; 'I' for Inactive)
REMARK    1  A    between atoms: C_1  and  C_2
REMARK    2  A    between atoms: C_2  and  C_4
REMARK    3  A    between atoms: C_2  and  S_17
REMARK    4  A    between atoms: N_6  and  C_7
REMARK    5  A    between atoms: S_17  and  C_18
REMARK    6  A    between atoms: C_20  and  C_30
REMARK    7  A    between atoms: C_21  and  C_24
REMARK                            x       y       z     vdW  Elec       q    Type
REMARK                         _______ _______ _______ _____ _____    ______ ____
ROOT
ATOM      1  C   UNL     1      -5.149   0.838  -0.468  0.00  0.00    +0.211 A 
ATOM      2  N   UNL     1      -6.346   1.213  -0.901  0.00  0.00    -0.218 NA
ATOM      3  C   UNL     1      -7.370   0.367  -0.810  0.00  0.00    +0.102 A 
ATOM      4  C   UNL     1      -7.144  -0.902  -0.240  0.00  0.00    +0.119 A 
ATOM      5  N   UNL     1      -5.921  -1.211   0.179  0.00  0.00    -0.145 NA
ATOM      6  N   UNL     1      -4.960  -0.363   0.066  0.00  0.00    -0.122 NA
ENDROOT
BRANCH   4   7
ATOM      7  C   UNL     1      -8.253  -1.876  -0.110  0.00  0.00    +0.004 A 
ATOM      8  C   UNL     1      -9.545  -1.433   0.170  0.00  0.00    +0.010 A 
ATOM      9  C   UNL     1     -10.575  -2.345   0.283  0.00  0.00    +0.001 A 
ATOM     10  C   UNL     1     -10.325  -3.697   0.132  0.00  0.00    +0.000 A 
ATOM     11  C   UNL     1      -9.043  -4.143  -0.139  0.00  0.00    +0.001 A 
ATOM     12  C   UNL     1      -8.007  -3.240  -0.262  0.00  0.00    +0.010 A 
ENDBRANCH   4   7
BRANCH   3  13
ATOM     13  C   UNL     1      -8.717   0.754  -1.290  0.00  0.00    +0.003 A 
ATOM     14  C   UNL     1      -9.552  -0.199  -1.873  0.00  0.00    +0.010 A 
ATOM     15  C   UNL     1     -10.808   0.166  -2.314  0.00  0.00    +0.001 A 
ATOM     16  C   UNL     1     -11.235   1.476  -2.188  0.00  0.00    +0.000 A 
ATOM     17  C   UNL     1     -10.409   2.426  -1.615  0.00  0.00    +0.001 A 
ATOM     18  C   UNL     1      -9.153   2.072  -1.165  0.00  0.00    +0.010 A 
ENDBRANCH   3  13
BRANCH   1  19
ATOM     19  S   UNL     1      -3.792   1.955  -0.595  0.00  0.00    -0.072 S 
BRANCH  19  21
ATOM     20  C   UNL     1      -2.795   0.682   1.607  0.00  0.00    +0.029 C 
ATOM     21  C   UNL     1      -2.481   0.940   0.132  0.00  0.00    +0.137 C 
BRANCH  21  22
ATOM     22  C   UNL     1      -1.164   1.663   0.018  0.00  0.00    +0.230 C 
ATOM     23  O   UNL     1      -1.142   2.873  -0.065  0.00  0.00    -0.274 OA
ATOM     24  N   UNL     1      -0.011   0.966   0.007  0.00  0.00    -0.284 N 
ATOM     25  H   UNL     1      -0.031  -0.004  -0.010  0.00  0.00    +0.155 HD
BRANCH  24  26
ATOM     26  C   UNL     1       1.212   1.639   0.015  0.00  0.00    +0.041 A 
ATOM     27  C   UNL     1       1.301   2.913   0.532  0.00  0.00    +0.024 A 
ATOM     28  C   UNL     1       2.516   3.591   0.550  0.00  0.00    +0.002 A 
ATOM     29  C   UNL     1       3.647   3.021   0.049  0.00  0.00    +0.008 A 
ATOM     30  C   UNL     1       3.598   1.725  -0.493  0.00  0.00    -0.016 A 
ATOM     31  C   UNL     1       2.367   1.023  -0.511  0.00  0.00    +0.003 A 
ATOM     32  C   UNL     1       2.320  -0.271  -1.053  0.00  0.00    +0.010 A 
ATOM     33  C   UNL     1       3.454  -0.834  -1.553  0.00  0.00    +0.001 A 
ATOM     34  C   UNL     1       4.665  -0.144  -1.536  0.00  0.00    +0.001 A 
ATOM     35  C   UNL     1       4.748   1.111  -1.018  0.00  0.00    +0.008 A 
ENDBRANCH  24  26
ENDBRANCH  21  22
ENDBRANCH  19  21
ENDBRANCH   1  19
TORSDOF 6
