REMARK  Name = ZINC33936924
REMARK  9 active torsions:
REMARK  status: ('A' for Active; 'I' for Inactive)
REMARK    1  A    between atoms: C_1  and  C_2
REMARK    2  A    between atoms: C_5  and  C_40
REMARK    3  A    between atoms: C_9  and  C_14
REMARK    4  A    between atoms: C_14  and  C_16
REMARK    5  A    between atoms: C_14  and  N_29
REMARK    6  A    between atoms: N_20  and  C_21
REMARK    7  A    between atoms: C_21  and  C_22
REMARK    8  A    between atoms: C_22  and  C_23
REMARK    9  A    between atoms: C_37  and  C_39
REMARK                            x       y       z     vdW  Elec       q    Type
REMARK                         _______ _______ _______ _____ _____    ______ ____
ROOT
ATOM      1  C   UNL     1       0.048  -0.071   4.974  0.00  0.00    +0.179 C 
ENDROOT
BRANCH   1  10
ATOM      2  C   UNL     1       0.355   1.387  -0.016  0.00  0.00    +0.044 C 
ATOM      3  C   UNL     1       0.266  -0.117   0.006  0.00  0.00    -0.041 A 
ATOM      4  C   UNL     1       0.282  -0.823  -1.163  0.00  0.00    +0.004 A 
ATOM      5  C   UNL     1       0.201  -2.208  -1.154  0.00  0.00    +0.005 A 
ATOM      6  C   UNL     1       0.103  -2.899   0.035  0.00  0.00    -0.026 A 
ATOM      7  C   UNL     1       0.085  -2.202   1.238  0.00  0.00    +0.052 A 
ATOM      8  C   UNL     1       0.173  -0.797   1.225  0.00  0.00    +0.002 A 
ATOM      9  C   UNL     1       0.158  -0.073   2.497  0.00  0.00    +0.021 A 
ATOM     10  C   UNL     1       0.065  -0.786   3.647  0.00  0.00    +0.045 A 
ATOM     11  C   UNL     1      -0.014  -2.194   3.606  0.00  0.00    +0.255 A 
ATOM     12  O   UNL     1      -0.097  -2.815   4.652  0.00  0.00    -0.268 OA
ATOM     13  N   UNL     1      -0.012  -2.868   2.442  0.00  0.00    -0.322 N 
ATOM     14  H   UNL     1      -0.068  -3.836   2.450  0.00  0.00    +0.169 HD
ATOM     15  C   UNL     1       0.016  -4.404   0.031  0.00  0.00    +0.046 C 
ENDBRANCH   1  10
BRANCH   1  16
ATOM     16  N   UNL     1      -1.136  -0.481   5.733  0.00  0.00    -0.312 N 
ATOM     17  C   UNL     1      -2.456  -0.285   5.324  0.00  0.00    +0.034 A 
ATOM     18  C   UNL     1      -2.942   0.314   4.159  0.00  0.00    +0.023 A 
ATOM     19  C   UNL     1      -4.300   0.409   3.942  0.00  0.00    +0.002 A 
ATOM     20  C   UNL     1      -5.191  -0.086   4.875  0.00  0.00    +0.000 A 
ATOM     21  C   UNL     1      -4.718  -0.680   6.030  0.00  0.00    +0.005 A 
ATOM     22  C   UNL     1      -3.358  -0.779   6.253  0.00  0.00    -0.025 A 
ATOM     23  C   UNL     1      -2.583  -1.370   7.409  0.00  0.00    +0.059 C 
ATOM     24  C   UNL     1      -1.107  -1.161   7.031  0.00  0.00    +0.076 C 
ATOM     25  C   UNL     1      -0.413  -0.284   8.075  0.00  0.00    +0.028 C 
ENDBRANCH   1  16
BRANCH   1  26
ATOM     26  C   UNL     1       1.290  -0.423   5.751  0.00  0.00    +0.176 A 
ATOM     27  N   UNL     1       1.535  -1.556   6.363  0.00  0.00    -0.111 NA
ATOM     28  N   UNL     1       2.698  -1.469   6.910  0.00  0.00    -0.023 NA
ATOM     29  N   UNL     1       3.201  -0.311   6.663  0.00  0.00    -0.044 NA
ATOM     30  N   UNL     1       2.365   0.362   5.946  0.00  0.00    -0.227 N 
BRANCH  30  31
ATOM     31  C   UNL     1       2.551   1.725   5.442  0.00  0.00    +0.152 C 
BRANCH  31  32
ATOM     32  C   UNL     1       2.014   2.725   6.468  0.00  0.00    +0.058 C 
BRANCH  32  33
ATOM     33  C   UNL     1       2.204   4.127   5.949  0.00  0.00    -0.046 A 
ATOM     34  C   UNL     1       3.372   4.814   6.226  0.00  0.00    +0.004 A 
ATOM     35  C   UNL     1       3.547   6.100   5.751  0.00  0.00    +0.000 A 
ATOM     36  C   UNL     1       2.554   6.699   4.997  0.00  0.00    +0.000 A 
ATOM     37  C   UNL     1       1.388   6.012   4.720  0.00  0.00    +0.000 A 
ATOM     38  C   UNL     1       1.214   4.724   5.191  0.00  0.00    +0.004 A 
ENDBRANCH  32  33
ENDBRANCH  31  32
ENDBRANCH  30  31
ENDBRANCH   1  26
TORSDOF 6
