REMARK  Name = ZINC24615975
REMARK  3 active torsions:
REMARK  status: ('A' for Active; 'I' for Inactive)
REMARK    1  A    between atoms: C_1  and  C_2
REMARK    2  A    between atoms: N_15  and  C_21
REMARK    3  A    between atoms: C_21  and  C_22
REMARK                            x       y       z     vdW  Elec       q    Type
REMARK                         _______ _______ _______ _____ _____    ______ ____
ROOT
ATOM      1  C   UNL     1       5.295   0.482   7.463  0.00  0.00    +0.007 C 
ATOM      2  C   UNL     1       4.626   0.312   6.098  0.00  0.00    -0.011 C 
ATOM      3  C   UNL     1       3.217  -0.258   6.287  0.00  0.00    +0.022 C 
ATOM      4  C   UNL     1       2.530  -0.369   4.924  0.00  0.00    +0.107 C 
ATOM      5  N   UNL     1       2.461   0.958   4.300  0.00  0.00    -0.313 N 
ATOM      6  C   UNL     1       3.803   1.506   4.065  0.00  0.00    +0.107 C 
ATOM      7  C   UNL     1       4.528   1.672   5.402  0.00  0.00    +0.022 C 
ATOM      8  C   UNL     1       1.724   0.916   3.116  0.00  0.00    +0.162 A 
ATOM      9  C   UNL     1       1.541   2.077   2.370  0.00  0.00    +0.190 A 
ATOM     10  C   UNL     1       0.808   2.018   1.198  0.00  0.00    +0.152 A 
ATOM     11  C   UNL     1       0.283   0.805   0.780  0.00  0.00    +0.113 A 
ATOM     12  C   UNL     1       0.506  -0.316   1.589  0.00  0.00    +0.238 A 
ATOM     13  N   UNL     1       1.201  -0.228   2.704  0.00  0.00    -0.200 NA
ATOM     14  F   UNL     1      -0.003  -1.511   1.218  0.00  0.00    -0.182 F 
ATOM     15  N   UNL     1      -0.448   0.618  -0.389  0.00  0.00    -0.319 N 
ATOM     16  C   UNL     1      -1.167   1.773  -0.907  0.00  0.00    +0.128 C 
ATOM     17  C   UNL     1      -0.162   2.870  -1.297  0.00  0.00    +0.191 C 
ATOM     18  S   UNL     1       0.550   3.492   0.261  0.00  0.00    +0.003 S 
ATOM     19  O   UNL     1      -0.421   4.229   0.991  0.00  0.00    -0.169 OA
ATOM     20  O   UNL     1       1.851   4.020   0.036  0.00  0.00    -0.169 OA
ATOM     21  F   UNL     1       2.072   3.248   2.787  0.00  0.00    -0.200 F 
ENDROOT
BRANCH  15  22
ATOM     22  C   UNL     1      -1.334  -0.547  -0.275  0.00  0.00    +0.140 C 
BRANCH  22  23
ATOM     23  C   UNL     1      -2.200  -0.402   0.950  0.00  0.00    -0.029 A 
ATOM     24  C   UNL     1      -3.033   0.693   1.082  0.00  0.00    +0.005 A 
ATOM     25  C   UNL     1      -3.828   0.826   2.205  0.00  0.00    +0.001 A 
ATOM     26  C   UNL     1      -3.789  -0.136   3.198  0.00  0.00    +0.015 A 
ATOM     27  C   UNL     1      -2.954  -1.231   3.066  0.00  0.00    +0.018 A 
ATOM     28  C   UNL     1      -2.164  -1.367   1.939  0.00  0.00    +0.020 A 
ATOM     29 BR   UNL     1      -2.900  -2.547   4.423  0.00  0.00    -0.050 Br
ENDBRANCH  22  23
ENDBRANCH  15  22
TORSDOF 2
