REMARK  Name = ZINC21245897
REMARK  8 active torsions:
REMARK  status: ('A' for Active; 'I' for Inactive)
REMARK    1  A    between atoms: C_1  and  O_2
REMARK    2  A    between atoms: O_2  and  C_3
REMARK    3  A    between atoms: C_6  and  C_11
REMARK    4  A    between atoms: C_8  and  O_9
REMARK    5  A    between atoms: O_9  and  C_10
REMARK    6  A    between atoms: C_16  and  C_26
REMARK    7  A    between atoms: C_29  and  O_33
REMARK    8  A    between atoms: O_33  and  C_34
REMARK                            x       y       z     vdW  Elec       q    Type
REMARK                         _______ _______ _______ _____ _____    ______ ____
ROOT
ATOM      1  C   UNL     1      -2.380   0.775   0.617  0.00  0.00    +0.032 C 
ATOM      2  C   UNL     1      -2.371   0.006  -0.703  0.00  0.00    +0.059 C 
ATOM      3  C   UNL     1      -3.696  -0.712  -0.895  0.00  0.00    +0.017 C 
ATOM      4  C   UNL     1      -4.385  -1.169   0.166  0.00  0.00    +0.036 C 
ATOM      5  C   UNL     1      -5.700  -1.907   0.116  0.00  0.00    +0.136 C 
ATOM      6  N   UNL     1      -6.095  -2.347  -1.205  0.00  0.00    -0.331 N 
ATOM      7  C   UNL     1      -6.385  -1.426  -2.210  0.00  0.00    +0.049 A 
ATOM      8  C   UNL     1      -7.658  -1.315  -2.746  0.00  0.00    +0.025 A 
ATOM      9  C   UNL     1      -7.909  -0.352  -3.709  0.00  0.00    +0.002 A 
ATOM     10  C   UNL     1      -6.901   0.494  -4.132  0.00  0.00    +0.002 A 
ATOM     11  C   UNL     1      -5.623   0.373  -3.612  0.00  0.00    +0.025 A 
ATOM     12  C   UNL     1      -5.366  -0.603  -2.666  0.00  0.00    +0.052 A 
ATOM     13  N   UNL     1      -4.085  -0.854  -2.187  0.00  0.00    -0.316 N 
ATOM     14  C   UNL     1      -3.889  -0.970   1.476  0.00  0.00    +0.163 C 
ATOM     15  O   UNL     1      -4.522  -1.408   2.416  0.00  0.00    -0.292 OA
ATOM     16  C   UNL     1      -2.608  -0.237   1.746  0.00  0.00    +0.088 C 
ATOM     17  H   UNL     1      -6.169  -3.421  -1.427  0.00  0.00    +0.147 HD
ATOM     18  H   UNL     1      -3.363  -1.192  -2.945  0.00  0.00    +0.152 HD
ENDROOT
BRANCH   5  19
ATOM     19  C   UNL     1      -6.776  -1.001   0.658  0.00  0.00    -0.021 A 
ATOM     20  C   UNL     1      -7.080   0.178   0.004  0.00  0.00    +0.009 A 
ATOM     21  C   UNL     1      -8.069   1.008   0.496  0.00  0.00    +0.047 A 
ATOM     22  C   UNL     1      -8.751   0.663   1.653  0.00  0.00    +0.138 A 
ATOM     23  C   UNL     1      -8.441  -0.519   2.312  0.00  0.00    +0.083 A 
ATOM     24  C   UNL     1      -7.454  -1.349   1.812  0.00  0.00    +0.029 A 
ATOM     25 CL   UNL     1      -9.292  -0.956   3.760  0.00  0.00    -0.080 Cl
BRANCH  22  26
ATOM     26  O   UNL     1      -9.720   1.480   2.142  0.00  0.00    -0.494 OA
ATOM     27  C   UNL     1      -9.986   2.680   1.413  0.00  0.00    +0.277 C 
ENDBRANCH  22  26
ENDBRANCH   5  19
BRANCH   1  31
ATOM     28  C   UNL     1       1.381   2.736   1.168  0.00  0.00    +0.161 A 
ATOM     29  C   UNL     1       1.330   1.361   1.010  0.00  0.00    +0.049 A 
ATOM     30  C   UNL     1       0.113   0.729   0.835  0.00  0.00    +0.008 A 
ATOM     31  C   UNL     1      -1.056   1.468   0.813  0.00  0.00    -0.040 A 
ATOM     32  C   UNL     1      -1.012   2.840   0.975  0.00  0.00    +0.053 A 
ATOM     33  C   UNL     1       0.204   3.479   1.150  0.00  0.00    +0.162 A 
BRANCH  28  35
ATOM     34  C   UNL     1       3.744   2.533   1.345  0.00  0.00    +0.277 C 
ATOM     35  O   UNL     1       2.578   3.359   1.339  0.00  0.00    -0.491 OA
ENDBRANCH  28  35
BRANCH  33  36
ATOM     36  O   UNL     1       0.249   4.830   1.306  0.00  0.00    -0.491 OA
ATOM     37  C   UNL     1      -0.998   5.527   1.277  0.00  0.00    +0.277 C 
ENDBRANCH  33  36
ENDBRANCH   1  31
TORSDOF 5
