REMARK  Name = ZINC20752268
REMARK  6 active torsions:
REMARK  status: ('A' for Active; 'I' for Inactive)
REMARK    1  A    between atoms: C_1  and  C_2
REMARK    2  A    between atoms: C_2  and  C_3
REMARK    3  A    between atoms: C_2  and  C_4
REMARK    4  A    between atoms: N_6  and  C_7
REMARK    5  A    between atoms: C_20  and  C_23
REMARK    6  A    between atoms: C_32  and  O_33
REMARK                            x       y       z     vdW  Elec       q    Type
REMARK                         _______ _______ _______ _____ _____    ______ ____
ROOT
ATOM      1  C   UNL     1       3.234  -1.433   3.051  0.00  0.00    +0.034 A 
ATOM      2  C   UNL     1       3.854  -0.370   2.408  0.00  0.00    +0.025 A 
ATOM      3  C   UNL     1       3.211   0.266   1.365  0.00  0.00    +0.025 A 
ATOM      4  C   UNL     1       1.950  -0.157   0.963  0.00  0.00    +0.031 A 
ATOM      5  C   UNL     1       1.325  -1.218   1.600  0.00  0.00    -0.018 A 
ATOM      6  C   UNL     1       1.977  -1.853   2.648  0.00  0.00    +0.029 A 
ATOM      7  C   UNL     1      -0.031  -1.705   1.199  0.00  0.00    +0.049 C 
ATOM      8  C   UNL     1      -1.087  -1.275   2.189  0.00  0.00    -0.023 C 
ATOM      9  C   UNL     1      -2.206  -0.994   1.567  0.00  0.00    -0.030 C 
ATOM     10  C   UNL     1      -2.052  -1.205   0.051  0.00  0.00    +0.033 C 
ATOM     11  C   UNL     1      -0.510  -1.119  -0.144  0.00  0.00    +0.029 C 
ATOM     12  C   UNL     1      -0.143   0.365  -0.226  0.00  0.00    +0.109 C 
ATOM     13  N   UNL     1       1.310   0.505  -0.075  0.00  0.00    -0.336 N 
ATOM     14  H   UNL     1       1.879   1.128  -0.780  0.00  0.00    +0.147 HD
ENDROOT
BRANCH  12  15
ATOM     15  C   UNL     1      -0.840   1.120   0.876  0.00  0.00    +0.022 A 
ATOM     16  C   UNL     1      -2.125   1.646   0.668  0.00  0.00    -0.009 A 
ATOM     17  C   UNL     1      -2.794   1.475  -0.556  0.00  0.00    +0.009 A 
ATOM     18  C   UNL     1      -4.041   1.994  -0.721  0.00  0.00    +0.001 A 
ATOM     19  C   UNL     1      -4.670   2.690   0.310  0.00  0.00    +0.001 A 
ATOM     20  C   UNL     1      -4.056   2.871   1.511  0.00  0.00    +0.008 A 
ATOM     21  C   UNL     1      -2.767   2.349   1.718  0.00  0.00    -0.017 A 
ATOM     22  C   UNL     1      -2.103   2.517   2.946  0.00  0.00    +0.012 A 
ATOM     23  C   UNL     1      -0.856   1.999   3.114  0.00  0.00    +0.046 A 
ATOM     24  C   UNL     1      -0.223   1.300   2.081  0.00  0.00    +0.122 A 
BRANCH  24  25
ATOM     25  O   UNL     1       1.023   0.794   2.279  0.00  0.00    -0.506 OA
ATOM     26  H   UNL     1       1.526   0.936   3.247  0.00  0.00    +0.292 HD
ENDBRANCH  24  25
ENDBRANCH  12  15
BRANCH   1  29
ATOM     27  C   UNL     1       4.672  -1.383   4.948  0.00  0.00    +0.220 C 
ATOM     28  O   UNL     1       4.747  -0.176   4.845  0.00  0.00    -0.275 OA
ATOM     29  N   UNL     1       3.881  -2.083   4.111  0.00  0.00    -0.285 N 
ATOM     30  H   UNL     1       3.744  -3.164   4.259  0.00  0.00    +0.155 HD
BRANCH  27  32
ATOM     31  C   UNL     1       6.415  -3.099   5.356  0.00  0.00    +0.017 C 
ATOM     32  C   UNL     1       5.462  -2.098   6.013  0.00  0.00    +0.069 C 
ATOM     33  C   UNL     1       6.270  -1.080   6.820  0.00  0.00    +0.017 C 
ENDBRANCH  27  32
ENDBRANCH   1  29
TORSDOF 4
