REMARK  Name = ZINC18329865
REMARK  9 active torsions:
REMARK  status: ('A' for Active; 'I' for Inactive)
REMARK    1  A    between atoms: C_1  and  C_2
REMARK    2  A    between atoms: C_2  and  C_4
REMARK    3  A    between atoms: C_2  and  S_20
REMARK    4  A    between atoms: C_10  and  C_15
REMARK    5  A    between atoms: S_20  and  C_21
REMARK    6  A    between atoms: C_24  and  C_27
REMARK    7  A    between atoms: N_25  and  C_26
REMARK    8  A    between atoms: C_27  and  O_28
REMARK    9  A    between atoms: O_28  and  C_29
REMARK                            x       y       z     vdW  Elec       q    Type
REMARK                         _______ _______ _______ _____ _____    ______ ____
ROOT
ATOM      1  C   UNL     1      -2.988   0.661  -1.417  0.00  0.00    +0.027 C 
ATOM      2  C   UNL     1      -2.482   0.817   0.018  0.00  0.00    +0.117 C 
ENDROOT
BRANCH   2   3
ATOM      3  C   UNL     1      -1.203   1.615   0.017  0.00  0.00    +0.124 A 
ATOM      4  N   UNL     1      -0.011   0.966   0.007  0.00  0.00    -0.309 N 
ATOM      5  H   UNL     1       0.002  -0.004   0.002  0.00  0.00    +0.170 HD
ATOM      6  C   UNL     1       1.153   1.641  -0.000  0.00  0.00    +0.260 A 
ATOM      7  O   UNL     1       2.215   1.044  -0.014  0.00  0.00    -0.267 OA
ATOM      8  C   UNL     1       1.125   3.072   0.008  0.00  0.00    +0.083 A 
ATOM      9  C   UNL     1       2.236   4.017   0.002  0.00  0.00    +0.039 A 
ATOM     10  C   UNL     1       1.961   5.346   0.011  0.00  0.00    +0.059 A 
ATOM     11  S   UNL     1       0.179   5.398   0.029  0.00  0.00    -0.076 S 
ATOM     12  C   UNL     1      -0.153   3.655   0.023  0.00  0.00    +0.116 A 
ATOM     13  N   UNL     1      -1.261   2.920   0.029  0.00  0.00    -0.225 NA
BRANCH   9  14
ATOM     14  C   UNL     1       3.633   3.537  -0.014  0.00  0.00    +0.136 A 
ATOM     15  C   UNL     1       4.609   3.948  -0.868  0.00  0.00    +0.050 A 
ATOM     16  C   UNL     1       5.776   3.236  -0.524  0.00  0.00    +0.042 A 
ATOM     17  C   UNL     1       5.456   2.429   0.506  0.00  0.00    +0.196 A 
ATOM     18  O   UNL     1       4.160   2.613   0.812  0.00  0.00    -0.463 OA
ENDBRANCH   9  14
ENDBRANCH   2   3
BRANCH   2  19
ATOM     19  S   UNL     1      -3.729   1.678   1.008  0.00  0.00    -0.075 S 
BRANCH  19  20
ATOM     20  C   UNL     1      -5.027   0.487   0.967  0.00  0.00    +0.192 A 
ATOM     21  N   UNL     1      -5.003  -0.673   0.353  0.00  0.00    -0.122 NA
ATOM     22  N   UNL     1      -6.118  -1.286   0.533  0.00  0.00    -0.130 NA
ATOM     23  C   UNL     1      -6.917  -0.556   1.259  0.00  0.00    +0.172 A 
ATOM     24  N   UNL     1      -6.251   0.599   1.561  0.00  0.00    -0.306 N 
ATOM     25  C   UNL     1      -6.748   1.724   2.358  0.00  0.00    +0.153 C 
BRANCH  23  26
ATOM     26  C   UNL     1      -8.316  -0.919   1.687  0.00  0.00    +0.305 C 
BRANCH  26  27
ATOM     27  O   UNL     1      -9.248  -0.459   0.706  0.00  0.00    -0.483 OA
BRANCH  27  28
ATOM     28  C   UNL     1     -10.564  -0.707   0.941  0.00  0.00    +0.139 A 
ATOM     29  C   UNL     1     -10.949  -1.384   2.089  0.00  0.00    +0.047 A 
ATOM     30  C   UNL     1     -12.287  -1.630   2.328  0.00  0.00    +0.004 A 
ATOM     31  C   UNL     1     -13.242  -1.213   1.419  0.00  0.00    +0.002 A 
ATOM     32  C   UNL     1     -12.861  -0.543   0.271  0.00  0.00    +0.023 A 
ATOM     33  C   UNL     1     -11.524  -0.289   0.030  0.00  0.00    +0.083 A 
ATOM     34 CL   UNL     1     -11.045   0.551  -1.412  0.00  0.00    -0.080 Cl
ENDBRANCH  27  28
ENDBRANCH  26  27
ENDBRANCH  23  26
ENDBRANCH  19  20
ENDBRANCH   2  19
TORSDOF 7
