REMARK  Name = ZINC03383116
REMARK  7 active torsions:
REMARK  status: ('A' for Active; 'I' for Inactive)
REMARK    1  A    between atoms: C_1  and  C_2
REMARK    2  A    between atoms: C_5  and  N_8
REMARK    3  A    between atoms: C_9  and  C_20
REMARK    4  A    between atoms: C_21  and  C_39
REMARK    5  A    between atoms: N_23  and  C_33
REMARK    6  A    between atoms: C_24  and  O_25
REMARK    7  A    between atoms: O_25  and  C_26
REMARK                            x       y       z     vdW  Elec       q    Type
REMARK                         _______ _______ _______ _____ _____    ______ ____
ROOT
ATOM      1  C   UNL     1      -1.585   4.350   1.779  0.00  0.00    +0.076 A 
ATOM      2  C   UNL     1      -0.934   5.005   2.829  0.00  0.00    +0.071 A 
ATOM      3  N   UNL     1      -0.890   4.197   3.858  0.00  0.00    -0.168 NA
ATOM      4  N   UNL     1      -1.505   2.991   3.498  0.00  0.00    -0.200 N 
ATOM      5  C   UNL     1      -1.927   3.107   2.210  0.00  0.00    +0.230 A 
ATOM      6  C   UNL     1      -0.380   6.406   2.786  0.00  0.00    +0.068 C 
ENDROOT
BRANCH   1   8
ATOM      7  N   UNL     1      -2.940   4.170  -0.221  0.00  0.00    -0.244 N 
ATOM      8  C   UNL     1      -1.854   4.919   0.410  0.00  0.00    +0.204 C 
ATOM      9  N   UNL     1      -2.218   6.335   0.535  0.00  0.00    -0.321 N 
ATOM     10  C   UNL     1      -3.499   6.661   0.967  0.00  0.00    +0.041 A 
ATOM     11  C   UNL     1      -3.763   7.841   1.642  0.00  0.00    +0.024 A 
ATOM     12  C   UNL     1      -5.054   8.126   2.044  0.00  0.00    +0.002 A 
ATOM     13  C   UNL     1      -6.088   7.245   1.767  0.00  0.00    +0.001 A 
ATOM     14  C   UNL     1      -5.843   6.066   1.094  0.00  0.00    +0.015 A 
ATOM     15  C   UNL     1      -4.544   5.760   0.694  0.00  0.00    +0.058 A 
ATOM     16  C   UNL     1      -4.229   4.513  -0.025  0.00  0.00    +0.254 C 
ATOM     17  O   UNL     1      -5.124   3.800  -0.437  0.00  0.00    -0.270 OA
ATOM     18  H   UNL     1      -1.578   7.031   0.321  0.00  0.00    +0.148 HD
BRANCH   7  23
ATOM     19  C   UNL     1      -1.710  -0.253  -3.553  0.00  0.00    +0.044 C 
ATOM     20  C   UNL     1      -2.037   0.922  -2.668  0.00  0.00    -0.050 A 
ATOM     21  C   UNL     1      -3.339   1.380  -2.582  0.00  0.00    +0.005 A 
ATOM     22  C   UNL     1      -3.642   2.457  -1.772  0.00  0.00    +0.024 A 
ATOM     23  C   UNL     1      -2.637   3.080  -1.043  0.00  0.00    +0.039 A 
ATOM     24  C   UNL     1      -1.329   2.621  -1.136  0.00  0.00    +0.024 A 
ATOM     25  C   UNL     1      -1.034   1.540  -1.943  0.00  0.00    +0.005 A 
ENDBRANCH   7  23
ENDBRANCH   1   8
BRANCH   4  26
ATOM     26  C   UNL     1      -1.659   1.865   4.319  0.00  0.00    +0.069 A 
ATOM     27  C   UNL     1      -2.875   1.197   4.364  0.00  0.00    +0.028 A 
ATOM     28  C   UNL     1      -3.022   0.085   5.170  0.00  0.00    +0.002 A 
ATOM     29  C   UNL     1      -1.962  -0.357   5.940  0.00  0.00    +0.000 A 
ATOM     30  C   UNL     1      -0.751   0.310   5.903  0.00  0.00    +0.002 A 
ATOM     31  C   UNL     1      -0.597   1.419   5.094  0.00  0.00    +0.028 A 
ENDBRANCH   4  26
BRANCH   5  32
ATOM     32  O   UNL     1      -2.572   2.156   1.488  0.00  0.00    -0.438 OA
BRANCH  32  33
ATOM     33  C   UNL     1      -3.920   2.054   1.627  0.00  0.00    +0.131 A 
ATOM     34  C   UNL     1      -4.618   3.010   2.352  0.00  0.00    +0.049 A 
ATOM     35  C   UNL     1      -5.989   2.908   2.488  0.00  0.00    +0.042 A 
ATOM     36  C   UNL     1      -6.665   1.847   1.910  0.00  0.00    +0.124 A 
ATOM     37  C   UNL     1      -5.970   0.891   1.190  0.00  0.00    +0.042 A 
ATOM     38  C   UNL     1      -4.600   0.993   1.048  0.00  0.00    +0.049 A 
ATOM     39  F   UNL     1      -8.006   1.746   2.048  0.00  0.00    -0.205 F 
ENDBRANCH  32  33
ENDBRANCH   5  32
TORSDOF 5
