REMARK  Name = ZINC12566185
REMARK  4 active torsions:
REMARK  status: ('A' for Active; 'I' for Inactive)
REMARK    1  A    between atoms: C_1  and  C_2
REMARK    2  A    between atoms: N_10  and  N_11
REMARK    3  A    between atoms: C_12  and  C_13
REMARK    4  A    between atoms: C_22  and  O_23
REMARK                            x       y       z     vdW  Elec       q    Type
REMARK                         _______ _______ _______ _____ _____    ______ ____
ROOT
ATOM      1  N   UNL     1       3.610  -1.839  -0.025  0.00  0.00    -0.187 NA
ATOM      2  C   UNL     1       4.766  -2.434  -0.034  0.00  0.00    +0.142 C 
ENDROOT
BRANCH   1  12
ATOM      3  C   UNL     1      -0.018   1.503   0.010  0.00  0.00    +0.066 C 
ATOM      4  C   UNL     1       0.002  -0.004   0.002  0.00  0.00    +0.047 A 
ATOM      5  C   UNL     1      -1.171  -0.701   0.004  0.00  0.00    +0.093 A 
ATOM      6  C   UNL     1      -1.127  -2.107  -0.004  0.00  0.00    +0.253 A 
ATOM      7  O   UNL     1      -2.157  -2.761  -0.003  0.00  0.00    -0.268 OA
ATOM      8  N   UNL     1       0.076  -2.718  -0.013  0.00  0.00    -0.294 N 
ATOM      9  H   UNL     1       0.131  -3.687  -0.019  0.00  0.00    +0.172 HD
ATOM     10  C   UNL     1       1.215  -1.970  -0.015  0.00  0.00    +0.216 A 
ATOM     11  N   UNL     1       1.164  -0.652  -0.013  0.00  0.00    -0.220 NA
ATOM     12  N   UNL     1       2.432  -2.597  -0.024  0.00  0.00    -0.207 N 
ATOM     13  H   UNL     1       2.479  -3.566  -0.029  0.00  0.00    +0.177 HD
ENDBRANCH   1  12
BRANCH   2  14
ATOM     14  C   UNL     1       6.002  -1.639  -0.036  0.00  0.00    +0.044 A 
ATOM     15  C   UNL     1       7.310  -2.291  -0.051  0.00  0.00    -0.006 A 
ATOM     16  C   UNL     1       7.430  -3.686  -0.066  0.00  0.00    +0.009 A 
ATOM     17  C   UNL     1       8.669  -4.255  -0.081  0.00  0.00    +0.001 A 
ATOM     18  C   UNL     1       9.818  -3.468  -0.082  0.00  0.00    +0.001 A 
ATOM     19  C   UNL     1       9.736  -2.109  -0.068  0.00  0.00    +0.008 A 
ATOM     20  C   UNL     1       8.476  -1.488  -0.053  0.00  0.00    -0.017 A 
ATOM     21  C   UNL     1       8.353  -0.087  -0.040  0.00  0.00    +0.012 A 
ATOM     22  C   UNL     1       7.129   0.503  -0.025  0.00  0.00    +0.046 A 
ATOM     23  C   UNL     1       5.952  -0.245  -0.028  0.00  0.00    +0.126 A 
BRANCH  23  24
ATOM     24  O   UNL     1       4.751   0.387  -0.019  0.00  0.00    -0.506 OA
ATOM     25  H   UNL     1       4.407   0.566   0.867  0.00  0.00    +0.292 HD
ENDBRANCH  23  24
ENDBRANCH   2  14
TORSDOF 3
