REMARK  Name = ZINC59018576
REMARK  9 active torsions:
REMARK  status: ('A' for Active; 'I' for Inactive)
REMARK    1  A    between atoms: C_3  and  O_28
REMARK    2  A    between atoms: C_6  and  N_7
REMARK    3  A    between atoms: C_8  and  C_10
REMARK    4  A    between atoms: C_10  and  S_11
REMARK    5  A    between atoms: S_11  and  C_12
REMARK    6  A    between atoms: N_17  and  N_18
REMARK    7  A    between atoms: C_19  and  C_20
REMARK    8  A    between atoms: C_25  and  O_26
REMARK    9  A    between atoms: O_28  and  C_29
REMARK                            x       y       z     vdW  Elec       q    Type
REMARK                         _______ _______ _______ _____ _____    ______ ____
ROOT
ATOM      1  C   UNL     1      -3.724  -5.345  -0.450  0.00  0.00    +0.211 A 
ATOM      2  N   UNL     1      -3.964  -6.655  -0.559  0.00  0.00    -0.186 NA
ATOM      3  C   UNL     1      -5.263  -6.864  -0.621  0.00  0.00    +0.232 A 
ATOM      4  N   UNL     1      -5.881  -5.666  -0.550  0.00  0.00    -0.245 N 
ATOM      5  N   UNL     1      -4.867  -4.702  -0.435  0.00  0.00    -0.144 NA
ATOM      6  N   UNL     1      -5.883  -8.094  -0.738  0.00  0.00    -0.205 N 
ATOM      7  H   UNL     1      -6.851  -8.147  -0.776  0.00  0.00    +0.177 HD
ATOM      8  H   UNL     1      -6.837  -5.504  -0.571  0.00  0.00    +0.192 HD
ENDROOT
BRANCH   6   9
ATOM      9  N   UNL     1      -5.115  -9.264  -0.801  0.00  0.00    -0.187 NA
ATOM     10  C   UNL     1      -5.698 -10.419  -0.911  0.00  0.00    +0.142 C 
BRANCH  10  11
ATOM     11  C   UNL     1      -4.889 -11.649  -0.978  0.00  0.00    +0.037 A 
ATOM     12  C   UNL     1      -5.512 -12.893  -1.101  0.00  0.00    +0.033 A 
ATOM     13  C   UNL     1      -4.749 -14.041  -1.164  0.00  0.00    +0.042 A 
ATOM     14  C   UNL     1      -3.367 -13.965  -1.104  0.00  0.00    +0.023 A 
ATOM     15  C   UNL     1      -2.740 -12.739  -0.981  0.00  0.00    +0.047 A 
ATOM     16  C   UNL     1      -3.491 -11.577  -0.923  0.00  0.00    +0.126 A 
ATOM     17 CL   UNL     1      -5.524 -15.587  -1.317  0.00  0.00    -0.084 Cl
BRANCH  16  18
ATOM     18  O   UNL     1      -2.874 -10.372  -0.807  0.00  0.00    -0.506 OA
ATOM     19  H   UNL     1      -2.727 -10.091   0.106  0.00  0.00    +0.292 HD
ENDBRANCH  16  18
ENDBRANCH  10  11
ENDBRANCH   6   9
BRANCH   1  20
ATOM     20  S   UNL     1      -2.130  -4.602  -0.337  0.00  0.00    -0.075 S 
BRANCH  20  21
ATOM     21  C   UNL     1      -2.482  -2.827  -0.204  0.00  0.00    +0.173 C 
BRANCH  21  23
ATOM     22  N   UNL     1      -1.202  -0.721   0.010  0.00  0.00    -0.285 N 
ATOM     23  C   UNL     1      -1.186  -2.065  -0.099  0.00  0.00    +0.227 C 
ATOM     24  O   UNL     1      -0.129  -2.660  -0.113  0.00  0.00    -0.275 OA
ATOM     25  H   UNL     1      -2.046  -0.252   0.098  0.00  0.00    +0.155 HD
BRANCH  22  31
ATOM     26  C   UNL     1       1.071  -0.455  -0.766  0.00  0.00    +0.027 A 
ATOM     27  C   UNL     1       2.256   0.254  -0.780  0.00  0.00    +0.048 A 
ATOM     28  C   UNL     1       2.379   1.415  -0.032  0.00  0.00    +0.130 A 
ATOM     29  C   UNL     1       1.311   1.866   0.730  0.00  0.00    +0.048 A 
ATOM     30  C   UNL     1       0.126   1.159   0.745  0.00  0.00    +0.027 A 
ATOM     31  C   UNL     1       0.002  -0.004  -0.004  0.00  0.00    +0.034 A 
BRANCH  28  32
ATOM     32  O   UNL     1       3.547   2.112  -0.045  0.00  0.00    -0.406 OA
BRANCH  32  33
ATOM     33  C   UNL     1       3.603   3.299   0.748  0.00  0.00    +0.575 C 
ATOM     34  F   UNL     1       3.375   2.974   2.090  0.00  0.00    -0.133 F 
ATOM     35  F   UNL     1       4.866   3.886   0.619  0.00  0.00    -0.133 F 
ATOM     36  F   UNL     1       2.624   4.198   0.313  0.00  0.00    -0.133 F 
ENDBRANCH  32  33
ENDBRANCH  28  32
ENDBRANCH  22  31
ENDBRANCH  21  23
ENDBRANCH  20  21
ENDBRANCH   1  20
TORSDOF 9
