REMARK  Name = ZINC22930852
REMARK  8 active torsions:
REMARK  status: ('A' for Active; 'I' for Inactive)
REMARK    1  A    between atoms: C_1  and  C_2
REMARK    2  A    between atoms: C_2  and  C_4
REMARK    3  A    between atoms: C_2  and  N_19
REMARK    4  A    between atoms: C_6  and  C_9
REMARK    5  A    between atoms: C_13  and  C_15
REMARK    6  A    between atoms: N_22  and  C_25
REMARK    7  A    between atoms: C_25  and  C_26
REMARK    8  A    between atoms: C_29  and  C_31
REMARK                            x       y       z     vdW  Elec       q    Type
REMARK                         _______ _______ _______ _____ _____    ______ ____
ROOT
ATOM      1  N   UNL     1      -0.996   9.548   1.034  0.00  0.00    +0.389 N 
ATOM      2  C   UNL     1      -0.911   8.937   2.368  0.00  0.00    -0.062 C 
ATOM      3  C   UNL     1      -0.255   9.924   3.337  0.00  0.00    +0.066 C 
ATOM      4  N   UNL     1      -1.042  11.164   3.377  0.00  0.00    -0.300 NA
ATOM      5  C   UNL     1      -1.127  11.774   2.043  0.00  0.00    +0.066 C 
ATOM      6  C   UNL     1      -1.783  10.788   1.074  0.00  0.00    -0.062 C 
ATOM      7  H   UNL     1       0.025   9.804   0.712  0.00  0.00    -0.081 HD
ENDROOT
BRANCH   1   9
ATOM      8  C   UNL     1      -1.536   9.239  -1.335  0.00  0.00    -0.003 C 
ATOM      9  C   UNL     1      -1.552   8.603   0.057  0.00  0.00    +0.019 C 
BRANCH   9  10
ATOM     10  C   UNL     1      -0.720   7.346   0.043  0.00  0.00    +0.214 A 
ATOM     11  N   UNL     1      -1.169   6.116   0.037  0.00  0.00    -0.193 NA
ATOM     12  C   UNL     1      -0.070   5.328   0.029  0.00  0.00    +0.202 A 
ATOM     13  N   UNL     1       0.971   6.119   0.021  0.00  0.00    -0.056 NA
ATOM     14  O   UNL     1       0.615   7.278   0.030  0.00  0.00    -0.339 OA
BRANCH  12  15
ATOM     15  C   UNL     1      -0.050   3.844   0.022  0.00  0.00    +0.023 A 
ATOM     16  C   UNL     1      -1.246   3.128   0.030  0.00  0.00    +0.012 A 
ATOM     17  C   UNL     1      -1.221   1.749   0.017  0.00  0.00    +0.001 A 
ATOM     18  C   UNL     1      -0.013   1.076   0.008  0.00  0.00    +0.012 A 
ATOM     19  C   UNL     1       1.177   1.781   0.000  0.00  0.00    +0.055 A 
ATOM     20  C   UNL     1       1.164   3.161   0.007  0.00  0.00    +0.024 A 
BRANCH  19  21
ATOM     21  C   UNL     1       2.490   1.041  -0.016  0.00  0.00    +0.417 C 
ATOM     22  F   UNL     1       2.249  -0.337  -0.020  0.00  0.00    -0.166 F 
ATOM     23  F   UNL     1       3.209   1.393  -1.163  0.00  0.00    -0.166 F 
ATOM     24  F   UNL     1       3.231   1.381   1.121  0.00  0.00    -0.166 F 
ENDBRANCH  19  21
ENDBRANCH  12  15
ENDBRANCH   9  10
ENDBRANCH   1   9
BRANCH   4  25
ATOM     25  C   UNL     1      -0.486  12.109   4.355  0.00  0.00    +0.140 C 
BRANCH  25  26
ATOM     26  C   UNL     1      -0.640  11.544   5.743  0.00  0.00    +0.063 A 
ATOM     27  C   UNL     1       0.382  10.855   6.315  0.00  0.00    +0.072 A 
ATOM     28  S   UNL     1      -0.341  10.443   7.898  0.00  0.00    -0.072 S 
ATOM     29  C   UNL     1      -1.922  11.232   7.628  0.00  0.00    +0.144 A 
ATOM     30  N   UNL     1      -1.760  11.723   6.404  0.00  0.00    -0.240 NA
BRANCH  29  31
ATOM     31  C   UNL     1      -3.087  11.319   8.522  0.00  0.00    +0.160 A 
ATOM     32  C   UNL     1      -3.178  10.785   9.772  0.00  0.00    +0.052 A 
ATOM     33  C   UNL     1      -4.458  11.110  10.260  0.00  0.00    +0.042 A 
ATOM     34  C   UNL     1      -5.083  11.812   9.293  0.00  0.00    +0.196 A 
ATOM     35  O   UNL     1      -4.253  11.936   8.245  0.00  0.00    -0.461 OA
ENDBRANCH  29  31
ENDBRANCH  25  26
ENDBRANCH   4  25
TORSDOF 7
