REMARK  Name = ZINC06300990
REMARK  7 active torsions:
REMARK  status: ('A' for Active; 'I' for Inactive)
REMARK    1  A    between atoms: C_1  and  C_2
REMARK    2  A    between atoms: C_4  and  C_33
REMARK    3  A    between atoms: C_9  and  C_14
REMARK    4  A    between atoms: C_14  and  C_16
REMARK    5  A    between atoms: C_14  and  N_66
REMARK    6  A    between atoms: N_20  and  C_21
REMARK    7  A    between atoms: C_29  and  C_32
REMARK                            x       y       z     vdW  Elec       q    Type
REMARK                         _______ _______ _______ _____ _____    ______ ____
ROOT
ATOM      1  C   UNL     1      -2.604   3.705   0.049  0.00  0.00    +0.039 C 
ENDROOT
BRANCH   1  10
ATOM      2  C   UNL     1       4.843   3.627   0.438  0.00  0.00    +0.044 C 
ATOM      3  C   UNL     1       3.526   2.906   0.308  0.00  0.00    -0.050 A 
ATOM      4  C   UNL     1       3.508   1.522   0.190  0.00  0.00    +0.008 A 
ATOM      5  C   UNL     1       2.315   0.843   0.070  0.00  0.00    -0.026 A 
ATOM      6  C   UNL     1       1.116   1.548   0.066  0.00  0.00    +0.052 A 
ATOM      7  C   UNL     1       1.139   2.950   0.185  0.00  0.00    -0.001 A 
ATOM      8  C   UNL     1       2.361   3.619   0.307  0.00  0.00    +0.013 A 
ATOM      9  C   UNL     1      -0.129   3.683   0.180  0.00  0.00    +0.017 A 
ATOM     10  C   UNL     1      -1.283   2.981   0.059  0.00  0.00    +0.011 A 
ATOM     11  C   UNL     1      -1.250   1.576  -0.066  0.00  0.00    +0.251 A 
ATOM     12  O   UNL     1      -2.298   0.965  -0.179  0.00  0.00    -0.268 OA
ATOM     13  N   UNL     1      -0.091   0.893  -0.055  0.00  0.00    -0.322 N 
ATOM     14  H   UNL     1      -0.105  -0.073  -0.137  0.00  0.00    +0.169 HD
ATOM     15  C   UNL     1       2.310  -0.659  -0.057  0.00  0.00    +0.046 C 
ENDBRANCH   1  10
BRANCH   1  22
ATOM     16  C   UNL     1      -4.721   3.885  -1.112  0.00  0.00    -0.077 C 
ATOM     17  C   UNL     1      -5.531   3.343  -2.292  0.00  0.00    -0.015 C 
ATOM     18  C   UNL     1      -4.830   3.718  -3.601  0.00  0.00    -0.018 C 
ATOM     19  C   UNL     1      -3.406   3.155  -3.588  0.00  0.00    -0.015 C 
ATOM     20  C   UNL     1      -2.658   3.703  -2.371  0.00  0.00    -0.077 C 
ATOM     21  C   UNL     1      -5.603   3.127  -4.782  0.00  0.00    +0.007 C 
ATOM     22  N   UNL     1      -3.369   3.287  -1.143  0.00  0.00    +0.389 N 
ATOM     23  H   UNL     1      -3.458   2.264  -1.140  0.00  0.00    -0.080 HD
ENDBRANCH   1  22
BRANCH   1  24
ATOM     24  C   UNL     1      -3.386   3.341   1.286  0.00  0.00    +0.143 A 
ATOM     25  N   UNL     1      -4.011   2.212   1.512  0.00  0.00    -0.115 NA
ATOM     26  N   UNL     1      -4.557   2.285   2.676  0.00  0.00    -0.023 NA
ATOM     27  N   UNL     1      -4.297   3.433   3.199  0.00  0.00    -0.044 NA
ATOM     28  N   UNL     1      -3.572   4.111   2.374  0.00  0.00    -0.227 N 
BRANCH  28  29
ATOM     29  C   UNL     1      -3.053   5.465   2.582  0.00  0.00    +0.111 C 
ATOM     30  C   UNL     1      -2.151   5.481   3.817  0.00  0.00    +0.027 C 
ATOM     31  C   UNL     1      -1.609   6.895   4.034  0.00  0.00    +0.002 C 
ATOM     32  C   UNL     1      -2.776   7.862   4.242  0.00  0.00    +0.000 C 
ATOM     33  C   UNL     1      -3.678   7.846   3.007  0.00  0.00    +0.002 C 
ATOM     34  C   UNL     1      -4.220   6.432   2.790  0.00  0.00    +0.027 C 
ENDBRANCH  28  29
ENDBRANCH   1  24
TORSDOF 4
