REMARK  Name = ZINC64788609
REMARK  5 active torsions:
REMARK  status: ('A' for Active; 'I' for Inactive)
REMARK    1  A    between atoms: C_1  and  C_2
REMARK    2  A    between atoms: C_5  and  C_7
REMARK    3  A    between atoms: N_18  and  C_21
REMARK    4  A    between atoms: C_26  and  O_27
REMARK    5  A    between atoms: O_27  and  C_28
REMARK                            x       y       z     vdW  Elec       q    Type
REMARK                         _______ _______ _______ _____ _____    ______ ____
ROOT
ATOM      1  C   UNL     1       1.043  -4.062  -0.027  0.00  0.00    +0.115 C 
ATOM      2  C   UNL     1       1.551  -4.471   1.377  0.00  0.00    +0.078 C 
ATOM      3  C   UNL     1       2.783  -5.294   1.046  0.00  0.00    +0.038 C 
ATOM      4  N   UNL     1       3.106  -5.057  -0.240  0.00  0.00    -0.283 N 
ATOM      5  N   UNL     1       2.279  -4.152  -0.838  0.00  0.00    -0.235 NA
ATOM      6  C   UNL     1       3.456  -6.136   1.911  0.00  0.00    +0.118 C 
ATOM      7  C   UNL     1       3.009  -6.325   3.303  0.00  0.00    +0.258 C 
ATOM      8  N   UNL     1       3.714  -7.163   4.091  0.00  0.00    -0.235 N 
ATOM      9  C   UNL     1       4.794  -7.812   3.634  0.00  0.00    +0.320 C 
ATOM     10  O   UNL     1       5.386  -8.553   4.394  0.00  0.00    -0.251 OA
ATOM     11  N   UNL     1       5.256  -7.689   2.381  0.00  0.00    -0.186 N 
ATOM     12  C   UNL     1       4.647  -6.890   1.481  0.00  0.00    +0.265 C 
ATOM     13  O   UNL     1       5.073  -6.790   0.345  0.00  0.00    -0.269 OA
ATOM     14  O   UNL     1       2.031  -5.740   3.730  0.00  0.00    -0.270 OA
ATOM     15  H   UNL     1       2.070  -4.424  -1.787  0.00  0.00    +0.145 HD
ATOM     16  H   UNL     1       3.434  -7.298   5.010  0.00  0.00    +0.159 HD
ATOM     17  H   UNL     1       3.848  -5.487  -0.694  0.00  0.00    +0.166 HD
ENDROOT
BRANCH   1  22
ATOM     18  C   UNL     1      -0.018   1.503   0.010  0.00  0.00    +0.051 C 
ATOM     19  C   UNL     1       0.002  -0.004   0.002  0.00  0.00    -0.013 A 
ATOM     20  C   UNL     1      -1.039  -0.872   0.002  0.00  0.00    +0.011 A 
ATOM     21  C   UNL     1      -0.780  -2.230  -0.007  0.00  0.00    +0.013 A 
ATOM     22  C   UNL     1       0.507  -2.653  -0.016  0.00  0.00    +0.009 A 
ATOM     23  S   UNL     1       1.404  -1.109  -0.018  0.00  0.00    -0.097 S 
ENDBRANCH   1  22
BRANCH  11  24
ATOM     24  C   UNL     1       6.395  -8.411   1.996  0.00  0.00    +0.087 A 
ATOM     25  C   UNL     1       6.263  -9.681   1.454  0.00  0.00    +0.028 A 
ATOM     26  C   UNL     1       7.387 -10.391   1.075  0.00  0.00    +0.002 A 
ATOM     27  C   UNL     1       8.644  -9.838   1.236  0.00  0.00    +0.004 A 
ATOM     28  C   UNL     1       8.784  -8.574   1.776  0.00  0.00    +0.047 A 
ATOM     29  C   UNL     1       7.662  -7.854   2.153  0.00  0.00    +0.142 A 
BRANCH  29  30
ATOM     30  O   UNL     1       7.797  -6.607   2.679  0.00  0.00    -0.493 OA
ATOM     31  C   UNL     1       9.126  -6.099   2.811  0.00  0.00    +0.277 C 
ENDBRANCH  29  30
ENDBRANCH  11  24
TORSDOF 3
