REMARK  Name = ZINC64538951
REMARK  12 active torsions:
REMARK  status: ('A' for Active; 'I' for Inactive)
REMARK    1  A    between atoms: C_1  and  C_2
REMARK    2  A    between atoms: C_2  and  O_3
REMARK    3  A    between atoms: O_3  and  C_4
REMARK    4  A    between atoms: C_4  and  C_6
REMARK    5  A    between atoms: C_8  and  C_37
REMARK    6  A    between atoms: C_9  and  C_13
REMARK    7  A    between atoms: C_11  and  C_12
REMARK    8  A    between atoms: C_19  and  C_22
REMARK    9  A    between atoms: N_24  and  C_25
REMARK   10  A    between atoms: C_25  and  C_26
REMARK   11  A    between atoms: C_26  and  C_27
REMARK   12  A    between atoms: C_30  and  C_36
REMARK                            x       y       z     vdW  Elec       q    Type
REMARK                         _______ _______ _______ _____ _____    ______ ____
ROOT
ATOM      1  C   UNL     1       3.354  -5.553  -2.412  0.00  0.00    +0.265 C 
ATOM      2  O   UNL     1       2.596  -6.486  -2.231  0.00  0.00    -0.268 OA
ATOM      3  N   UNL     1       4.681  -5.771  -2.500  0.00  0.00    -0.296 N 
ATOM      4  C   UNL     1       5.624  -4.645  -2.538  0.00  0.00    +0.108 C 
ATOM      5  C   UNL     1       6.671  -4.841  -1.437  0.00  0.00    +0.020 C 
ATOM      6  C   UNL     1       7.326  -6.214  -1.601  0.00  0.00    +0.016 C 
ATOM      7  C   UNL     1       6.265  -7.308  -1.459  0.00  0.00    +0.092 C 
ATOM      8  C   UNL     1       5.213  -7.140  -2.553  0.00  0.00    +0.120 C 
ENDROOT
BRANCH   1  11
ATOM      9  C   UNL     1       1.470  -2.353  -2.564  0.00  0.00    +0.169 C 
ATOM     10  C   UNL     1       1.536  -3.849  -2.317  0.00  0.00    -0.023 C 
ATOM     11  C   UNL     1       2.820  -4.181  -2.538  0.00  0.00    +0.126 C 
ATOM     12  N   UNL     1       3.570  -3.099  -2.889  0.00  0.00    -0.250 NA
ATOM     13  C   UNL     1       2.896  -1.999  -2.937  0.00  0.00    +0.034 C 
ATOM     14  C   UNL     1       3.420  -0.632  -3.293  0.00  0.00    +0.062 C 
ATOM     15  C   UNL     1       0.409  -4.763  -1.913  0.00  0.00    +0.042 C 
BRANCH   9  16
ATOM     16  C   UNL     1       1.050  -1.625  -1.313  0.00  0.00    +0.320 C 
ATOM     17  O   UNL     1       0.780  -2.247  -0.314  0.00  0.00    -0.250 OA
BRANCH  16  18
ATOM     18  O   UNL     1       0.978  -0.284  -1.310  0.00  0.00    -0.464 OA
BRANCH  18  20
ATOM     19  C   UNL     1       0.549   1.858  -0.277  0.00  0.00    +0.048 C 
ATOM     20  C   UNL     1       0.573   0.340  -0.089  0.00  0.00    +0.229 C 
ENDBRANCH  18  20
ENDBRANCH  16  18
ENDBRANCH   9  16
ENDBRANCH   1  11
BRANCH   7  21
ATOM     21  C   UNL     1       6.917  -8.661  -1.588  0.00  0.00    +0.218 C 
ATOM     22  O   UNL     1       8.112  -8.743  -1.775  0.00  0.00    -0.275 OA
ATOM     23  N   UNL     1       6.171  -9.779  -1.495  0.00  0.00    -0.315 N 
ATOM     24  H   UNL     1       5.215  -9.714  -1.345  0.00  0.00    +0.149 HD
BRANCH  23  25
ATOM     25  C   UNL     1       6.804 -11.095  -1.620  0.00  0.00    +0.108 C 
BRANCH  25  26
ATOM     26  C   UNL     1       5.743 -12.187  -1.477  0.00  0.00    +0.052 C 
BRANCH  26  27
ATOM     27  C   UNL     1       6.394 -13.540  -1.606  0.00  0.00    -0.040 C 
ATOM     28  C   UNL     1       6.822 -14.336  -0.599  0.00  0.00    -0.001 A 
ATOM     29  C   UNL     1       6.811 -14.185   0.861  0.00  0.00    +0.013 A 
ATOM     30  C   UNL     1       7.324 -15.175   1.626  0.00  0.00    -0.050 A 
ATOM     31  C   UNL     1       7.865 -16.338   1.062  0.00  0.00    +0.005 A 
ATOM     32  C   UNL     1       7.911 -16.549  -0.271  0.00  0.00    +0.026 A 
ATOM     33  C   UNL     1       7.399 -15.574  -1.171  0.00  0.00    +0.043 A 
ATOM     34  N   UNL     1       7.330 -15.545  -2.479  0.00  0.00    -0.380 N 
ATOM     35  C   UNL     1       6.696 -14.286  -2.887  0.00  0.00    +0.144 C 
ATOM     36  C   UNL     1       7.314 -15.023   3.126  0.00  0.00    +0.044 C 
ATOM     37  H   UNL     1       7.643 -16.241  -3.078  0.00  0.00    +0.160 HD
ENDBRANCH  26  27
ENDBRANCH  25  26
ENDBRANCH  23  25
ENDBRANCH   7  21
TORSDOF 8
