REMARK  Name = ZINC08816229
REMARK  9 active torsions:
REMARK  status: ('A' for Active; 'I' for Inactive)
REMARK    1  A    between atoms: C_1  and  C_2
REMARK    2  A    between atoms: C_2  and  O_3
REMARK    3  A    between atoms: O_3  and  C_4
REMARK    4  A    between atoms: C_9  and  O_10
REMARK    5  A    between atoms: O_10  and  C_11
REMARK    6  A    between atoms: C_11  and  C_12
REMARK    7  A    between atoms: C_18  and  C_21
REMARK    8  A    between atoms: C_24  and  O_27
REMARK    9  A    between atoms: O_27  and  C_28
REMARK                            x       y       z     vdW  Elec       q    Type
REMARK                         _______ _______ _______ _____ _____    ______ ____
ROOT
ATOM      1  C   UNL     1      -3.746   3.215   0.058  0.00  0.00    +0.162 A 
ATOM      2  C   UNL     1      -3.490   2.169  -0.815  0.00  0.00    +0.053 A 
ATOM      3  C   UNL     1      -2.233   1.603  -0.860  0.00  0.00    -0.037 A 
ATOM      4  C   UNL     1      -1.243   2.047   0.013  0.00  0.00    +0.051 A 
ATOM      5  C   UNL     1      -1.482   3.112   0.861  0.00  0.00    +0.075 A 
ATOM      6  C   UNL     1      -2.737   3.701   0.884  0.00  0.00    +0.164 A 
ATOM      7  N   UNL     1      -0.016   1.362   0.009  0.00  0.00    -0.321 N 
ATOM      8  C   UNL     1       1.253   1.829  -0.000  0.00  0.00    +0.091 A 
ATOM      9  C   UNL     1       2.086   0.763  -0.027  0.00  0.00    +0.020 A 
ATOM     10  C   UNL     1       1.286  -0.400  -0.028  0.00  0.00    +0.022 A 
ATOM     11  C   UNL     1       0.002  -0.004   0.002  0.00  0.00    +0.014 A 
ATOM     12  C   UNL     1      -1.239  -0.850   0.035  0.00  0.00    +0.008 C 
ATOM     13  C   UNL     1      -1.896   0.524  -1.846  0.00  0.00    -0.043 C 
ATOM     14  N   UNL     1      -1.910  -0.842  -1.279  0.00  0.00    +0.390 N 
ATOM     15  H   UNL     1      -2.882  -1.153  -1.166  0.00  0.00    -0.084 HD
ATOM     16  H   UNL     1      -1.418  -1.480  -1.916  0.00  0.00    -0.084 HD
ENDROOT
BRANCH  12  17
ATOM     17  C   UNL     1      -0.866  -2.266   0.389  0.00  0.00    -0.056 A 
ATOM     18  C   UNL     1      -0.361  -3.110  -0.583  0.00  0.00    +0.006 A 
ATOM     19  C   UNL     1      -0.013  -4.408  -0.260  0.00  0.00    +0.046 A 
ATOM     20  C   UNL     1      -0.181  -4.867   1.039  0.00  0.00    +0.130 A 
ATOM     21  C   UNL     1      -0.693  -4.020   2.011  0.00  0.00    +0.046 A 
ATOM     22  C   UNL     1      -1.034  -2.721   1.684  0.00  0.00    +0.006 A 
BRANCH  20  23
ATOM     23  O   UNL     1       0.154  -6.145   1.357  0.00  0.00    -0.406 OA
BRANCH  23  24
ATOM     24  C   UNL     1       0.675  -6.960   0.306  0.00  0.00    +0.575 C 
ATOM     25  F   UNL     1       1.843  -6.380  -0.199  0.00  0.00    -0.133 F 
ATOM     26  F   UNL     1       0.965  -8.235   0.805  0.00  0.00    -0.133 F 
ATOM     27  F   UNL     1      -0.274  -7.065  -0.717  0.00  0.00    -0.133 F 
ENDBRANCH  23  24
ENDBRANCH  20  23
ENDBRANCH  12  17
BRANCH   1  28
ATOM     28  O   UNL     1      -4.988   3.770   0.107  0.00  0.00    -0.489 OA
BRANCH  28  30
ATOM     29  C   UNL     1      -7.298   3.969  -0.573  0.00  0.00    +0.048 C 
ATOM     30  C   UNL     1      -5.977   3.224  -0.769  0.00  0.00    +0.226 C 
ENDBRANCH  28  30
ENDBRANCH   1  28
BRANCH   6  31
ATOM     31  O   UNL     1      -2.982   4.750   1.714  0.00  0.00    -0.489 OA
BRANCH  31  32
ATOM     32  C   UNL     1      -1.899   5.195   2.533  0.00  0.00    +0.226 C 
ATOM     33  C   UNL     1      -2.360   6.375   3.392  0.00  0.00    +0.048 C 
ENDBRANCH  31  32
ENDBRANCH   6  31
TORSDOF 7
