REMARK  Name = ZINC21336165
REMARK  7 active torsions:
REMARK  status: ('A' for Active; 'I' for Inactive)
REMARK    1  A    between atoms: C_1  and  C_2
REMARK    2  A    between atoms: C_4  and  C_36
REMARK    3  A    between atoms: N_11  and  C_12
REMARK    4  A    between atoms: C_12  and  C_13
REMARK    5  A    between atoms: C_19  and  C_21
REMARK    6  A    between atoms: C_21  and  N_22
REMARK    7  A    between atoms: C_30  and  C_32
REMARK                            x       y       z     vdW  Elec       q    Type
REMARK                         _______ _______ _______ _____ _____    ______ ____
ROOT
ATOM      1  C   UNL     1       0.529  -6.986  -3.273  0.00  0.00    +0.044 C 
ATOM      2  C   UNL     1       1.486  -5.849  -3.525  0.00  0.00    -0.048 A 
ATOM      3  C   UNL     1       2.160  -5.786  -4.736  0.00  0.00    +0.008 A 
ATOM      4  C   UNL     1       3.038  -4.743  -4.968  0.00  0.00    -0.034 A 
ATOM      5  C   UNL     1       3.228  -3.789  -4.000  0.00  0.00    +0.044 A 
ATOM      6  C   UNL     1       2.560  -3.821  -2.755  0.00  0.00    +0.081 A 
ATOM      7  C   UNL     1       1.670  -4.902  -2.552  0.00  0.00    +0.032 A 
ATOM      8  N   UNL     1       2.853  -2.812  -1.907  0.00  0.00    -0.224 NA
ATOM      9  C   UNL     1       3.702  -1.858  -2.212  0.00  0.00    +0.168 A 
ATOM     10  S   UNL     1       4.214  -2.317  -3.862  0.00  0.00    -0.052 S 
ATOM     11  N   UNL     1       4.097  -0.770  -1.451  0.00  0.00    -0.245 N 
ATOM     12  C   UNL     1       4.991   0.109  -1.946  0.00  0.00    +0.239 C 
ATOM     13  O   UNL     1       5.379   0.001  -3.089  0.00  0.00    -0.273 OA
ATOM     14  C   UNL     1       3.781  -4.655  -6.276  0.00  0.00    +0.045 C 
ENDROOT
BRANCH  11  15
ATOM     15  C   UNL     1       3.543  -0.575  -0.109  0.00  0.00    +0.150 C 
BRANCH  15  16
ATOM     16  C   UNL     1       4.338  -1.383   0.885  0.00  0.00    -0.030 A 
ATOM     17  C   UNL     1       5.372  -0.792   1.585  0.00  0.00    +0.005 A 
ATOM     18  C   UNL     1       6.101  -1.533   2.496  0.00  0.00    +0.000 A 
ATOM     19  C   UNL     1       5.796  -2.865   2.707  0.00  0.00    +0.000 A 
ATOM     20  C   UNL     1       4.761  -3.456   2.006  0.00  0.00    +0.000 A 
ATOM     21  C   UNL     1       4.032  -2.715   1.095  0.00  0.00    +0.005 A 
ENDBRANCH  15  16
ENDBRANCH  11  15
BRANCH  12  22
ATOM     22  C   UNL     1       5.507   1.227  -1.077  0.00  0.00    +0.214 C 
BRANCH  22  23
ATOM     23  N   UNL     1       6.455   2.042  -1.842  0.00  0.00    -0.215 N 
ATOM     24  C   UNL     1       7.784   1.813  -1.891  0.00  0.00    +0.247 C 
ATOM     25  O   UNL     1       8.398   0.929  -1.333  0.00  0.00    -0.273 OA
ATOM     26  C   UNL     1       8.345   2.890  -2.790  0.00  0.00    +0.115 C 
ATOM     27  C   UNL     1       9.340   3.754  -2.023  0.00  0.00    +0.035 C 
ATOM     28  C   UNL     1       9.869   4.861  -2.938  0.00  0.00    +0.003 C 
ATOM     29  C   UNL     1      10.547   4.232  -4.157  0.00  0.00    +0.000 C 
ATOM     30  C   UNL     1       9.532   3.386  -4.929  0.00  0.00    +0.006 C 
ATOM     31  C   UNL     1       9.002   2.274  -4.021  0.00  0.00    +0.018 C 
ATOM     32  C   UNL     1       7.972   1.440  -4.785  0.00  0.00    +0.010 C 
ATOM     33  N   UNL     1       7.169   3.681  -3.177  0.00  0.00    -0.285 N 
ATOM     34  C   UNL     1       6.110   3.108  -2.574  0.00  0.00    +0.310 C 
ATOM     35  O   UNL     1       4.970   3.514  -2.682  0.00  0.00    -0.252 OA
ATOM     36  H   UNL     1       7.285   4.550  -3.841  0.00  0.00    +0.151 HD
ENDBRANCH  22  23
ENDBRANCH  12  22
TORSDOF 4
