REMARK  Name = ZINC01201179
REMARK  7 active torsions:
REMARK  status: ('A' for Active; 'I' for Inactive)
REMARK    1  A    between atoms: C_1  and  C_2
REMARK    2  A    between atoms: C_3  and  C_19
REMARK    3  A    between atoms: C_4  and  C_10
REMARK    4  A    between atoms: C_13  and  C_16
REMARK    5  A    between atoms: C_16  and  C_17
REMARK    6  A    between atoms: C_16  and  C_18
REMARK    7  A    between atoms: N_21  and  C_22
REMARK                            x       y       z     vdW  Elec       q    Type
REMARK                         _______ _______ _______ _____ _____    ______ ____
ROOT
ATOM      1  C   UNL     1      -5.304   5.034   4.261  0.00  0.00    +0.061 C 
ATOM      2  C   UNL     1      -3.934   4.460   4.516  0.00  0.00    +0.017 C 
ATOM      3  C   UNL     1      -3.680   3.175   4.189  0.00  0.00    +0.056 C 
ATOM      4  C   UNL     1      -2.290   2.639   4.463  0.00  0.00    +0.139 C 
ATOM      5  N   UNL     1      -1.322   3.571   5.067  0.00  0.00    -0.315 N 
ATOM      6  C   UNL     1      -1.725   4.828   5.337  0.00  0.00    +0.135 C 
ATOM      7  S   UNL     1      -0.611   5.922   6.039  0.00  0.00    -0.019 S 
ATOM      8  N   UNL     1      -2.969   5.250   5.074  0.00  0.00    -0.300 N 
ATOM      9  H   UNL     1      -0.416   3.286   5.266  0.00  0.00    +0.149 HD
ATOM     10  H   UNL     1      -3.197   6.167   5.292  0.00  0.00    +0.154 HD
ENDROOT
BRANCH   4  11
ATOM     11  C   UNL     1      -1.714   2.153   3.157  0.00  0.00    -0.023 A 
ATOM     12  C   UNL     1      -1.982   0.870   2.719  0.00  0.00    +0.006 A 
ATOM     13  C   UNL     1      -1.454   0.424   1.522  0.00  0.00    +0.004 A 
ATOM     14  C   UNL     1      -0.659   1.262   0.762  0.00  0.00    -0.045 A 
ATOM     15  C   UNL     1      -0.388   2.544   1.203  0.00  0.00    +0.004 A 
ATOM     16  C   UNL     1      -0.919   2.991   2.398  0.00  0.00    +0.006 A 
BRANCH  14  17
ATOM     17  C   UNL     1      -0.084   0.776  -0.543  0.00  0.00    +0.013 C 
ATOM     18  C   UNL     1       1.444   0.836  -0.480  0.00  0.00    +0.012 C 
ATOM     19  C   UNL     1      -0.582   1.667  -1.683  0.00  0.00    +0.012 C 
ENDBRANCH  14  17
ENDBRANCH   4  11
BRANCH   3  20
ATOM     20  C   UNL     1      -4.680   2.356   3.610  0.00  0.00    +0.248 C 
ATOM     21  O   UNL     1      -5.095   1.383   4.213  0.00  0.00    -0.270 OA
ATOM     22  N   UNL     1      -5.172   2.654   2.391  0.00  0.00    -0.282 N 
ATOM     23  H   UNL     1      -4.921   3.484   1.956  0.00  0.00    +0.155 HD
BRANCH  22  24
ATOM     24  C   UNL     1      -6.045   1.766   1.754  0.00  0.00    +0.034 A 
ATOM     25  C   UNL     1      -6.887   0.957   2.506  0.00  0.00    +0.024 A 
ATOM     26  C   UNL     1      -7.752   0.086   1.874  0.00  0.00    +0.017 A 
ATOM     27  C   UNL     1      -7.772   0.010   0.493  0.00  0.00    +0.018 A 
ATOM     28  C   UNL     1      -6.931   0.810  -0.259  0.00  0.00    +0.017 A 
ATOM     29  C   UNL     1      -6.068   1.688   0.367  0.00  0.00    +0.024 A 
ATOM     30 BR   UNL     1      -8.953  -1.190  -0.369  0.00  0.00    -0.050 Br
ENDBRANCH  22  24
ENDBRANCH   3  20
TORSDOF 4
