REMARK  Name = ZINC14744516
REMARK  11 active torsions:
REMARK  status: ('A' for Active; 'I' for Inactive)
REMARK    1  A    between atoms: C_1  and  C_2
REMARK    2  A    between atoms: C_2  and  C_4
REMARK    3  A    between atoms: C_2  and  C_14
REMARK    4  A    between atoms: C_4  and  C_5
REMARK    5  A    between atoms: C_14  and  N_71
REMARK    6  A    between atoms: N_22  and  C_36
REMARK    7  A    between atoms: N_25  and  C_26
REMARK    8  A    between atoms: C_26  and  C_27
REMARK    9  A    between atoms: C_27  and  C_28
REMARK   10  A    between atoms: C_31  and  O_34
REMARK   11  A    between atoms: O_34  and  C_35
REMARK                            x       y       z     vdW  Elec       q    Type
REMARK                         _______ _______ _______ _____ _____    ______ ____
ROOT
ATOM      1  C   UNL     1       5.835   2.986  -3.489  0.00  0.00    -0.076 C 
ATOM      2  C   UNL     1       5.852   3.252  -4.997  0.00  0.00    +0.017 C 
ATOM      3  C   UNL     1       7.093   4.066  -5.352  0.00  0.00    +0.112 C 
ATOM      4  C   UNL     1       7.132   5.359  -4.543  0.00  0.00    +0.017 C 
ATOM      5  C   UNL     1       7.074   5.024  -3.050  0.00  0.00    -0.076 C 
ATOM      6  C   UNL     1       7.122   4.367  -6.832  0.00  0.00    +0.246 C 
ATOM      7  O   UNL     1       6.308   4.999  -7.469  0.00  0.00    -0.273 OA
ATOM      8  N   UNL     1       8.247   3.783  -7.295  0.00  0.00    -0.227 N 
ATOM      9  C   UNL     1       8.920   3.164  -6.317  0.00  0.00    +0.312 C 
ATOM     10  O   UNL     1       9.964   2.566  -6.489  0.00  0.00    -0.252 OA
ATOM     11  N   UNL     1       8.309   3.277  -5.122  0.00  0.00    -0.271 N 
ATOM     12  C   UNL     1       8.679   3.822  -8.695  0.00  0.00    +0.143 C 
ATOM     13  N   UNL     1       5.825   4.281  -2.775  0.00  0.00    +0.380 N 
ATOM     14  H   UNL     1       5.028   4.837  -3.105  0.00  0.00    -0.082 HD
ENDROOT
BRANCH  13  15
ATOM     15  C   UNL     1       5.683   4.054  -1.322  0.00  0.00    -0.075 C 
BRANCH  15  17
ATOM     16  C   UNL     1       3.807   5.700  -1.213  0.00  0.00    +0.006 C 
ATOM     17  C   UNL     1       5.194   5.350  -0.671  0.00  0.00    -0.026 C 
BRANCH  17  18
ATOM     18  C   UNL     1       5.117   5.162   0.845  0.00  0.00    +0.036 C 
BRANCH  18  19
ATOM     19  C   UNL     1       4.754   6.471   1.496  0.00  0.00    -0.043 A 
ATOM     20  C   UNL     1       3.426   6.795   1.701  0.00  0.00    +0.007 A 
ATOM     21  C   UNL     1       3.088   7.996   2.298  0.00  0.00    +0.050 A 
ATOM     22  C   UNL     1       4.081   8.878   2.692  0.00  0.00    +0.166 A 
ATOM     23  C   UNL     1       5.419   8.552   2.485  0.00  0.00    +0.166 A 
ATOM     24  C   UNL     1       5.750   7.347   1.886  0.00  0.00    +0.053 A 
ATOM     25  O   UNL     1       6.195   9.575   2.949  0.00  0.00    -0.453 OA
ATOM     26  C   UNL     1       5.310  10.702   3.078  0.00  0.00    +0.466 C 
ATOM     27  O   UNL     1       4.018  10.103   3.291  0.00  0.00    -0.453 OA
ENDBRANCH  18  19
ENDBRANCH  17  18
ENDBRANCH  15  17
ENDBRANCH  13  15
BRANCH  11  28
ATOM     28  C   UNL     1       8.768   2.723  -3.846  0.00  0.00    +0.115 C 
BRANCH  28  29
ATOM     29  C   UNL     1      10.064   3.419  -3.425  0.00  0.00    +0.054 C 
BRANCH  29  30
ATOM     30  C   UNL     1      10.598   2.771  -2.173  0.00  0.00    -0.046 A 
ATOM     31  C   UNL     1      10.217   3.248  -0.933  0.00  0.00    +0.007 A 
ATOM     32  C   UNL     1      10.700   2.653   0.216  0.00  0.00    +0.046 A 
ATOM     33  C   UNL     1      11.578   1.583   0.125  0.00  0.00    +0.120 A 
ATOM     34  C   UNL     1      11.963   1.109  -1.121  0.00  0.00    +0.046 A 
ATOM     35  C   UNL     1      11.473   1.705  -2.267  0.00  0.00    +0.007 A 
BRANCH  33  36
ATOM     36  O   UNL     1      12.059   0.998   1.253  0.00  0.00    -0.495 OA
ATOM     37  C   UNL     1      11.619   1.538   2.501  0.00  0.00    +0.277 C 
ENDBRANCH  33  36
ENDBRANCH  29  30
ENDBRANCH  28  29
ENDBRANCH  11  28
TORSDOF 8
