REMARK  Name = ZINC35674449
REMARK  15 active torsions:
REMARK  status: ('A' for Active; 'I' for Inactive)
REMARK    1  A    between atoms: C_1  and  C_2
REMARK    2  A    between atoms: C_2  and  C_3
REMARK    3  A    between atoms: C_3  and  C_5
REMARK    4  A    between atoms: C_3  and  N_28
REMARK    5  A    between atoms: C_9  and  O_26
REMARK    6  A    between atoms: C_10  and  O_24
REMARK    7  A    between atoms: N_15  and  C_16
REMARK    8  A    between atoms: C_16  and  C_17
REMARK    9  A    between atoms: C_22  and  C_23
REMARK   10  A    between atoms: O_24  and  C_25
REMARK   11  A    between atoms: O_26  and  C_27
REMARK   12  A    between atoms: C_29  and  C_31
REMARK   13  A    between atoms: C_31  and  C_32
REMARK   14  A    between atoms: C_32  and  C_33
REMARK   15  A    between atoms: C_32  and  C_34
REMARK                            x       y       z     vdW  Elec       q    Type
REMARK                         _______ _______ _______ _____ _____    ______ ____
ROOT
ATOM      1  C   UNL     1      -1.581  -2.474  -0.018  0.00  0.00    -0.016 C 
ATOM      2  C   UNL     1      -2.948  -3.097  -0.133  0.00  0.00    -0.052 A 
ATOM      3  C   UNL     1      -3.899  -2.464  -0.920  0.00  0.00    +0.051 A 
ATOM      4  C   UNL     1      -5.166  -3.003  -1.055  0.00  0.00    +0.162 A 
ATOM      5  C   UNL     1      -5.487  -4.187  -0.397  0.00  0.00    +0.162 A 
ATOM      6  C   UNL     1      -4.536  -4.814   0.388  0.00  0.00    +0.053 A 
ATOM      7  C   UNL     1      -3.267  -4.269   0.521  0.00  0.00    -0.044 A 
ATOM      8  C   UNL     1      -2.264  -4.981   1.392  0.00  0.00    +0.017 C 
ATOM      9  C   UNL     1      -0.857  -4.464   1.091  0.00  0.00    -0.073 C 
ATOM     10  N   UNL     1      -0.874  -2.995   1.155  0.00  0.00    +0.388 N 
ATOM     11  H   UNL     1      -1.350  -2.698   1.995  0.00  0.00    -0.080 HD
ENDROOT
BRANCH   5  12
ATOM     12  O   UNL     1      -6.729  -4.724  -0.525  0.00  0.00    -0.491 OA
ATOM     13  C   UNL     1      -6.986  -5.941   0.180  0.00  0.00    +0.277 C 
ENDBRANCH   5  12
BRANCH   4  14
ATOM     14  O   UNL     1      -6.094  -2.378  -1.828  0.00  0.00    -0.491 OA
ATOM     15  C   UNL     1      -5.733  -1.110  -2.379  0.00  0.00    +0.277 C 
ENDBRANCH   4  14
BRANCH   1  16
ATOM     16  C   UNL     1      -1.728  -0.957   0.113  0.00  0.00    +0.063 C 
BRANCH  16  17
ATOM     17  N   UNL     1      -0.453  -0.313  -0.216  0.00  0.00    -0.314 N 
ATOM     18  C   UNL     1      -0.442   0.922  -0.755  0.00  0.00    +0.213 C 
ATOM     19  O   UNL     1      -1.478   1.539  -0.880  0.00  0.00    -0.276 OA
ATOM     20  H   UNL     1       0.382  -0.776  -0.045  0.00  0.00    +0.149 HD
BRANCH  18  21
ATOM     21  C   UNL     1       0.860   1.536  -1.204  0.00  0.00    +0.098 C 
BRANCH  21  22
ATOM     22  C   UNL     1       0.603   2.953  -1.721  0.00  0.00    -0.008 C 
ATOM     23  C   UNL     1       1.937   3.622  -2.059  0.00  0.00    +0.008 C 
ATOM     24  C   UNL     1      -0.267   2.887  -2.978  0.00  0.00    +0.008 C 
ENDBRANCH  21  22
ENDBRANCH  18  21
ENDBRANCH  16  17
BRANCH  16  26
ATOM     25  C   UNL     1      -2.397   0.897   1.648  0.00  0.00    +0.005 C 
ATOM     26  C   UNL     1      -2.122  -0.605   1.548  0.00  0.00    +0.017 C 
ENDBRANCH  16  26
ENDBRANCH   1  16
BRANCH  10  27
ATOM     27  C   UNL     1       0.504  -2.487   1.164  0.00  0.00    -0.042 C 
BRANCH  27  28
ATOM     28  C   UNL     1       1.281  -3.162   2.265  0.00  0.00    -0.061 A 
ATOM     29  C   UNL     1       2.139  -4.205   1.967  0.00  0.00    +0.002 A 
ATOM     30  C   UNL     1       2.851  -4.824   2.977  0.00  0.00    +0.000 A 
ATOM     31  C   UNL     1       2.706  -4.400   4.285  0.00  0.00    +0.000 A 
ATOM     32  C   UNL     1       1.849  -3.357   4.583  0.00  0.00    +0.003 A 
ATOM     33  C   UNL     1       1.140  -2.736   3.572  0.00  0.00    -0.049 A 
ATOM     34  C   UNL     1       0.209  -1.595   3.896  0.00  0.00    +0.044 C 
ENDBRANCH  27  28
ENDBRANCH  10  27
TORSDOF 9
