REMARK  Name = ZINC64539119
REMARK  4 active torsions:
REMARK  status: ('A' for Active; 'I' for Inactive)
REMARK    1  A    between atoms: C_6  and  C_11
REMARK    2  A    between atoms: C_11  and  C_12
REMARK    3  A    between atoms: C_12  and  N_13
REMARK    4  A    between atoms: C_14  and  C_16
REMARK                            x       y       z     vdW  Elec       q    Type
REMARK                         _______ _______ _______ _____ _____    ______ ____
ROOT
ATOM      1  C   UNL     1       5.353  -5.525  -2.599  0.00  0.00    +0.092 C 
ATOM      2  C   UNL     1       5.933  -5.846  -3.979  0.00  0.00    +0.016 C 
ATOM      3  C   UNL     1       6.771  -7.124  -3.898  0.00  0.00    +0.020 C 
ATOM      4  C   UNL     1       5.875  -8.290  -3.467  0.00  0.00    +0.106 C 
ATOM      5  N   UNL     1       5.200  -7.930  -2.213  0.00  0.00    -0.313 N 
ATOM      6  C   UNL     1       4.442  -6.673  -2.154  0.00  0.00    +0.119 C 
ATOM      7  C   UNL     1       5.278  -8.764  -1.099  0.00  0.00    +0.144 A 
ATOM      8  C   UNL     1       5.806 -10.050  -1.225  0.00  0.00    +0.049 A 
ATOM      9  C   UNL     1       5.864 -10.842  -0.091  0.00  0.00    +0.049 A 
ATOM     10  C   UNL     1       5.390 -10.305   1.107  0.00  0.00    +0.144 A 
ATOM     11  N   UNL     1       4.906  -9.074   1.130  0.00  0.00    -0.132 NA
ATOM     12  N   UNL     1       4.857  -8.338   0.080  0.00  0.00    -0.132 NA
ATOM     13  N   UNL     1       5.426 -11.063   2.275  0.00  0.00    -0.309 N 
ATOM     14  C   UNL     1       4.823 -10.565   3.521  0.00  0.00    +0.134 C 
ATOM     15  C   UNL     1       3.904 -11.655   4.083  0.00  0.00    +0.178 C 
ATOM     16  O   UNL     1       4.632 -12.882   4.177  0.00  0.00    -0.377 OA
ATOM     17  C   UNL     1       5.088 -13.389   2.921  0.00  0.00    +0.178 C 
ATOM     18  C   UNL     1       6.063 -12.390   2.297  0.00  0.00    +0.134 C 
ENDROOT
BRANCH   1  20
ATOM     19  N   UNL     1       3.947  -3.770  -1.571  0.00  0.00    -0.315 N 
ATOM     20  C   UNL     1       4.556  -4.249  -2.674  0.00  0.00    +0.218 C 
ATOM     21  O   UNL     1       4.461  -3.653  -3.726  0.00  0.00    -0.275 OA
ATOM     22  H   UNL     1       4.023  -4.246  -0.729  0.00  0.00    +0.149 HD
BRANCH  19  23
ATOM     23  C   UNL     1       3.172  -2.529  -1.642  0.00  0.00    +0.108 C 
BRANCH  23  24
ATOM     24  C   UNL     1       2.591  -2.210  -0.263  0.00  0.00    +0.052 C 
BRANCH  24  30
ATOM     25  C   UNL     1      -2.203  -0.014  -0.885  0.00  0.00    +0.022 A 
ATOM     26  C   UNL     1      -1.277   0.954  -0.720  0.00  0.00    +0.027 A 
ATOM     27  C   UNL     1       0.092   0.616  -0.533  0.00  0.00    +0.043 A 
ATOM     28  N   UNL     1       1.157   1.358  -0.355  0.00  0.00    -0.380 N 
ATOM     29  C   UNL     1       2.323   0.478  -0.215  0.00  0.00    +0.144 C 
ATOM     30  C   UNL     1       1.793  -0.933  -0.337  0.00  0.00    -0.040 C 
ATOM     31  C   UNL     1       0.459  -0.818  -0.526  0.00  0.00    +0.000 A 
ATOM     32  C   UNL     1      -0.608  -1.809  -0.713  0.00  0.00    +0.030 A 
ATOM     33  C   UNL     1      -1.880  -1.379  -0.883  0.00  0.00    +0.042 A 
ATOM     34 CL   UNL     1      -3.144  -2.548  -1.103  0.00  0.00    -0.084 Cl
ATOM     35  H   UNL     1       1.173   2.328  -0.322  0.00  0.00    +0.160 HD
ENDBRANCH  24  30
ENDBRANCH  23  24
ENDBRANCH  19  23
ENDBRANCH   1  20
TORSDOF 4
