REMARK  Name = ZINC06933620
REMARK  9 active torsions:
REMARK  status: ('A' for Active; 'I' for Inactive)
REMARK    1  A    between atoms: C_1  and  C_2
REMARK    2  A    between atoms: C_2  and  O_3
REMARK    3  A    between atoms: O_3  and  C_4
REMARK    4  A    between atoms: C_7  and  O_26
REMARK    5  A    between atoms: C_8  and  N_10
REMARK    6  A    between atoms: C_11  and  C_13
REMARK    7  A    between atoms: C_14  and  C_25
REMARK    8  A    between atoms: O_26  and  C_27
REMARK    9  A    between atoms: C_27  and  C_28
REMARK                            x       y       z     vdW  Elec       q    Type
REMARK                         _______ _______ _______ _____ _____    ______ ____
ROOT
ATOM      1  N   UNL     1       1.970  -2.451   0.298  0.00  0.00    -0.279 N 
ATOM      2  C   UNL     1       1.038  -2.972  -0.524  0.00  0.00    +0.249 C 
ATOM      3  O   UNL     1       0.915  -4.178  -0.617  0.00  0.00    -0.270 OA
ATOM      4  H   UNL     1       2.123  -1.493   0.312  0.00  0.00    +0.155 HD
ENDROOT
BRANCH   2   5
ATOM      5  C   UNL     1       0.167  -2.079  -1.312  0.00  0.00    +0.067 C 
ATOM      6  C   UNL     1      -0.797  -2.456  -2.165  0.00  0.00    +0.045 C 
ATOM      7  C   UNL     1      -1.429  -1.260  -2.742  0.00  0.00    +0.336 C 
ATOM      8  O   UNL     1      -2.334  -1.271  -3.551  0.00  0.00    -0.245 OA
ATOM      9  O   UNL     1      -0.856  -0.152  -2.242  0.00  0.00    -0.450 OA
ATOM     10  C   UNL     1       0.193  -0.562  -1.310  0.00  0.00    +0.144 C 
ATOM     11  C   UNL     1      -0.010  -0.011   0.026  0.00  0.00    +0.053 C 
ATOM     12  C   UNL     1      -0.038   1.527   0.043  0.00  0.00    +0.004 C 
ATOM     13  C   UNL     1       1.382   2.027   0.027  0.00  0.00    +0.000 C 
ATOM     14  C   UNL     1       1.871   2.340  -1.400  0.00  0.00    +0.000 C 
ATOM     15  C   UNL     1       1.423   1.283  -2.430  0.00  0.00    +0.004 C 
ATOM     16  C   UNL     1       1.548  -0.122  -1.915  0.00  0.00    +0.053 C 
ATOM     17  C   UNL     1      -1.175  -3.880  -2.482  0.00  0.00    +0.052 C 
ENDBRANCH   2   5
BRANCH   1  22
ATOM     18  C   UNL     1       2.947  -5.353   2.340  0.00  0.00    +0.122 A 
ATOM     19  C   UNL     1       4.200  -4.954   2.783  0.00  0.00    +0.049 A 
ATOM     20  C   UNL     1       4.711  -3.727   2.403  0.00  0.00    +0.051 A 
ATOM     21  C   UNL     1       3.977  -2.895   1.574  0.00  0.00    +0.142 A 
ATOM     22  C   UNL     1       2.716  -3.291   1.132  0.00  0.00    +0.079 A 
ATOM     23  C   UNL     1       2.205  -4.523   1.515  0.00  0.00    +0.072 A 
BRANCH  18  24
ATOM     24  O   UNL     1       2.447  -6.561   2.716  0.00  0.00    -0.492 OA
BRANCH  24  26
ATOM     25  C   UNL     1       2.541  -8.676   3.880  0.00  0.00    +0.048 C 
ATOM     26  C   UNL     1       3.265  -7.365   3.567  0.00  0.00    +0.225 C 
ENDBRANCH  24  26
ENDBRANCH  18  24
BRANCH  21  27
ATOM     27  O   UNL     1       4.484  -1.691   1.196  0.00  0.00    -0.490 OA
BRANCH  27  28
ATOM     28  C   UNL     1       5.782  -1.350   1.687  0.00  0.00    +0.226 C 
ATOM     29  C   UNL     1       6.180   0.030   1.160  0.00  0.00    +0.048 C 
ENDBRANCH  27  28
ENDBRANCH  21  27
ENDBRANCH   1  22
TORSDOF 6
