REMARK  Name = ZINC25184458
REMARK  12 active torsions:
REMARK  status: ('A' for Active; 'I' for Inactive)
REMARK    1  A    between atoms: C_1  and  C_2
REMARK    2  A    between atoms: C_5  and  C_9
REMARK    3  A    between atoms: C_7  and  C_8
REMARK    4  A    between atoms: C_9  and  C_11
REMARK    5  A    between atoms: C_9  and  N_12
REMARK    6  A    between atoms: C_13  and  C_15
REMARK    7  A    between atoms: C_15  and  N_16
REMARK    8  A    between atoms: N_16  and  C_17
REMARK    9  A    between atoms: N_16  and  C_30
REMARK   10  A    between atoms: C_17  and  C_18
REMARK   11  A    between atoms: C_21  and  C_24
REMARK   12  A    between atoms: N_26  and  C_27
REMARK                            x       y       z     vdW  Elec       q    Type
REMARK                         _______ _______ _______ _____ _____    ______ ____
ROOT
ATOM      1  N   UNL     1       0.013   0.019  -0.281  0.00  0.00    +0.390 N 
ATOM      2  H   UNL     1       0.959  -0.043   0.278  0.00  0.00    -0.080 HD
ENDROOT
BRANCH   1   3
ATOM      3  C   UNL     1       0.306  -0.253  -1.694  0.00  0.00    -0.068 C 
ATOM      4  C   UNL     1       0.148   0.902  -2.685  0.00  0.00    -0.017 C 
ATOM      5  C   UNL     1      -0.869  -0.242  -2.674  0.00  0.00    -0.017 C 
ENDBRANCH   1   3
BRANCH   1   6
ATOM      6  C   UNL     1      -0.524   1.375  -0.107  0.00  0.00    +0.019 C 
BRANCH   6   8
ATOM      7  N   UNL     1       0.305   3.699  -0.280  0.00  0.00    -0.310 N 
ATOM      8  C   UNL     1       0.586   2.381  -0.272  0.00  0.00    +0.197 C 
ATOM      9  O   UNL     1       1.732   2.004  -0.398  0.00  0.00    -0.278 OA
ATOM     10  H   UNL     1      -0.734   4.041  -0.166  0.00  0.00    +0.149 HD
BRANCH   7  11
ATOM     11  C   UNL     1       1.384   4.677  -0.441  0.00  0.00    +0.100 C 
ATOM     12  C   UNL     1       2.015   4.969   0.923  0.00  0.00    +0.033 C 
BRANCH  11  17
ATOM     13  C   UNL     1      -0.758   9.564  -2.658  0.00  0.00    +0.044 C 
ATOM     14  C   UNL     1      -0.200   8.290  -2.080  0.00  0.00    -0.048 A 
ATOM     15  C   UNL     1      -0.914   7.593  -1.123  0.00  0.00    +0.004 A 
ATOM     16  C   UNL     1      -0.404   6.422  -0.596  0.00  0.00    +0.006 A 
ATOM     17  C   UNL     1       0.826   5.952  -1.019  0.00  0.00    -0.027 A 
ATOM     18  C   UNL     1       1.540   6.647  -1.976  0.00  0.00    +0.009 A 
ATOM     19  C   UNL     1       1.027   7.816  -2.507  0.00  0.00    -0.047 A 
ATOM     20  C   UNL     1       1.806   8.575  -3.550  0.00  0.00    +0.044 C 
ENDBRANCH  11  17
ENDBRANCH   7  11
ENDBRANCH   6   8
ENDBRANCH   1   6
BRANCH   1  21
ATOM     21  C   UNL     1      -0.905  -0.986   0.270  0.00  0.00    -0.042 C 
BRANCH  21  22
ATOM     22  C   UNL     1      -0.222  -2.329   0.298  0.00  0.00    -0.064 A 
ATOM     23  C   UNL     1      -0.323  -3.176  -0.791  0.00  0.00    +0.002 A 
ATOM     24  C   UNL     1       0.305  -4.404  -0.774  0.00  0.00    +0.013 A 
ATOM     25  C   UNL     1       1.034  -4.796   0.350  0.00  0.00    +0.037 A 
ATOM     26  C   UNL     1       1.128  -3.939   1.447  0.00  0.00    +0.013 A 
ATOM     27  C   UNL     1       0.500  -2.711   1.415  0.00  0.00    +0.002 A 
BRANCH  25  28
ATOM     28  C   UNL     1       1.706  -6.113   0.377  0.00  0.00    +0.244 C 
ATOM     29  O   UNL     1       2.341  -6.451   1.357  0.00  0.00    -0.270 OA
ATOM     30  N   UNL     1       1.613  -6.939  -0.684  0.00  0.00    -0.308 N 
ATOM     31  H   UNL     1       1.039  -6.633  -1.571  0.00  0.00    +0.149 HD
BRANCH  30  32
ATOM     32  C   UNL     1       2.279  -8.244  -0.657  0.00  0.00    +0.073 C 
ATOM     33  C   UNL     1       3.035  -8.678  -1.914  0.00  0.00    +0.024 C 
ATOM     34  C   UNL     1       1.708  -9.346  -1.551  0.00  0.00    +0.024 C 
ENDBRANCH  30  32
ENDBRANCH  25  28
ENDBRANCH  21  22
ENDBRANCH   1  21
TORSDOF 9
