REMARK  Name = ZINC31932895
REMARK  10 active torsions:
REMARK  status: ('A' for Active; 'I' for Inactive)
REMARK    1  A    between atoms: C_1  and  C_2
REMARK    2  A    between atoms: C_9  and  C_16
REMARK    3  A    between atoms: C_10  and  C_11
REMARK    4  A    between atoms: C_11  and  C_13
REMARK    5  A    between atoms: C_11  and  C_14
REMARK    6  A    between atoms: C_14  and  N_15
REMARK    7  A    between atoms: C_19  and  O_22
REMARK    8  A    between atoms: O_22  and  C_23
REMARK    9  A    between atoms: C_23  and  C_24
REMARK   10  A    between atoms: C_23  and  C_25
REMARK                            x       y       z     vdW  Elec       q    Type
REMARK                         _______ _______ _______ _____ _____    ______ ____
ROOT
ATOM      1  C   UNL     1       2.952  -0.952   3.752  0.00  0.00    +0.044 C 
ATOM      2  C   UNL     1       2.641   0.169   2.793  0.00  0.00    -0.046 A 
ATOM      3  C   UNL     1       1.484   0.117   1.999  0.00  0.00    +0.021 A 
ATOM      4  C   UNL     1       1.202   1.119   1.140  0.00  0.00    +0.093 A 
ATOM      5  N   UNL     1       2.035   2.196   1.030  0.00  0.00    -0.303 N 
ATOM      6  C   UNL     1       3.172   2.275   1.793  0.00  0.00    +0.139 A 
ATOM      7  C   UNL     1       3.479   1.235   2.694  0.00  0.00    +0.050 A 
ATOM      8  N   UNL     1       3.793   3.407   1.496  0.00  0.00    -0.228 NA
ATOM      9  C   UNL     1       3.089   4.063   0.561  0.00  0.00    +0.093 A 
ATOM     10  C   UNL     1       1.986   3.323   0.258  0.00  0.00    +0.052 A 
ENDROOT
BRANCH   9  11
ATOM     11  C   UNL     1       3.449   5.372  -0.038  0.00  0.00    +0.002 A 
ATOM     12  C   UNL     1       4.208   5.420  -1.206  0.00  0.00    +0.013 A 
ATOM     13  C   UNL     1       4.537   6.638  -1.764  0.00  0.00    +0.046 A 
ATOM     14  C   UNL     1       4.121   7.815  -1.157  0.00  0.00    +0.121 A 
ATOM     15  C   UNL     1       3.369   7.771   0.009  0.00  0.00    +0.046 A 
ATOM     16  C   UNL     1       3.033   6.556   0.568  0.00  0.00    +0.013 A 
BRANCH  14  17
ATOM     17  O   UNL     1       4.452   9.014  -1.706  0.00  0.00    -0.489 OA
BRANCH  17  18
ATOM     18  C   UNL     1       3.947  10.184  -1.060  0.00  0.00    +0.167 C 
ATOM     19  C   UNL     1       4.862  10.557   0.108  0.00  0.00    +0.051 C 
ATOM     20  C   UNL     1       3.901  11.340  -2.062  0.00  0.00    +0.051 C 
ENDBRANCH  17  18
ENDBRANCH  14  17
ENDBRANCH   9  11
BRANCH  10  21
ATOM     21  C   UNL     1       0.916   3.678  -0.742  0.00  0.00    +0.018 C 
ATOM     22  C   UNL     1       1.540   3.807  -2.133  0.00  0.00    +0.012 C 
BRANCH  21  23
ATOM     23  C   UNL     1       0.271   5.008  -0.347  0.00  0.00    -0.077 C 
BRANCH  23  24
ATOM     24  N   UNL     1      -0.866   5.284  -1.235  0.00  0.00    +0.379 N 
ATOM     25  H   UNL     1      -1.330   6.240  -0.951  0.00  0.00    -0.090 HD
ATOM     26  H   UNL     1      -1.607   4.476  -1.144  0.00  0.00    -0.090 HD
ATOM     27  H   UNL     1      -0.513   5.342  -2.275  0.00  0.00    -0.090 HD
ENDBRANCH  23  24
ENDBRANCH  21  23
ENDBRANCH  10  21
TORSDOF 6
