REMARK  Name = ZINC13500995
REMARK  13 active torsions:
REMARK  status: ('A' for Active; 'I' for Inactive)
REMARK    1  A    between atoms: C_1  and  C_2
REMARK    2  A    between atoms: C_2  and  C_3
REMARK    3  A    between atoms: C_3  and  C_4
REMARK    4  A    between atoms: C_4  and  C_6
REMARK    5  A    between atoms: C_4  and  N_75
REMARK    6  A    between atoms: N_10  and  C_11
REMARK    7  A    between atoms: C_16  and  C_17
REMARK    8  A    between atoms: C_16  and  N_75
REMARK    9  A    between atoms: C_17  and  C_18
REMARK   10  A    between atoms: C_24  and  C_25
REMARK   11  A    between atoms: C_24  and  N_75
REMARK   12  A    between atoms: C_29  and  C_38
REMARK   13  A    between atoms: C_31  and  C_37
REMARK                            x       y       z     vdW  Elec       q    Type
REMARK                         _______ _______ _______ _____ _____    ______ ____
ROOT
ATOM      1  N   UNL     1      -1.695  -1.045   1.423  0.00  0.00    +0.389 N 
ATOM      2  H   UNL     1      -1.041  -1.427   2.116  0.00  0.00    -0.080 HD
ENDROOT
BRANCH   1   3
ATOM      3  C   UNL     1      -2.950  -1.824   1.467  0.00  0.00    +0.003 C 
BRANCH   3   4
ATOM      4  C   UNL     1      -2.614  -3.261   1.771  0.00  0.00    +0.138 A 
ATOM      5  N   UNL     1      -1.610  -3.950   1.285  0.00  0.00    -0.115 NA
ATOM      6  N   UNL     1      -1.663  -5.136   1.784  0.00  0.00    -0.023 NA
ATOM      7  N   UNL     1      -2.674  -5.223   2.577  0.00  0.00    -0.044 NA
ATOM      8  N   UNL     1      -3.282  -4.085   2.599  0.00  0.00    -0.228 N 
BRANCH   8   9
ATOM      9  C   UNL     1      -4.478  -3.754   3.378  0.00  0.00    +0.111 C 
ATOM     10  C   UNL     1      -4.211  -3.984   4.880  0.00  0.00    +0.027 C 
ATOM     11  C   UNL     1      -5.551  -4.543   5.421  0.00  0.00    +0.002 C 
ATOM     12  C   UNL     1      -6.035  -5.454   4.266  0.00  0.00    +0.002 C 
ATOM     13  C   UNL     1      -5.637  -4.688   2.988  0.00  0.00    +0.027 C 
ENDBRANCH   8   9
ENDBRANCH   3   4
BRANCH   3  14
ATOM     14  C   UNL     1      -3.676  -1.744   0.122  0.00  0.00    -0.008 C 
BRANCH  14  16
ATOM     15  C   UNL     1      -4.977  -0.248  -1.399  0.00  0.00    +0.004 C 
ATOM     16  C   UNL     1      -4.120  -0.302  -0.132  0.00  0.00    -0.005 C 
ENDBRANCH  14  16
ENDBRANCH   3  14
ENDBRANCH   1   3
BRANCH   1  17
ATOM     17  C   UNL     1      -1.967   0.370   1.749  0.00  0.00    -0.073 C 
BRANCH  17  18
ATOM     18  C   UNL     1      -2.283   0.480   3.242  0.00  0.00    +0.016 C 
BRANCH  18  19
ATOM     19  C   UNL     1      -2.420   1.932   3.621  0.00  0.00    -0.049 A 
ATOM     20  C   UNL     1      -1.313   2.642   4.045  0.00  0.00    +0.003 A 
ATOM     21  C   UNL     1      -1.437   3.976   4.389  0.00  0.00    +0.000 A 
ATOM     22  C   UNL     1      -2.671   4.595   4.318  0.00  0.00    +0.000 A 
ATOM     23  C   UNL     1      -3.779   3.883   3.900  0.00  0.00    +0.000 A 
ATOM     24  C   UNL     1      -3.654   2.551   3.551  0.00  0.00    +0.003 A 
ENDBRANCH  18  19
ENDBRANCH  17  18
ENDBRANCH   1  17
BRANCH   1  25
ATOM     25  C   UNL     1      -1.085  -1.146   0.080  0.00  0.00    -0.037 C 
BRANCH  25  26
ATOM     26  C   UNL     1       0.300  -0.553   0.130  0.00  0.00    +0.001 A 
ATOM     27  C   UNL     1       1.371  -1.354   0.350  0.00  0.00    +0.017 A 
ATOM     28  C   UNL     1       2.702  -0.747   0.393  0.00  0.00    -0.001 A 
ATOM     29  C   UNL     1       3.845  -1.522   0.616  0.00  0.00    +0.013 A 
ATOM     30  C   UNL     1       5.073  -0.925   0.650  0.00  0.00    -0.050 A 
ATOM     31  C   UNL     1       5.197   0.446   0.466  0.00  0.00    +0.008 A 
ATOM     32  C   UNL     1       4.085   1.229   0.245  0.00  0.00    -0.026 A 
ATOM     33  C   UNL     1       2.824   0.643   0.206  0.00  0.00    +0.052 A 
ATOM     34  N   UNL     1       1.695   1.403  -0.013  0.00  0.00    -0.322 N 
ATOM     35  H   UNL     1       1.781   2.361  -0.143  0.00  0.00    +0.169 HD
ATOM     36  C   UNL     1       0.476   0.836  -0.051  0.00  0.00    +0.251 A 
ATOM     37  O   UNL     1      -0.499   1.538  -0.253  0.00  0.00    -0.268 OA
ATOM     38  C   UNL     1       4.235   2.716   0.045  0.00  0.00    +0.046 C 
ATOM     39  C   UNL     1       6.303  -1.760   0.890  0.00  0.00    +0.044 C 
ENDBRANCH  25  26
ENDBRANCH   1  25
TORSDOF 10
