REMARK  Name = ZINC43235157
REMARK  3 active torsions:
REMARK  status: ('A' for Active; 'I' for Inactive)
REMARK    1  A    between atoms: C_9  and  C_12
REMARK    2  A    between atoms: C_12  and  N_13
REMARK    3  A    between atoms: N_16  and  C_17
REMARK                            x       y       z     vdW  Elec       q    Type
REMARK                         _______ _______ _______ _____ _____    ______ ____
ROOT
ATOM      1  N   UNL     1       6.007  -1.994  -0.773  0.00  0.00    -0.296 N 
ATOM      2  C   UNL     1       7.279  -2.398  -0.592  0.00  0.00    +0.304 C 
ATOM      3  O   UNL     1       7.523  -3.322   0.161  0.00  0.00    -0.253 OA
ATOM      4  N   UNL     1       8.283  -1.779  -1.245  0.00  0.00    -0.267 N 
ATOM      5  H   UNL     1       5.813  -1.257  -1.373  0.00  0.00    +0.150 HD
ATOM      6  H   UNL     1       8.084  -1.086  -1.894  0.00  0.00    +0.156 HD
ENDROOT
BRANCH   4   7
ATOM      7  C   UNL     1       9.612  -2.136  -0.986  0.00  0.00    +0.073 A 
ATOM      8  C   UNL     1       9.934  -3.454  -0.694  0.00  0.00    +0.064 A 
ATOM      9  C   UNL     1      11.248  -3.804  -0.440  0.00  0.00    +0.125 A 
ATOM     10  C   UNL     1      12.242  -2.840  -0.477  0.00  0.00    +0.041 A 
ATOM     11  C   UNL     1      11.924  -1.527  -0.768  0.00  0.00    +0.043 A 
ATOM     12  C   UNL     1      10.613  -1.172  -1.028  0.00  0.00    +0.145 A 
ATOM     13  F   UNL     1      10.305   0.111  -1.318  0.00  0.00    -0.204 F 
ATOM     14  F   UNL     1      11.562  -5.087  -0.154  0.00  0.00    -0.205 F 
ENDBRANCH   4   7
BRANCH   1  15
ATOM     15  C   UNL     1       4.916  -2.667  -0.063  0.00  0.00    +0.153 C 
BRANCH  15  24
ATOM     16  C   UNL     1      -0.042   1.332  -0.043  0.00  0.00    +0.004 A 
ATOM     17  C   UNL     1       1.141   2.049  -0.044  0.00  0.00    +0.004 A 
ATOM     18  C   UNL     1       2.353   1.385  -0.050  0.00  0.00    +0.049 A 
ATOM     19  C   UNL     1       2.387  -0.001  -0.056  0.00  0.00    +0.163 A 
ATOM     20  C   UNL     1       1.198  -0.721  -0.057  0.00  0.00    +0.162 A 
ATOM     21  C   UNL     1      -0.015  -0.050  -0.049  0.00  0.00    +0.049 A 
ATOM     22  O   UNL     1       1.209  -2.082  -0.070  0.00  0.00    -0.485 OA
ATOM     23  C   UNL     1       2.437  -2.720   0.297  0.00  0.00    +0.275 C 
ATOM     24  C   UNL     1       3.583  -2.019  -0.443  0.00  0.00    +0.228 C 
ATOM     25  O   UNL     1       3.589  -0.640  -0.058  0.00  0.00    -0.480 OA
ENDBRANCH  15  24
ENDBRANCH   1  15
TORSDOF 3
