REMARK  Name = ZINC51987477
REMARK  1 active torsions:
REMARK  status: ('A' for Active; 'I' for Inactive)
REMARK    1  A    between atoms: C_7  and  N_12
REMARK                            x       y       z     vdW  Elec       q    Type
REMARK                         _______ _______ _______ _____ _____    ______ ____
ROOT
ATOM      1  N   UNL     1       0.148  -2.670  -0.926  0.00  0.00    -0.306 N 
ATOM      2  C   UNL     1      -0.948  -3.449  -0.593  0.00  0.00    +0.069 A 
ATOM      3  C   UNL     1      -1.410  -4.002   0.592  0.00  0.00    +0.028 A 
ATOM      4  C   UNL     1      -2.568  -4.752   0.594  0.00  0.00    +0.002 A 
ATOM      5  C   UNL     1      -3.275  -4.957  -0.582  0.00  0.00    +0.002 A 
ATOM      6  C   UNL     1      -2.830  -4.415  -1.768  0.00  0.00    +0.028 A 
ATOM      7  C   UNL     1      -1.660  -3.653  -1.787  0.00  0.00    +0.065 A 
ATOM      8  N   UNL     1      -0.983  -3.005  -2.771  0.00  0.00    -0.328 N 
ATOM      9  C   UNL     1       0.075  -2.422  -2.267  0.00  0.00    +0.172 A 
ATOM     10  N   UNL     1       0.984  -1.672  -2.984  0.00  0.00    -0.330 N 
ATOM     11  H   UNL     1       1.746  -1.274  -2.535  0.00  0.00    +0.145 HD
ATOM     12  H   UNL     1       0.860  -1.542  -3.938  0.00  0.00    +0.145 HD
ATOM     13  H   UNL     1      -1.247  -2.976  -3.704  0.00  0.00    +0.169 HD
ENDROOT
BRANCH   1  20
ATOM     14  C   UNL     1      -0.017   1.377   0.010  0.00  0.00    +0.001 A 
ATOM     15  C   UNL     1       1.172   2.084   0.002  0.00  0.00    +0.004 A 
ATOM     16  C   UNL     1       2.375   1.409  -0.015  0.00  0.00    +0.046 A 
ATOM     17  C   UNL     1       2.398   0.018  -0.024  0.00  0.00    +0.126 A 
ATOM     18  C   UNL     1       1.207  -0.687  -0.012  0.00  0.00    +0.017 A 
ATOM     19  C   UNL     1       0.002  -0.004   0.002  0.00  0.00    +0.009 A 
ATOM     20  C   UNL     1       1.187  -2.194  -0.010  0.00  0.00    +0.127 C 
ATOM     21  C   UNL     1       2.548  -2.729  -0.463  0.00  0.00    +0.071 C 
ATOM     22  C   UNL     1       3.641  -1.990   0.320  0.00  0.00    +0.231 C 
ATOM     23  O   UNL     1       3.602  -0.610  -0.046  0.00  0.00    -0.492 OA
ENDBRANCH   1  20
TORSDOF 1
