REMARK  Name = ZINC34714757
REMARK  3 active torsions:
REMARK  status: ('A' for Active; 'I' for Inactive)
REMARK    1  A    between atoms: C_4  and  C_7
REMARK    2  A    between atoms: C_16  and  C_33
REMARK    3  A    between atoms: N_24  and  C_27
REMARK                            x       y       z     vdW  Elec       q    Type
REMARK                         _______ _______ _______ _____ _____    ______ ____
ROOT
ATOM      1  C   UNL     1       3.711  -0.707  -0.038  0.00  0.00    +0.134 C 
ATOM      2  C   UNL     1       4.374  -0.835   1.331  0.00  0.00    -0.000 A 
ATOM      3  C   UNL     1       3.736  -0.513   2.496  0.00  0.00    +0.007 A 
ATOM      4  C   UNL     1       4.403  -0.681   3.702  0.00  0.00    +0.000 A 
ATOM      5  C   UNL     1       5.698  -1.170   3.724  0.00  0.00    +0.001 A 
ATOM      6  C   UNL     1       6.352  -1.489   2.549  0.00  0.00    +0.012 A 
ATOM      7  C   UNL     1       5.692  -1.310   1.335  0.00  0.00    +0.027 A 
ATOM      8  C   UNL     1       6.357  -1.568   0.039  0.00  0.00    +0.200 C 
ATOM      9  O   UNL     1       7.448  -2.096  -0.006  0.00  0.00    -0.289 OA
ATOM     10  C   UNL     1       5.647  -1.159  -1.222  0.00  0.00    +0.170 C 
ATOM     11  O   UNL     1       4.757  -0.055  -0.843  0.00  0.00    -0.344 OA
ATOM     12  C   UNL     1       4.658  -2.168  -1.757  0.00  0.00    +0.135 C 
ATOM     13  C   UNL     1       3.626  -2.078  -0.574  0.00  0.00    +0.132 C 
ATOM     14  C   UNL     1       2.787  -3.221  -0.783  0.00  0.00    +0.234 C 
ATOM     15  O   UNL     1       1.605  -3.333  -0.534  0.00  0.00    -0.274 OA
ATOM     16  N   UNL     1       3.629  -4.163  -1.332  0.00  0.00    -0.210 N 
ATOM     17  C   UNL     1       4.882  -3.647  -1.670  0.00  0.00    +0.234 C 
ATOM     18  O   UNL     1       5.917  -4.245  -1.869  0.00  0.00    -0.274 OA
ENDROOT
BRANCH   1  22
ATOM     19  C   UNL     1      -0.016   1.379   0.014  0.00  0.00    +0.000 A 
ATOM     20  C   UNL     1       0.087   0.133   0.603  0.00  0.00    +0.000 A 
ATOM     21  C   UNL     1       1.293  -0.542   0.586  0.00  0.00    +0.007 A 
ATOM     22  C   UNL     1       2.396   0.029  -0.020  0.00  0.00    -0.011 A 
ATOM     23  C   UNL     1       2.293   1.274  -0.610  0.00  0.00    +0.007 A 
ATOM     24  C   UNL     1       1.087   1.950  -0.592  0.00  0.00    +0.000 A 
ENDBRANCH   1  22
BRANCH  16  25
ATOM     25  C   UNL     1       3.277  -5.508  -1.516  0.00  0.00    +0.044 A 
ATOM     26  C   UNL     1       2.017  -5.954  -1.142  0.00  0.00    +0.024 A 
ATOM     27  C   UNL     1       1.673  -7.279  -1.324  0.00  0.00    +0.002 A 
ATOM     28  C   UNL     1       2.582  -8.161  -1.878  0.00  0.00    +0.000 A 
ATOM     29  C   UNL     1       3.838  -7.720  -2.251  0.00  0.00    +0.002 A 
ATOM     30  C   UNL     1       4.186  -6.394  -2.077  0.00  0.00    +0.024 A 
ENDBRANCH  16  25
BRANCH  10  31
ATOM     31  C   UNL     1       6.630  -0.730  -2.280  0.00  0.00    -0.008 A 
ATOM     32  C   UNL     1       7.126  -1.655  -3.178  0.00  0.00    +0.007 A 
ATOM     33  C   UNL     1       8.028  -1.262  -4.149  0.00  0.00    +0.000 A 
ATOM     34  C   UNL     1       8.433   0.058  -4.222  0.00  0.00    +0.000 A 
ATOM     35  C   UNL     1       7.935   0.984  -3.325  0.00  0.00    +0.000 A 
ATOM     36  C   UNL     1       7.030   0.591  -2.356  0.00  0.00    +0.007 A 
ENDBRANCH  10  31
TORSDOF 3
