REMARK  Name = ZINC09222183
REMARK  5 active torsions:
REMARK  status: ('A' for Active; 'I' for Inactive)
REMARK    1  A    between atoms: C_1  and  C_2
REMARK    2  A    between atoms: C_15  and  C_17
REMARK    3  A    between atoms: C_17  and  C_19
REMARK    4  A    between atoms: C_17  and  N_60
REMARK    5  A    between atoms: C_22  and  C_25
REMARK                            x       y       z     vdW  Elec       q    Type
REMARK                         _______ _______ _______ _____ _____    ______ ____
ROOT
ATOM      1  C   UNL     1       3.216   7.335   0.011  0.00  0.00    -0.004 C 
ATOM      2  C   UNL     1       1.918   8.145  -0.047  0.00  0.00    -0.005 C 
ENDROOT
BRANCH   1  16
ATOM      3  C   UNL     1       8.810   8.473  -8.191  0.00  0.00    +0.008 C 
ATOM      4  C   UNL     1       7.729   8.513  -7.109  0.00  0.00    -0.009 C 
ATOM      5  C   UNL     1       8.130   9.512  -6.019  0.00  0.00    +0.008 C 
ATOM      6  C   UNL     1       6.954   9.746  -5.071  0.00  0.00    +0.037 C 
ATOM      7  C   UNL     1       6.448   8.395  -4.571  0.00  0.00    -0.023 A 
ATOM      8  C   UNL     1       6.756   7.258  -5.229  0.00  0.00    -0.004 A 
ATOM      9  S   UNL     1       5.972   5.965  -4.304  0.00  0.00    -0.073 S 
ATOM     10  C   UNL     1       5.232   6.959  -3.034  0.00  0.00    +0.116 A 
ATOM     11  C   UNL     1       5.620   8.264  -3.373  0.00  0.00    +0.075 A 
ATOM     12  C   UNL     1       5.152   9.298  -2.498  0.00  0.00    +0.260 A 
ATOM     13  O   UNL     1       5.436  10.465  -2.709  0.00  0.00    -0.267 OA
ATOM     14  N   UNL     1       4.393   8.960  -1.439  0.00  0.00    -0.312 N 
ATOM     15  H   UNL     1       4.072   9.654  -0.843  0.00  0.00    +0.170 HD
ATOM     16  C   UNL     1       4.067   7.665  -1.188  0.00  0.00    +0.097 A 
ATOM     17  N   UNL     1       4.483   6.701  -1.965  0.00  0.00    -0.228 NA
ATOM     18  C   UNL     1       7.582   7.123  -6.472  0.00  0.00    +0.046 C 
ENDBRANCH   1  16
BRANCH   1  24
ATOM     19  C   UNL     1       2.170   5.519   1.222  0.00  0.00    -0.077 C 
ATOM     20  C   UNL     1       1.985   4.000   1.252  0.00  0.00    -0.009 C 
ATOM     21  C   UNL     1       1.207   3.561   0.009  0.00  0.00    +0.041 C 
ATOM     22  C   UNL     1       1.962   4.013  -1.244  0.00  0.00    -0.009 C 
ATOM     23  C   UNL     1       2.148   5.532  -1.201  0.00  0.00    -0.077 C 
ATOM     24  N   UNL     1       2.925   5.887   0.006  0.00  0.00    +0.386 N 
ATOM     25  H   UNL     1       3.812   5.369  -0.004  0.00  0.00    -0.081 HD
BRANCH  21  26
ATOM     26  C   UNL     1       1.073   2.060   0.003  0.00  0.00    +0.082 A 
ATOM     27  N   UNL     1      -0.016   1.345   0.009  0.00  0.00    -0.244 NA
ATOM     28  C   UNL     1       0.002  -0.004   0.002  0.00  0.00    +0.078 A 
ATOM     29  C   UNL     1      -1.082  -0.909   0.007  0.00  0.00    +0.029 A 
ATOM     30  C   UNL     1      -0.866  -2.252  -0.002  0.00  0.00    +0.002 A 
ATOM     31  C   UNL     1       0.417  -2.783  -0.017  0.00  0.00    +0.001 A 
ATOM     32  C   UNL     1       1.504  -1.931  -0.023  0.00  0.00    +0.017 A 
ATOM     33  C   UNL     1       1.296  -0.573  -0.013  0.00  0.00    +0.039 A 
ATOM     34  S   UNL     1       2.335   0.867  -0.016  0.00  0.00    -0.072 S 
ENDBRANCH  21  26
ENDBRANCH   1  24
TORSDOF 3
