REMARK  Name = ZINC13114598
REMARK  6 active torsions:
REMARK  status: ('A' for Active; 'I' for Inactive)
REMARK    1  A    between atoms: C_4  and  C_7
REMARK    2  A    between atoms: C_7  and  C_29
REMARK    3  A    between atoms: N_10  and  N_14
REMARK    4  A    between atoms: C_15  and  C_17
REMARK    5  A    between atoms: C_17  and  C_18
REMARK    6  A    between atoms: C_21  and  C_23
REMARK                            x       y       z     vdW  Elec       q    Type
REMARK                         _______ _______ _______ _____ _____    ______ ____
ROOT
ATOM      1  C   UNL     1       7.428  -4.959  -4.544  0.00  0.00    +0.165 C 
ATOM      2  C   UNL     1       6.075  -5.641  -4.602  0.00  0.00    +0.272 C 
ATOM      3  O   UNL     1       5.552  -6.149  -5.571  0.00  0.00    -0.270 OA
ATOM      4  N   UNL     1       5.574  -5.563  -3.353  0.00  0.00    -0.137 N 
ATOM      5  C   UNL     1       6.417  -4.939  -2.522  0.00  0.00    +0.327 C 
ATOM      6  O   UNL     1       6.188  -4.752  -1.343  0.00  0.00    -0.251 OA
ATOM      7  N   UNL     1       7.546  -4.543  -3.136  0.00  0.00    -0.276 N 
ATOM      8  H   UNL     1       8.293  -4.076  -2.730  0.00  0.00    +0.152 HD
ENDROOT
BRANCH   1  12
ATOM      9  C   UNL     1       7.522  -1.558  -7.128  0.00  0.00    +0.000 A 
ATOM     10  C   UNL     1       7.054  -2.771  -7.598  0.00  0.00    +0.000 A 
ATOM     11  C   UNL     1       7.023  -3.872  -6.762  0.00  0.00    +0.006 A 
ATOM     12  C   UNL     1       7.461  -3.759  -5.456  0.00  0.00    -0.011 A 
ATOM     13  C   UNL     1       7.925  -2.546  -4.984  0.00  0.00    +0.006 A 
ATOM     14  C   UNL     1       7.959  -1.446  -5.821  0.00  0.00    +0.000 A 
ENDBRANCH   1  12
BRANCH   1  15
ATOM     15  C   UNL     1       8.525  -5.928  -4.905  0.00  0.00    -0.011 A 
ATOM     16  C   UNL     1       8.455  -6.642  -6.087  0.00  0.00    +0.006 A 
ATOM     17  C   UNL     1       9.463  -7.527  -6.420  0.00  0.00    +0.000 A 
ATOM     18  C   UNL     1      10.537  -7.705  -5.567  0.00  0.00    +0.000 A 
ATOM     19  C   UNL     1      10.604  -6.995  -4.383  0.00  0.00    +0.000 A 
ATOM     20  C   UNL     1       9.598  -6.106  -4.052  0.00  0.00    +0.006 A 
ENDBRANCH   1  15
BRANCH   4  21
ATOM     21  N   UNL     1       4.328  -6.076  -2.972  0.00  0.00    -0.223 N 
ATOM     22  C   UNL     1       3.292  -5.240  -2.757  0.00  0.00    +0.235 C 
ATOM     23  O   UNL     1       3.440  -4.044  -2.893  0.00  0.00    -0.274 OA
ATOM     24  H   UNL     1       4.210  -7.032  -2.863  0.00  0.00    +0.174 HD
BRANCH  22  25
ATOM     25  C   UNL     1       1.951  -5.793  -2.347  0.00  0.00    +0.153 C 
BRANCH  25  26
ATOM     26  C   UNL     1       0.974  -4.659  -2.171  0.00  0.00    +0.058 A 
ATOM     27  C   UNL     1      -0.203  -4.663  -2.852  0.00  0.00    +0.071 A 
ATOM     28  S   UNL     1      -0.929  -3.138  -2.265  0.00  0.00    -0.075 S 
ATOM     29  C   UNL     1       0.415  -2.658  -1.187  0.00  0.00    +0.110 A 
ATOM     30  N   UNL     1       1.257  -3.667  -1.360  0.00  0.00    -0.243 NA
BRANCH  29  31
ATOM     31  C   UNL     1       0.548  -1.461  -0.329  0.00  0.00    +0.025 A 
ATOM     32  C   UNL     1      -0.468  -0.499  -0.287  0.00  0.00    +0.013 A 
ATOM     33  C   UNL     1      -0.294   0.603   0.532  0.00  0.00    +0.020 A 
ATOM     34  C   UNL     1       0.867   0.717   1.276  0.00  0.00    +0.111 A 
ATOM     35  N   UNL     1       1.808  -0.205   1.216  0.00  0.00    -0.263 NA
ATOM     36  C   UNL     1       1.688  -1.271   0.452  0.00  0.00    +0.121 A 
ENDBRANCH  29  31
ENDBRANCH  25  26
ENDBRANCH  22  25
ENDBRANCH   4  21
TORSDOF 6
