REMARK  Name = ZINC12131778
REMARK  6 active torsions:
REMARK  status: ('A' for Active; 'I' for Inactive)
REMARK    1  A    between atoms: C_1  and  N_2
REMARK    2  A    between atoms: C_11  and  C_13
REMARK    3  A    between atoms: N_15  and  C_16
REMARK    4  A    between atoms: C_16  and  C_17
REMARK    5  A    between atoms: C_17  and  N_57
REMARK    6  A    between atoms: C_26  and  C_29
REMARK                            x       y       z     vdW  Elec       q    Type
REMARK                         _______ _______ _______ _____ _____    ______ ____
ROOT
ATOM      1  C   UNL     1      -2.200  -3.816   3.967  0.00  0.00    -0.059 C 
ENDROOT
BRANCH   1  12
ATOM      2  C   UNL     1      -4.152  -4.901   4.898  0.00  0.00    -0.039 C 
ATOM      3  C   UNL     1      -4.589  -5.434   6.248  0.00  0.00    -0.022 A 
ATOM      4  C   UNL     1      -5.209  -4.599   7.156  0.00  0.00    +0.005 A 
ATOM      5  C   UNL     1      -5.620  -5.101   8.378  0.00  0.00    +0.000 A 
ATOM      6  C   UNL     1      -5.411  -6.433   8.687  0.00  0.00    +0.004 A 
ATOM      7  C   UNL     1      -4.785  -7.267   7.780  0.00  0.00    +0.046 A 
ATOM      8  C   UNL     1      -4.364  -6.762   6.558  0.00  0.00    +0.123 A 
ATOM      9  O   UNL     1      -3.701  -7.561   5.678  0.00  0.00    -0.486 OA
ATOM     10  C   UNL     1      -2.312  -7.259   5.502  0.00  0.00    +0.188 C 
ATOM     11  C   UNL     1      -2.127  -6.179   4.458  0.00  0.00    -0.028 C 
ATOM     12  N   UNL     1      -2.670  -4.871   4.880  0.00  0.00    +0.386 N 
ATOM     13  H   UNL     1      -2.333  -4.664   5.827  0.00  0.00    -0.081 HD
BRANCH  10  14
ATOM     14  C   UNL     1      -1.586  -8.504   5.061  0.00  0.00    -0.002 A 
ATOM     15  C   UNL     1      -0.331  -8.799   5.561  0.00  0.00    +0.015 A 
ATOM     16  C   UNL     1       0.295  -9.926   5.144  0.00  0.00    +0.045 A 
ATOM     17  S   UNL     1      -0.900 -10.613   4.008  0.00  0.00    -0.105 S 
ATOM     18  C   UNL     1      -2.155  -9.354   4.171  0.00  0.00    +0.052 A 
ENDBRANCH  10  14
ENDBRANCH   1  12
BRANCH   1  19
ATOM     19  C   UNL     1      -2.555  -2.457   4.573  0.00  0.00    +0.086 C 
BRANCH  19  22
ATOM     20  C   UNL     1      -2.272  -0.099   4.029  0.00  0.00    +0.265 C 
ATOM     21  O   UNL     1      -2.856   0.178   5.058  0.00  0.00    -0.268 OA
ATOM     22  N   UNL     1      -2.070  -1.389   3.695  0.00  0.00    -0.312 N 
ATOM     23  H   UNL     1      -1.604  -1.611   2.874  0.00  0.00    +0.149 HD
BRANCH  20  34
ATOM     24  C   UNL     1      -0.013   1.086   0.008  0.00  0.00    +0.176 C 
ATOM     25  N   UNL     1      -0.698   1.558   1.213  0.00  0.00    -0.231 N 
ATOM     26  C   UNL     1      -0.813   2.889   1.403  0.00  0.00    +0.275 A 
ATOM     27  O   UNL     1      -0.358   3.675   0.592  0.00  0.00    -0.266 OA
ATOM     28  C   UNL     1      -1.505   3.368   2.607  0.00  0.00    +0.050 A 
ATOM     29  C   UNL     1      -1.679   4.718   2.892  0.00  0.00    +0.014 A 
ATOM     30  C   UNL     1      -2.335   5.086   4.048  0.00  0.00    +0.001 A 
ATOM     31  C   UNL     1      -2.821   4.125   4.925  0.00  0.00    +0.001 A 
ATOM     32  C   UNL     1      -2.658   2.781   4.660  0.00  0.00    +0.011 A 
ATOM     33  C   UNL     1      -1.999   2.389   3.500  0.00  0.00    +0.020 A 
ATOM     34  C   UNL     1      -1.783   0.977   3.144  0.00  0.00    +0.153 A 
ATOM     35  N   UNL     1      -1.152   0.687   2.033  0.00  0.00    -0.163 NA
ENDBRANCH  20  34
ENDBRANCH  19  22
ENDBRANCH   1  19
TORSDOF 5
