REMARK  Name = ZINC42406652
REMARK  5 active torsions:
REMARK  status: ('A' for Active; 'I' for Inactive)
REMARK    1  A    between atoms: C_1  and  N_2
REMARK    2  A    between atoms: C_4  and  S_7
REMARK    3  A    between atoms: S_7  and  C_8
REMARK    4  A    between atoms: C_11  and  N_17
REMARK    5  A    between atoms: C_13  and  C_14
REMARK                            x       y       z     vdW  Elec       q    Type
REMARK                         _______ _______ _______ _____ _____    ______ ____
ROOT
ATOM      1  C   UNL     1       0.214  -4.856  -0.572  0.00  0.00    +0.027 A 
ATOM      2  C   UNL     1       0.192  -4.617   0.798  0.00  0.00    +0.017 A 
ATOM      3  C   UNL     1       0.326  -5.663   1.685  0.00  0.00    +0.024 A 
ATOM      4  C   UNL     1       0.485  -6.966   1.220  0.00  0.00    +0.025 A 
ATOM      5  C   UNL     1       0.510  -7.223  -0.138  0.00  0.00    +0.039 A 
ATOM      6  C   UNL     1       0.369  -6.169  -1.049  0.00  0.00    +0.079 A 
ENDROOT
BRANCH   6   7
ATOM      7  C   UNL     1       0.389  -6.433  -2.494  0.00  0.00    +0.388 C 
ATOM      8  O   UNL     1       0.524  -7.578  -2.905  0.00  0.00    -0.241 OA
ATOM      9  O   UNL     1       0.270  -5.509  -3.287  0.00  0.00    -0.241 OA
ENDBRANCH   6   7
BRANCH   4  10
ATOM     10  N   UNL     1       0.621  -8.021   2.131  0.00  0.00    -0.358 N 
ATOM     11  H   UNL     1       0.605  -7.843   3.085  0.00  0.00    +0.142 HD
ATOM     12  H   UNL     1       0.733  -8.929   1.809  0.00  0.00    +0.142 HD
ENDBRANCH   4  10
BRANCH   1  13
ATOM     13  S   UNL     1       0.042  -3.518  -1.706  0.00  0.00    -0.086 S 
BRANCH  13  17
ATOM     14  C   UNL     1       1.527   0.599   1.224  0.00  0.00    +0.172 C 
ATOM     15  N   UNL     1       0.685  -0.382   0.534  0.00  0.00    -0.273 N 
ATOM     16  C   UNL     1       1.124  -1.423  -0.221  0.00  0.00    +0.123 A 
ATOM     17  C   UNL     1       0.032  -2.087  -0.678  0.00  0.00    +0.050 A 
ATOM     18  C   UNL     1      -1.107  -1.431  -0.187  0.00  0.00    +0.149 A 
ATOM     19  N   UNL     1      -0.715  -0.417   0.541  0.00  0.00    -0.179 NA
ENDBRANCH  13  17
ENDBRANCH   1  13
TORSDOF 4
