REMARK  Name = ZINC46685671
REMARK  7 active torsions:
REMARK  status: ('A' for Active; 'I' for Inactive)
REMARK    1  A    between atoms: C_7  and  C_11
REMARK    2  A    between atoms: C_11  and  C_12
REMARK    3  A    between atoms: C_12  and  C_14
REMARK    4  A    between atoms: C_12  and  N_29
REMARK    5  A    between atoms: N_20  and  C_23
REMARK    6  A    between atoms: C_23  and  C_24
REMARK    7  A    between atoms: C_30  and  C_32
REMARK                            x       y       z     vdW  Elec       q    Type
REMARK                         _______ _______ _______ _____ _____    ______ ____
ROOT
ATOM      1  C   UNL     1       0.236  -3.589  -1.455  0.00  0.00    +0.164 C 
ENDROOT
BRANCH   1   2
ATOM      2  C   UNL     1      -0.602  -4.842  -1.466  0.00  0.00    +0.236 C 
ATOM      3  O   UNL     1      -1.811  -4.762  -1.520  0.00  0.00    -0.274 OA
ATOM      4  N   UNL     1      -0.007  -6.050  -1.416  0.00  0.00    -0.302 N 
ATOM      5  C   UNL     1       1.466  -6.117  -1.345  0.00  0.00    +0.106 C 
ATOM      6  C   UNL     1       1.925  -7.199  -0.351  0.00  0.00    +0.000 C 
ATOM      7  C   UNL     1       1.024  -7.181   0.864  0.00  0.00    -0.077 C 
ATOM      8  N   UNL     1      -0.055  -8.148   0.679  0.00  0.00    +0.384 N 
ATOM      9  C   UNL     1      -1.197  -7.646   0.015  0.00  0.00    -0.059 C 
ATOM     10  C   UNL     1      -0.837  -7.238  -1.427  0.00  0.00    +0.089 C 
ATOM     11  H   UNL     1       0.304  -8.928   0.150  0.00  0.00    -0.081 HD
BRANCH   8  12
ATOM     12  C   UNL     1      -0.467  -8.641   2.000  0.00  0.00    -0.036 C 
BRANCH  12  13
ATOM     13  C   UNL     1      -1.495  -9.730   1.831  0.00  0.00    -0.027 A 
ATOM     14  C   UNL     1      -1.310 -11.068   1.712  0.00  0.00    +0.009 A 
ATOM     15  C   UNL     1      -2.413 -11.887   1.566  0.00  0.00    +0.008 A 
ATOM     16  C   UNL     1      -3.648 -11.329   1.546  0.00  0.00    +0.045 A 
ATOM     17  S   UNL     1      -3.273  -9.595   1.745  0.00  0.00    -0.103 S 
ENDBRANCH  12  13
ENDBRANCH   8  12
ENDBRANCH   1   2
BRANCH   1  18
ATOM     18  N   UNL     1      -0.550  -2.472  -1.985  0.00  0.00    -0.299 N 
ATOM     19  C   UNL     1      -1.694  -2.104  -1.375  0.00  0.00    +0.251 C 
ATOM     20  O   UNL     1      -2.074  -2.699  -0.384  0.00  0.00    -0.270 OA
ATOM     21  H   UNL     1      -0.247  -1.997  -2.775  0.00  0.00    +0.150 HD
BRANCH  19  22
ATOM     22  C   UNL     1      -2.480  -0.986  -1.905  0.00  0.00    +0.074 A 
ATOM     23  C   UNL     1      -3.667  -0.450  -1.430  0.00  0.00    +0.021 A 
ATOM     24  C   UNL     1      -4.173   0.608  -2.146  0.00  0.00    +0.008 A 
ATOM     25  C   UNL     1      -3.499   1.048  -3.237  0.00  0.00    +0.046 A 
ATOM     26  S   UNL     1      -2.154   0.045  -3.323  0.00  0.00    -0.092 S 
ENDBRANCH  19  22
ENDBRANCH   1  18
BRANCH   1  27
ATOM     27  C   UNL     1       0.666  -3.275  -0.021  0.00  0.00    +0.069 C 
BRANCH  27  34
ATOM     28  C   UNL     1      -0.017   1.362   0.009  0.00  0.00    +0.001 A 
ATOM     29  C   UNL     1       1.170   2.083   0.002  0.00  0.00    +0.002 A 
ATOM     30  C   UNL     1       2.386   1.436  -0.013  0.00  0.00    +0.026 A 
ATOM     31  C   UNL     1       2.428   0.046  -0.021  0.00  0.00    +0.047 A 
ATOM     32  C   UNL     1       1.223  -0.681  -0.013  0.00  0.00    +0.003 A 
ATOM     33  C   UNL     1       0.002  -0.004   0.002  0.00  0.00    +0.010 A 
ATOM     34  C   UNL     1       1.604  -2.095  -0.025  0.00  0.00    -0.020 A 
ATOM     35  C   UNL     1       2.945  -2.141  -0.038  0.00  0.00    +0.087 A 
ATOM     36  N   UNL     1       3.455  -0.871  -0.036  0.00  0.00    -0.360 N 
ATOM     37  H   UNL     1       4.399  -0.650  -0.044  0.00  0.00    +0.165 HD
ENDBRANCH  27  34
ENDBRANCH   1  27
TORSDOF 7
