REMARK  Name = ZINC10353090
REMARK  5 active torsions:
REMARK  status: ('A' for Active; 'I' for Inactive)
REMARK    1  A    between atoms: C_1  and  C_2
REMARK    2  A    between atoms: C_8  and  C_10
REMARK    3  A    between atoms: C_11  and  C_32
REMARK    4  A    between atoms: N_12  and  C_26
REMARK    5  A    between atoms: C_16  and  C_18
REMARK                            x       y       z     vdW  Elec       q    Type
REMARK                         _______ _______ _______ _____ _____    ______ ____
ROOT
ATOM      1  C   UNL     1      -3.751  -4.562   0.327  0.00  0.00    +0.056 C 
ATOM      2  C   UNL     1      -5.073  -4.803   0.197  0.00  0.00    +0.025 C 
ATOM      3  N   UNL     1      -5.534  -6.040  -0.155  0.00  0.00    -0.255 N 
ATOM      4  C   UNL     1      -4.736  -7.089  -0.394  0.00  0.00    +0.142 C 
ATOM      5  S   UNL     1      -5.444  -8.586  -0.827  0.00  0.00    -0.018 S 
ATOM      6  N   UNL     1      -3.394  -7.004  -0.304  0.00  0.00    -0.315 N 
ATOM      7  C   UNL     1      -2.797  -5.709   0.063  0.00  0.00    +0.142 C 
ATOM      8  C   UNL     1      -6.057  -3.688   0.445  0.00  0.00    +0.062 C 
ATOM      9  H   UNL     1      -2.835  -7.776  -0.481  0.00  0.00    +0.149 HD
ENDROOT
BRANCH   1  17
ATOM     10  C   UNL     1      -1.068   1.566   1.678  0.00  0.00    +0.089 C 
ATOM     11  C   UNL     1      -1.725   0.319   2.211  0.00  0.00    +0.136 A 
ATOM     12  C   UNL     1      -2.142  -0.728   1.476  0.00  0.00    +0.091 A 
ATOM     13  C   UNL     1      -2.699  -1.685   2.354  0.00  0.00    +0.168 A 
ATOM     14  N   UNL     1      -2.612  -1.213   3.571  0.00  0.00    -0.063 NA
ATOM     15  O   UNL     1      -1.990   0.057   3.500  0.00  0.00    -0.358 OA
ATOM     16  N   UNL     1      -3.245  -2.915   1.988  0.00  0.00    -0.264 N 
ATOM     17  C   UNL     1      -3.272  -3.280   0.691  0.00  0.00    +0.249 C 
ATOM     18  O   UNL     1      -2.885  -2.509  -0.168  0.00  0.00    -0.270 OA
ATOM     19  H   UNL     1      -3.605  -3.507   2.667  0.00  0.00    +0.157 HD
ENDBRANCH   1  17
BRANCH   7  20
ATOM     20  C   UNL     1      -1.970  -5.920   1.306  0.00  0.00    +0.013 A 
ATOM     21  C   UNL     1      -2.388  -6.819   2.269  0.00  0.00    +0.011 A 
ATOM     22  C   UNL     1      -1.631  -7.014   3.408  0.00  0.00    +0.039 A 
ATOM     23  C   UNL     1      -0.453  -6.309   3.587  0.00  0.00    +0.126 A 
ATOM     24  C   UNL     1      -0.033  -5.409   2.623  0.00  0.00    +0.077 A 
ATOM     25  C   UNL     1      -0.789  -5.218   1.479  0.00  0.00    +0.131 A 
ATOM     26  F   UNL     1      -0.378  -4.344   0.534  0.00  0.00    -0.205 F 
ATOM     27  F   UNL     1       0.287  -6.499   4.701  0.00  0.00    -0.205 F 
ENDBRANCH   7  20
BRANCH   3  28
ATOM     28  C   UNL     1      -6.918  -6.222  -0.272  0.00  0.00    +0.040 A 
ATOM     29  C   UNL     1      -7.578  -7.101   0.576  0.00  0.00    +0.024 A 
ATOM     30  C   UNL     1      -8.943  -7.278   0.458  0.00  0.00    +0.002 A 
ATOM     31  C   UNL     1      -9.652  -6.580  -0.503  0.00  0.00    +0.000 A 
ATOM     32  C   UNL     1      -8.997  -5.705  -1.350  0.00  0.00    +0.002 A 
ATOM     33  C   UNL     1      -7.633  -5.519  -1.233  0.00  0.00    +0.024 A 
ENDBRANCH   3  28
TORSDOF 3
