REMARK  Name = ZINC35779082
REMARK  11 active torsions:
REMARK  status: ('A' for Active; 'I' for Inactive)
REMARK    1  A    between atoms: C_2  and  C_3
REMARK    2  A    between atoms: C_3  and  N_4
REMARK    3  A    between atoms: N_4  and  C_5
REMARK    4  A    between atoms: N_4  and  C_15
REMARK    5  A    between atoms: C_5  and  C_6
REMARK    6  A    between atoms: C_6  and  C_8
REMARK    7  A    between atoms: C_6  and  O_14
REMARK    8  A    between atoms: C_15  and  C_16
REMARK    9  A    between atoms: C_26  and  C_28
REMARK   10  A    between atoms: C_28  and  O_29
REMARK   11  A    between atoms: O_29  and  C_30
REMARK                            x       y       z     vdW  Elec       q    Type
REMARK                         _______ _______ _______ _____ _____    ______ ____
ROOT
ATOM      1  C   UNL     1      -1.091  -2.452   1.375  0.00  0.00    +0.200 C 
ATOM      2  O   UNL     1      -1.340  -1.358   1.835  0.00  0.00    -0.278 OA
ATOM      3  N   UNL     1      -2.086  -3.336   1.162  0.00  0.00    -0.292 N 
ATOM      4  C   UNL     1      -1.795  -4.668   0.611  0.00  0.00    +0.113 C 
ATOM      5  C   UNL     1      -2.147  -5.719   1.676  0.00  0.00    +0.061 C 
ATOM      6  C   UNL     1      -3.451  -5.347   2.303  0.00  0.00    -0.004 A 
ATOM      7  C   UNL     1      -4.090  -4.146   2.255  0.00  0.00    -0.014 A 
ATOM      8  C   UNL     1      -5.302  -4.055   2.937  0.00  0.00    +0.013 A 
ATOM      9  C   UNL     1      -5.790  -5.130   3.597  0.00  0.00    +0.046 A 
ATOM     10  S   UNL     1      -4.530  -6.358   3.282  0.00  0.00    -0.101 S 
ATOM     11  C   UNL     1      -3.476  -2.985   1.484  0.00  0.00    +0.144 C 
ENDROOT
BRANCH   1  12
ATOM     12  C   UNL     1       0.331  -2.824   1.042  0.00  0.00    +0.019 C 
BRANCH  12  13
ATOM     13  N   UNL     1       1.212  -1.680   1.313  0.00  0.00    +0.390 N 
ATOM     14  H   UNL     1       1.056  -1.350   2.253  0.00  0.00    -0.081 HD
BRANCH  13  15
ATOM     15  C   UNL     1       0.919  -0.600   0.361  0.00  0.00    -0.051 C 
BRANCH  15  17
ATOM     16  C   UNL     1       0.422  -0.975  -2.000  0.00  0.00    +0.002 C 
ATOM     17  C   UNL     1       1.300  -1.040  -1.030  0.00  0.00    -0.053 C 
ENDBRANCH  15  17
ENDBRANCH  13  15
BRANCH  13  18
ATOM     18  C   UNL     1       2.613  -2.096   1.166  0.00  0.00    -0.041 C 
BRANCH  18  19
ATOM     19  C   UNL     1       3.532  -0.960   1.620  0.00  0.00    +0.128 C 
BRANCH  19  20
ATOM     20  C   UNL     1       4.949  -1.467   1.712  0.00  0.00    -0.021 A 
ATOM     21  C   UNL     1       5.752  -1.482   0.588  0.00  0.00    +0.006 A 
ATOM     22  C   UNL     1       7.051  -1.947   0.673  0.00  0.00    +0.000 A 
ATOM     23  C   UNL     1       7.547  -2.396   1.882  0.00  0.00    +0.000 A 
ATOM     24  C   UNL     1       6.744  -2.380   3.007  0.00  0.00    +0.000 A 
ATOM     25  C   UNL     1       5.446  -1.911   2.923  0.00  0.00    +0.006 A 
ENDBRANCH  19  20
BRANCH  19  26
ATOM     26  O   UNL     1       3.470   0.110   0.675  0.00  0.00    -0.389 OA
ATOM     27  H   UNL     1       3.743  -0.138  -0.219  0.00  0.00    +0.210 HD
ENDBRANCH  19  26
ENDBRANCH  18  19
ENDBRANCH  13  18
ENDBRANCH  12  13
ENDBRANCH   1  12
BRANCH  11  28
ATOM     28  C   UNL     1      -4.263  -2.753   0.193  0.00  0.00    +0.256 C 
BRANCH  28  29
ATOM     29  O   UNL     1      -4.346  -3.977  -0.541  0.00  0.00    -0.490 OA
BRANCH  29  30
ATOM     30  C   UNL     1      -5.018  -3.944  -1.722  0.00  0.00    +0.123 A 
ATOM     31  C   UNL     1      -5.581  -2.756  -2.168  0.00  0.00    +0.046 A 
ATOM     32  C   UNL     1      -6.264  -2.724  -3.368  0.00  0.00    +0.006 A 
ATOM     33  C   UNL     1      -6.388  -3.873  -4.126  0.00  0.00    +0.038 A 
ATOM     34  C   UNL     1      -5.827  -5.060  -3.684  0.00  0.00    +0.127 A 
ATOM     35  C   UNL     1      -5.138  -5.095  -2.485  0.00  0.00    +0.084 A 
ATOM     36  F   UNL     1      -5.949  -6.183  -4.426  0.00  0.00    -0.205 F 
ENDBRANCH  29  30
ENDBRANCH  28  29
ENDBRANCH  11  28
TORSDOF 11
