REMARK  Name = ZINC38907072
REMARK  4 active torsions:
REMARK  status: ('A' for Active; 'I' for Inactive)
REMARK    1  A    between atoms: C_1  and  N_2
REMARK    2  A    between atoms: C_8  and  C_10
REMARK    3  A    between atoms: N_15  and  C_17
REMARK    4  A    between atoms: C_24  and  C_30
REMARK                            x       y       z     vdW  Elec       q    Type
REMARK                         _______ _______ _______ _____ _____    ______ ____
ROOT
ATOM      1  C   UNL     1      -0.083   1.467   0.009  0.00  0.00    +0.174 C 
ATOM      2  N   UNL     1      -0.045   0.003   0.001  0.00  0.00    -0.251 N 
ATOM      3  C   UNL     1      -0.028  -0.784  -1.091  0.00  0.00    +0.129 A 
ATOM      4  C   UNL     1       0.020  -2.085  -0.665  0.00  0.00    +0.042 A 
ATOM      5  C   UNL     1       0.018  -2.082   0.727  0.00  0.00    +0.153 A 
ATOM      6  N   UNL     1      -0.015  -0.830   1.132  0.00  0.00    -0.154 NA
ATOM      7  N   UNL     1       0.052  -3.213   1.553  0.00  0.00    -0.268 N 
ATOM      8  C   UNL     1       0.046  -3.070   2.893  0.00  0.00    +0.223 C 
ATOM      9  O   UNL     1       0.012  -1.961   3.384  0.00  0.00    -0.275 OA
ATOM     10  C   UNL     1       0.073  -3.247  -1.625  0.00  0.00    +0.071 C 
ATOM     11  C   UNL     1      -0.631  -2.833  -2.921  0.00  0.00    +0.109 C 
ATOM     12  C   UNL     1      -0.227  -1.448  -3.341  0.00  0.00    +0.219 C 
ATOM     13  O   UNL     1      -0.068  -1.214  -4.520  0.00  0.00    -0.275 OA
ATOM     14  N   UNL     1      -0.036  -0.455  -2.446  0.00  0.00    -0.270 N 
ATOM     15  H   UNL     1       0.079  -4.100   1.160  0.00  0.00    +0.156 HD
ATOM     16  H   UNL     1       0.092   0.461  -2.737  0.00  0.00    +0.156 HD
ENDROOT
BRANCH   8  17
ATOM     17  C   UNL     1       0.082  -4.287   3.781  0.00  0.00    +0.102 C 
ATOM     18  C   UNL     1      -1.196  -5.139   3.603  0.00  0.00    +0.110 C 
ATOM     19  C   UNL     1      -1.498  -5.650   4.995  0.00  0.00    +0.221 C 
ATOM     20  O   UNL     1      -2.244  -6.571   5.251  0.00  0.00    -0.275 OA
ATOM     21  N   UNL     1      -0.817  -4.935   5.908  0.00  0.00    -0.271 N 
ATOM     22  C   UNL     1      -0.010  -3.887   5.271  0.00  0.00    +0.127 C 
BRANCH  21  23
ATOM     23  C   UNL     1      -0.871  -5.160   7.288  0.00  0.00    +0.036 A 
ATOM     24  C   UNL     1      -1.750  -6.103   7.805  0.00  0.00    +0.025 A 
ATOM     25  C   UNL     1      -1.800  -6.324   9.168  0.00  0.00    +0.022 A 
ATOM     26  C   UNL     1      -0.977  -5.606  10.017  0.00  0.00    +0.041 A 
ATOM     27  C   UNL     1      -0.100  -4.666   9.504  0.00  0.00    +0.022 A 
ATOM     28  C   UNL     1      -0.041  -4.446   8.142  0.00  0.00    +0.025 A 
ATOM     29 CL   UNL     1      -1.044  -5.886  11.729  0.00  0.00    -0.084 Cl
ENDBRANCH  21  23
ENDBRANCH   8  17
BRANCH  10  30
ATOM     30  C   UNL     1      -0.629  -4.436  -1.022  0.00  0.00    -0.002 A 
ATOM     31  C   UNL     1      -0.133  -5.664  -0.732  0.00  0.00    +0.012 A 
ATOM     32  C   UNL     1      -0.971  -6.611  -0.174  0.00  0.00    +0.008 A 
ATOM     33  C   UNL     1      -2.264  -6.285   0.066  0.00  0.00    +0.045 A 
ATOM     34  S   UNL     1      -2.328  -4.592  -0.496  0.00  0.00    -0.101 S 
ENDBRANCH  10  30
TORSDOF 3
