REMARK  Name = ZINC64390272
REMARK  6 active torsions:
REMARK  status: ('A' for Active; 'I' for Inactive)
REMARK    1  A    between atoms: C_1  and  C_2
REMARK    2  A    between atoms: C_3  and  C_14
REMARK    3  A    between atoms: C_5  and  C_7
REMARK    4  A    between atoms: C_14  and  S_15
REMARK    5  A    between atoms: S_15  and  C_16
REMARK    6  A    between atoms: C_26  and  C_29
REMARK                            x       y       z     vdW  Elec       q    Type
REMARK                         _______ _______ _______ _____ _____    ______ ____
ROOT
ATOM      1  C   UNL     1      -4.780   0.422  -1.405  0.00  0.00    +0.269 C 
ATOM      2  N   UNL     1      -4.723   1.716  -0.703  0.00  0.00    -0.163 NA
ATOM      3  N   UNL     1      -4.794   1.827   0.522  0.00  0.00    -0.081 NA
ATOM      4  C   UNL     1      -4.902   0.775   1.370  0.00  0.00    +0.272 C 
ATOM      5  O   UNL     1      -5.071   0.931   2.556  0.00  0.00    -0.270 OA
ATOM      6  C   UNL     1      -4.802  -0.594   0.762  0.00  0.00    +0.167 C 
ATOM      7  N   UNL     1      -5.505  -0.499  -0.553  0.00  0.00    -0.196 NA
ATOM      8  N   UNL     1      -5.737  -1.857  -0.965  0.00  0.00    -0.243 NA
ATOM      9  C   UNL     1      -5.929  -2.654   0.278  0.00  0.00    +0.108 C 
ATOM     10  C   UNL     1      -5.634  -1.675   1.472  0.00  0.00    +0.055 C 
ATOM     11  H   UNL     1      -6.546  -1.920  -1.564  0.00  0.00    +0.142 HD
ENDROOT
BRANCH   9  12
ATOM     12  C   UNL     1      -7.342  -3.174   0.349  0.00  0.00    +0.008 A 
ATOM     13  C   UNL     1      -7.788  -4.374   0.793  0.00  0.00    +0.013 A 
ATOM     14  C   UNL     1      -9.145  -4.637   0.766  0.00  0.00    +0.008 A 
ATOM     15  C   UNL     1      -9.989  -3.686   0.296  0.00  0.00    +0.045 A 
ATOM     16  S   UNL     1      -8.862  -2.366  -0.122  0.00  0.00    -0.100 S 
ENDBRANCH   9  12
BRANCH   1  17
ATOM     17  S   UNL     1      -3.100  -0.198  -1.695  0.00  0.00    -0.110 S 
BRANCH  17  18
ATOM     18  C   UNL     1      -2.508   0.782  -3.103  0.00  0.00    +0.131 C 
BRANCH  18  21
ATOM     19  C   UNL     1      -1.779  -1.464  -5.152  0.00  0.00    +0.088 C 
ATOM     20  C   UNL     1      -0.806  -0.631  -4.358  0.00  0.00    +0.127 A 
ATOM     21  C   UNL     1      -1.118   0.336  -3.476  0.00  0.00    +0.093 A 
ATOM     22  N   UNL     1       0.029   0.833  -2.987  0.00  0.00    -0.213 NA
ATOM     23  C   UNL     1       1.032   0.198  -3.546  0.00  0.00    +0.228 A 
ATOM     24  O   UNL     1       0.538  -0.719  -4.396  0.00  0.00    -0.440 OA
BRANCH  23  25
ATOM     25  C   UNL     1       2.465   0.445  -3.280  0.00  0.00    +0.038 A 
ATOM     26  C   UNL     1       2.849   1.423  -2.361  0.00  0.00    +0.013 A 
ATOM     27  C   UNL     1       4.188   1.649  -2.117  0.00  0.00    +0.002 A 
ATOM     28  C   UNL     1       5.150   0.909  -2.781  0.00  0.00    +0.020 A 
ATOM     29  C   UNL     1       4.777  -0.062  -3.694  0.00  0.00    +0.042 A 
ATOM     30  C   UNL     1       3.440  -0.303  -3.942  0.00  0.00    +0.033 A 
ATOM     31 CL   UNL     1       5.992  -0.986  -4.522  0.00  0.00    -0.084 Cl
ENDBRANCH  23  25
ENDBRANCH  18  21
ENDBRANCH  17  18
ENDBRANCH   1  17
TORSDOF 5
