REMARK  Name = ZINC64050538
REMARK  6 active torsions:
REMARK  status: ('A' for Active; 'I' for Inactive)
REMARK    1  A    between atoms: C_8  and  C_9
REMARK    2  A    between atoms: N_11  and  C_12
REMARK    3  A    between atoms: C_12  and  C_13
REMARK    4  A    between atoms: C_13  and  S_14
REMARK    5  A    between atoms: S_14  and  C_15
REMARK    6  A    between atoms: C_15  and  C_16
REMARK                            x       y       z     vdW  Elec       q    Type
REMARK                         _______ _______ _______ _____ _____    ______ ____
ROOT
ATOM      1  C   UNL     1      -1.261  -0.764   0.011  0.00  0.00    +0.245 C 
ATOM      2  O   UNL     1      -1.239  -1.980   0.004  0.00  0.00    -0.270 OA
ATOM      3  N   UNL     1      -2.441  -0.112   0.026  0.00  0.00    -0.311 N 
ATOM      4  H   UNL     1      -2.458   0.858   0.031  0.00  0.00    +0.149 HD
ENDROOT
BRANCH   1  12
ATOM      5  C   UNL     1      -0.017   1.412   0.010  0.00  0.00    +0.020 A 
ATOM      6  C   UNL     1       1.163   2.087   0.002  0.00  0.00    +0.071 A 
ATOM      7  C   UNL     1       2.373   1.369  -0.013  0.00  0.00    +0.249 A 
ATOM      8  O   UNL     1       3.434   1.970  -0.020  0.00  0.00    -0.268 OA
ATOM      9  N   UNL     1       2.368   0.023  -0.020  0.00  0.00    -0.328 N 
ATOM     10  H   UNL     1       3.211  -0.457  -0.031  0.00  0.00    +0.168 HD
ATOM     11  C   UNL     1       1.212  -0.667  -0.013  0.00  0.00    +0.099 A 
ATOM     12  C   UNL     1       0.002  -0.004   0.002  0.00  0.00    +0.053 A 
ENDBRANCH   1  12
BRANCH   3  13
ATOM     13  C   UNL     1      -3.696  -0.867   0.034  0.00  0.00    +0.115 C 
BRANCH  13  14
ATOM     14  C   UNL     1      -4.876   0.106   0.051  0.00  0.00    +0.088 C 
BRANCH  14  15
ATOM     15  S   UNL     1      -6.431  -0.829   0.061  0.00  0.00    -0.154 S 
BRANCH  15  16
ATOM     16  C   UNL     1      -7.714   0.452   0.081  0.00  0.00    +0.110 C 
BRANCH  16  17
ATOM     17  C   UNL     1      -9.073  -0.198   0.091  0.00  0.00    -0.007 C 
ATOM     18  C   UNL     1      -9.900  -0.296   1.114  0.00  0.00    -0.014 C 
ATOM     19  C   UNL     1     -11.213  -0.991   0.946  0.00  0.00    +0.054 C 
ATOM     20  C   UNL     1     -11.586  -1.104  -0.556  0.00  0.00    +0.122 C 
ATOM     21  S   UNL     1      -9.898  -0.986  -1.280  0.00  0.00    -0.114 S 
ATOM     22 BR   UNL     1     -12.431  -2.833  -0.960  0.00  0.00    -0.076 Br
ENDBRANCH  16  17
ENDBRANCH  15  16
ENDBRANCH  14  15
ENDBRANCH  13  14
ENDBRANCH   3  13
TORSDOF 6
