REMARK  Name = ZINC09484598
REMARK  9 active torsions:
REMARK  status: ('A' for Active; 'I' for Inactive)
REMARK    1  A    between atoms: C_1  and  C_2
REMARK    2  A    between atoms: C_2  and  N_3
REMARK    3  A    between atoms: C_4  and  C_24
REMARK    4  A    between atoms: C_7  and  S_8
REMARK    5  A    between atoms: S_8  and  C_9
REMARK    6  A    between atoms: C_9  and  C_10
REMARK    7  A    between atoms: N_12  and  C_13
REMARK    8  A    between atoms: C_13  and  C_15
REMARK    9  A    between atoms: C_13  and  C_16
REMARK                            x       y       z     vdW  Elec       q    Type
REMARK                         _______ _______ _______ _____ _____    ______ ____
ROOT
ATOM      1  C   UNL     1       0.903   3.740   0.130  0.00  0.00    +0.173 C 
ENDROOT
BRANCH   1   2
ATOM      2  C   UNL     1       0.829   2.235   0.163  0.00  0.00    +0.224 C 
ATOM      3  O   UNL     1       1.847   1.577   0.144  0.00  0.00    -0.275 OA
ATOM      4  N   UNL     1      -0.369   1.621   0.212  0.00  0.00    -0.308 N 
ATOM      5  H   UNL     1      -1.184   2.147   0.223  0.00  0.00    +0.149 HD
BRANCH   4   6
ATOM      6  C   UNL     1      -0.442   0.158   0.244  0.00  0.00    +0.100 C 
ATOM      7  C   UNL     1      -0.387  -0.387  -1.185  0.00  0.00    +0.033 C 
BRANCH   6   8
ATOM      8  C   UNL     1      -1.734  -0.267   0.894  0.00  0.00    -0.026 A 
ATOM      9  C   UNL     1      -1.749  -1.345   1.760  0.00  0.00    +0.007 A 
ATOM     10  C   UNL     1      -2.933  -1.735   2.357  0.00  0.00    +0.022 A 
ATOM     11  C   UNL     1      -4.103  -1.048   2.087  0.00  0.00    +0.059 A 
ATOM     12  C   UNL     1      -4.088   0.030   1.219  0.00  0.00    +0.060 A 
ATOM     13  C   UNL     1      -2.901   0.424   0.627  0.00  0.00    +0.027 A 
ATOM     14 CL   UNL     1      -5.555   0.893   0.880  0.00  0.00    -0.082 Cl
ATOM     15 CL   UNL     1      -5.591  -1.539   2.836  0.00  0.00    -0.082 Cl
ENDBRANCH   6   8
ENDBRANCH   4   6
ENDBRANCH   1   2
BRANCH   1  16
ATOM     16  S   UNL     1       2.637   4.257   0.066  0.00  0.00    -0.077 S 
BRANCH  16  21
ATOM     17  N   UNL     1       3.431   6.938  -0.013  0.00  0.00    -0.302 N 
ATOM     18  C   UNL     1       2.799   8.160  -0.018  0.00  0.00    +0.165 A 
ATOM     19  N   UNL     1       1.508   7.926   0.027  0.00  0.00    -0.128 NA
ATOM     20  N   UNL     1       1.292   6.660   0.053  0.00  0.00    -0.122 NA
ATOM     21  C   UNL     1       2.433   6.007   0.037  0.00  0.00    +0.192 A 
BRANCH  18  22
ATOM     22  C   UNL     1       3.451   9.486  -0.065  0.00  0.00    +0.019 A 
ATOM     23  C   UNL     1       4.771   9.603  -0.503  0.00  0.00    +0.011 A 
ATOM     24  C   UNL     1       5.372  10.844  -0.549  0.00  0.00    +0.001 A 
ATOM     25  C   UNL     1       4.672  11.970  -0.153  0.00  0.00    +0.000 A 
ATOM     26  C   UNL     1       3.365  11.860   0.287  0.00  0.00    +0.001 A 
ATOM     27  C   UNL     1       2.751  10.626   0.333  0.00  0.00    +0.011 A 
ENDBRANCH  18  22
BRANCH  17  29
ATOM     28  C   UNL     1       5.319   6.494  -1.503  0.00  0.00    +0.027 C 
ATOM     29  C   UNL     1       4.874   6.687  -0.052  0.00  0.00    +0.122 C 
ENDBRANCH  17  29
ENDBRANCH  16  21
ENDBRANCH   1  16
TORSDOF 7
