REMARK  Name = ZINC13977769
REMARK  14 active torsions:
REMARK  status: ('A' for Active; 'I' for Inactive)
REMARK    1  A    between atoms: C_4  and  C_7
REMARK    2  A    between atoms: C_7  and  O_8
REMARK    3  A    between atoms: O_8  and  C_9
REMARK    4  A    between atoms: C_13  and  S_15
REMARK    5  A    between atoms: S_15  and  C_16
REMARK    6  A    between atoms: C_19  and  C_23
REMARK    7  A    between atoms: C_23  and  C_24
REMARK    8  A    between atoms: C_24  and  C_25
REMARK    9  A    between atoms: C_25  and  C_26
REMARK   10  A    between atoms: C_25  and  C_28
REMARK   11  A    between atoms: C_25  and  N_59
REMARK   12  A    between atoms: C_26  and  O_27
REMARK   13  A    between atoms: C_28  and  O_29
REMARK   14  A    between atoms: O_29  and  P_30
REMARK                            x       y       z     vdW  Elec       q    Type
REMARK                         _______ _______ _______ _____ _____    ______ ____
ROOT
ATOM      1  C   UNL     1      -1.237   3.138   0.035  0.00  0.00    +0.014 A 
ATOM      2  C   UNL     1      -1.218   1.748   0.037  0.00  0.00    +0.015 A 
ATOM      3  C   UNL     1      -0.013   1.075   0.032  0.00  0.00    +0.006 A 
ATOM      4  C   UNL     1       1.176   1.782   0.014  0.00  0.00    -0.029 A 
ATOM      5  C   UNL     1       1.162   3.166   0.006  0.00  0.00    +0.045 A 
ATOM      6  C   UNL     1      -0.041   3.846   0.017  0.00  0.00    +0.035 A 
ATOM      7 CL   UNL     1       2.657   4.048  -0.016  0.00  0.00    -0.083 Cl
ENDROOT
BRANCH   1   8
ATOM      8  S   UNL     1      -2.773   4.001   0.048  0.00  0.00    -0.089 S 
BRANCH   8  13
ATOM      9  C   UNL     1      -5.521   1.194   0.926  0.00  0.00    +0.122 A 
ATOM     10  C   UNL     1      -5.877   0.719  -0.330  0.00  0.00    +0.046 A 
ATOM     11  C   UNL     1      -5.287   1.246  -1.462  0.00  0.00    +0.005 A 
ATOM     12  C   UNL     1      -4.344   2.250  -1.350  0.00  0.00    +0.015 A 
ATOM     13  C   UNL     1      -3.980   2.725  -0.096  0.00  0.00    +0.016 A 
ATOM     14  C   UNL     1      -4.572   2.196   1.043  0.00  0.00    +0.060 A 
BRANCH   9  15
ATOM     15  O   UNL     1      -6.103   0.674   2.039  0.00  0.00    -0.487 OA
BRANCH  15  16
ATOM     16  C   UNL     1      -7.072  -0.357   1.843  0.00  0.00    +0.264 C 
BRANCH  16  20
ATOM     17  C   UNL     1      -8.581  -1.632   5.630  0.00  0.00    +0.000 A 
ATOM     18  C   UNL     1      -9.201  -0.601   4.951  0.00  0.00    +0.000 A 
ATOM     19  C   UNL     1      -8.713  -0.188   3.726  0.00  0.00    +0.007 A 
ATOM     20  C   UNL     1      -7.604  -0.807   3.179  0.00  0.00    -0.010 A 
ATOM     21  C   UNL     1      -6.987  -1.843   3.856  0.00  0.00    +0.007 A 
ATOM     22  C   UNL     1      -7.472  -2.252   5.084  0.00  0.00    +0.000 A 
ENDBRANCH  16  20
ENDBRANCH  15  16
ENDBRANCH   9  15
ENDBRANCH   8  13
ENDBRANCH   1   8
BRANCH   4  23
ATOM     23  C   UNL     1       2.489   1.043   0.003  0.00  0.00    +0.035 C 
BRANCH  23  24
ATOM     24  C   UNL     1       3.040   1.003  -1.424  0.00  0.00    -0.004 C 
BRANCH  24  25
ATOM     25  C   UNL     1       4.373   0.253  -1.435  0.00  0.00    -0.023 C 
BRANCH  25  28
ATOM     26  H   UNL     1       5.462   1.839  -0.702  0.00  0.00    -0.089 HD
ATOM     27  H   UNL     1       4.940   0.783   0.472  0.00  0.00    -0.089 HD
ATOM     28  N   UNL     1       5.312   0.858  -0.474  0.00  0.00    +0.385 N 
ATOM     29  H   UNL     1       6.210   0.361  -0.521  0.00  0.00    -0.089 HD
ENDBRANCH  25  28
BRANCH  25  30
ATOM     30  C   UNL     1       4.139  -1.210  -1.050  0.00  0.00    +0.145 C 
BRANCH  30  31
ATOM     31  O   UNL     1       3.246  -1.812  -1.989  0.00  0.00    -0.396 OA
ATOM     32  H   UNL     1       3.052  -2.742  -1.806  0.00  0.00    +0.209 HD
ENDBRANCH  30  31
ENDBRANCH  25  30
BRANCH  25  33
ATOM     33  C   UNL     1       4.985   0.320  -2.836  0.00  0.00    +0.162 C 
BRANCH  33  34
ATOM     34  O   UNL     1       6.230  -0.381  -2.846  0.00  0.00    -0.285 OA
BRANCH  34  35
ATOM     35  P   UNL     1       7.150  -0.514  -4.161  0.00  0.00    +0.532 P 
ATOM     36  O   UNL     1       6.353  -1.094  -5.264  0.00  0.00    -0.222 OA
ATOM     37  O   UNL     1       7.684   0.943  -4.592  0.00  0.00    -0.115 OA
ATOM     38  O   UNL     1       8.404  -1.472  -3.843  0.00  0.00    -0.115 OA
ENDBRANCH  34  35
ENDBRANCH  33  34
ENDBRANCH  25  33
ENDBRANCH  24  25
ENDBRANCH  23  24
ENDBRANCH   4  23
TORSDOF 14
