REMARK  Name = ZINC47870923
REMARK  8 active torsions:
REMARK  status: ('A' for Active; 'I' for Inactive)
REMARK    1  A    between atoms: C_7  and  C_11
REMARK    2  A    between atoms: C_11  and  C_12
REMARK    3  A    between atoms: C_12  and  N_13
REMARK    4  A    between atoms: C_14  and  C_16
REMARK    5  A    between atoms: C_18  and  O_25
REMARK    6  A    between atoms: C_21  and  N_22
REMARK    7  A    between atoms: O_25  and  C_26
REMARK    8  A    between atoms: C_26  and  C_27
REMARK                            x       y       z     vdW  Elec       q    Type
REMARK                         _______ _______ _______ _____ _____    ______ ____
ROOT
ATOM      1  N   UNL     1      -0.221  -4.962  -2.150  0.00  0.00    -0.311 N 
ATOM      2  C   UNL     1      -1.104  -5.320  -3.103  0.00  0.00    +0.246 C 
ATOM      3  O   UNL     1      -1.109  -4.744  -4.174  0.00  0.00    -0.270 OA
ATOM      4  H   UNL     1      -0.216  -5.421  -1.296  0.00  0.00    +0.149 HD
ENDROOT
BRANCH   2   5
ATOM      5  C   UNL     1      -2.065  -6.413  -2.847  0.00  0.00    +0.070 A 
ATOM      6  C   UNL     1      -1.607  -7.668  -2.444  0.00  0.00    +0.061 A 
ATOM      7  C   UNL     1      -2.514  -8.687  -2.206  0.00  0.00    +0.122 A 
ATOM      8  C   UNL     1      -3.874  -8.460  -2.368  0.00  0.00    +0.048 A 
ATOM      9  C   UNL     1      -4.329  -7.217  -2.767  0.00  0.00    +0.037 A 
ATOM     10  C   UNL     1      -3.435  -6.192  -3.002  0.00  0.00    +0.138 A 
BRANCH  10  11
ATOM     11  N   UNL     1      -3.927  -4.861  -3.423  0.00  0.00    +0.057 N 
ATOM     12  O   UNL     1      -5.098  -4.703  -3.676  0.00  0.00    -0.126 OA
ATOM     13  O   UNL     1      -3.158  -3.933  -3.513  0.00  0.00    -0.126 OA
ENDBRANCH  10  11
BRANCH   7  14
ATOM     14  O   UNL     1      -2.072  -9.912  -1.814  0.00  0.00    -0.483 OA
BRANCH  14  15
ATOM     15  C   UNL     1      -3.062 -10.916  -1.586  0.00  0.00    +0.342 C 
BRANCH  15  16
ATOM     16  C   UNL     1      -2.380 -12.216  -1.155  0.00  0.00    +0.424 C 
ATOM     17  F   UNL     1      -1.660 -11.996   0.024  0.00  0.00    -0.167 F 
ATOM     18  F   UNL     1      -3.350 -13.200  -0.932  0.00  0.00    -0.167 F 
ATOM     19  F   UNL     1      -1.508 -12.641  -2.162  0.00  0.00    -0.167 F 
ENDBRANCH  15  16
ENDBRANCH  14  15
ENDBRANCH   7  14
ENDBRANCH   2   5
BRANCH   1  20
ATOM     20  C   UNL     1       0.732  -3.878  -2.404  0.00  0.00    +0.109 C 
BRANCH  20  21
ATOM     21  C   UNL     1       1.613  -3.674  -1.169  0.00  0.00    +0.056 C 
BRANCH  21  28
ATOM     22  C   UNL     1       1.347   0.989  -0.774  0.00  0.00    +0.001 A 
ATOM     23  C   UNL     1       2.525   1.630  -1.132  0.00  0.00    +0.002 A 
ATOM     24  C   UNL     1       3.619   0.907  -1.552  0.00  0.00    +0.026 A 
ATOM     25  C   UNL     1       3.545  -0.481  -1.619  0.00  0.00    +0.047 A 
ATOM     26  C   UNL     1       2.350  -1.126  -1.254  0.00  0.00    +0.003 A 
ATOM     27  C   UNL     1       1.253  -0.373  -0.831  0.00  0.00    +0.010 A 
ATOM     28  C   UNL     1       2.593  -2.560  -1.431  0.00  0.00    -0.021 A 
ATOM     29  C   UNL     1       3.855  -2.692  -1.869  0.00  0.00    +0.087 A 
ATOM     30  N   UNL     1       4.440  -1.461  -1.987  0.00  0.00    -0.360 N 
ATOM     31  H   UNL     1       5.349  -1.302  -2.286  0.00  0.00    +0.165 HD
ENDBRANCH  21  28
ENDBRANCH  20  21
ENDBRANCH   1  20
TORSDOF 8
