REMARK  Name = ZINC20285552
REMARK  8 active torsions:
REMARK  status: ('A' for Active; 'I' for Inactive)
REMARK    1  A    between atoms: C_1  and  C_2
REMARK    2  A    between atoms: C_5  and  S_8
REMARK    3  A    between atoms: S_8  and  C_11
REMARK    4  A    between atoms: C_17  and  O_30
REMARK    5  A    between atoms: N_21  and  C_22
REMARK    6  A    between atoms: C_25  and  O_28
REMARK    7  A    between atoms: O_28  and  C_29
REMARK    8  A    between atoms: O_30  and  C_31
REMARK                            x       y       z     vdW  Elec       q    Type
REMARK                         _______ _______ _______ _____ _____    ______ ____
ROOT
ATOM      1  C   UNL     1       4.825   0.075  -0.044  0.00  0.00    +0.154 A 
ATOM      2  C   UNL     1       3.693  -0.669  -0.033  0.00  0.00    +0.044 A 
ATOM      3  C   UNL     1       2.402   0.030  -0.005  0.00  0.00    +0.023 A 
ATOM      4  C   UNL     1       1.199  -0.683   0.009  0.00  0.00    +0.012 A 
ATOM      5  C   UNL     1       0.002  -0.002   0.036  0.00  0.00    +0.004 A 
ATOM      6  C   UNL     1      -0.017   1.384   0.050  0.00  0.00    +0.049 A 
ATOM      7  C   UNL     1       1.166   2.104   0.037  0.00  0.00    +0.163 A 
ATOM      8  C   UNL     1       2.386   1.433   0.009  0.00  0.00    +0.179 A 
ATOM      9  O   UNL     1       3.550   2.120  -0.003  0.00  0.00    -0.434 OA
ATOM     10  C   UNL     1       4.739   1.487  -0.028  0.00  0.00    +0.225 A 
ATOM     11  N   UNL     1       5.848   2.199  -0.039  0.00  0.00    -0.324 N 
ATOM     12  H   UNL     1       6.824   1.698   0.028  0.00  0.00    +0.169 HD
ENDROOT
BRANCH  11  13
ATOM     13  C   UNL     1       5.784   3.562  -0.135  0.00  0.00    +0.042 A 
ATOM     14  C   UNL     1       5.698   4.173  -1.389  0.00  0.00    +0.029 A 
ATOM     15  C   UNL     1       5.628   5.547  -1.480  0.00  0.00    +0.047 A 
ATOM     16  C   UNL     1       5.654   6.324  -0.329  0.00  0.00    +0.120 A 
ATOM     17  C   UNL     1       5.745   5.721   0.918  0.00  0.00    +0.047 A 
ATOM     18  C   UNL     1       5.810   4.348   1.020  0.00  0.00    +0.029 A 
BRANCH  16  19
ATOM     19  O   UNL     1       5.591   7.678  -0.424  0.00  0.00    -0.495 OA
ATOM     20  C   UNL     1       5.498   8.233  -1.738  0.00  0.00    +0.277 C 
ENDBRANCH  16  19
ENDBRANCH  11  13
BRANCH   1  21
ATOM     21  S   UNL     1       6.400  -0.714  -0.077  0.00  0.00    +0.030 S 
ATOM     22  O   UNL     1       6.197  -2.004  -0.637  0.00  0.00    -0.164 OA
ATOM     23  O   UNL     1       7.312   0.223  -0.633  0.00  0.00    -0.164 OA
BRANCH  21  28
ATOM     24  C   UNL     1       8.089  -1.570   5.652  0.00  0.00    +0.044 C 
ATOM     25  C   UNL     1       7.667  -1.357   4.221  0.00  0.00    -0.050 A 
ATOM     26  C   UNL     1       6.937  -2.329   3.563  0.00  0.00    +0.005 A 
ATOM     27  C   UNL     1       6.551  -2.132   2.251  0.00  0.00    +0.027 A 
ATOM     28  C   UNL     1       6.893  -0.964   1.596  0.00  0.00    +0.094 A 
ATOM     29  C   UNL     1       7.628   0.006   2.253  0.00  0.00    +0.027 A 
ATOM     30  C   UNL     1       8.011  -0.188   3.567  0.00  0.00    +0.005 A 
ENDBRANCH  21  28
ENDBRANCH   1  21
BRANCH   7  31
ATOM     31  O   UNL     1       1.136   3.463   0.050  0.00  0.00    -0.491 OA
ATOM     32  C   UNL     1      -0.151   4.083   0.078  0.00  0.00    +0.277 C 
ENDBRANCH   7  31
TORSDOF 5
