REMARK  Name = ZINC16906874
REMARK  7 active torsions:
REMARK  status: ('A' for Active; 'I' for Inactive)
REMARK    1  A    between atoms: C_1  and  C_2
REMARK    2  A    between atoms: C_2  and  C_4
REMARK    3  A    between atoms: C_2  and  O_6
REMARK    4  A    between atoms: O_6  and  C_7
REMARK    5  A    between atoms: C_10  and  C_13
REMARK    6  A    between atoms: N_17  and  N_21
REMARK    7  A    between atoms: C_22  and  C_24
REMARK                            x       y       z     vdW  Elec       q    Type
REMARK                         _______ _______ _______ _____ _____    ______ ____
ROOT
ATOM      1  C   UNL     1      -2.242   1.337   0.760  0.00  0.00    +0.028 C 
ATOM      2  C   UNL     1      -0.948   1.673   0.990  0.00  0.00    +0.079 C 
ATOM      3  C   UNL     1       0.236   0.804   1.151  0.00  0.00    +0.275 C 
ATOM      4  O   UNL     1       0.153  -0.408   1.085  0.00  0.00    -0.267 OA
ATOM      5  N   UNL     1       1.391   1.411   1.364  0.00  0.00    -0.169 N 
ATOM      6  C   UNL     1       1.479   2.755   1.436  0.00  0.00    +0.138 C 
ATOM      7  S   UNL     1       2.870   3.717   1.704  0.00  0.00    -0.026 S 
ATOM      8  S   UNL     1      -0.206   3.288   1.186  0.00  0.00    -0.059 S 
ENDROOT
BRANCH   1  12
ATOM      9  C   UNL     1      -3.264  -2.680  -0.137  0.00  0.00    +0.122 A 
ATOM     10  C   UNL     1      -4.114  -1.907   0.646  0.00  0.00    +0.046 A 
ATOM     11  C   UNL     1      -3.788  -0.603   0.940  0.00  0.00    +0.011 A 
ATOM     12  C   UNL     1      -2.596  -0.054   0.450  0.00  0.00    -0.024 A 
ATOM     13  C   UNL     1      -1.746  -0.835  -0.343  0.00  0.00    +0.011 A 
ATOM     14  C   UNL     1      -2.080  -2.140  -0.627  0.00  0.00    +0.046 A 
BRANCH   9  15
ATOM     15  O   UNL     1      -3.592  -3.966  -0.424  0.00  0.00    -0.478 OA
BRANCH  15  17
ATOM     16  C   UNL     1      -4.769  -4.911   1.462  0.00  0.00    +0.064 C 
ATOM     17  C   UNL     1      -4.872  -4.423   0.016  0.00  0.00    +0.282 C 
BRANCH  17  18
ATOM     18  C   UNL     1      -5.331  -5.556  -0.865  0.00  0.00    +0.395 C 
ATOM     19  O   UNL     1      -4.596  -5.993  -1.719  0.00  0.00    -0.242 OA
ATOM     20  O   UNL     1      -6.556  -6.080  -0.702  0.00  0.00    -0.242 OA
ENDBRANCH  17  18
ENDBRANCH  15  17
ENDBRANCH   9  15
ENDBRANCH   1  12
BRANCH   5  21
ATOM     21  N   UNL     1       2.551   0.640   1.519  0.00  0.00    -0.222 N 
ATOM     22  C   UNL     1       3.452   0.569   0.519  0.00  0.00    +0.262 C 
ATOM     23  O   UNL     1       3.258   1.173  -0.517  0.00  0.00    -0.269 OA
ATOM     24  H   UNL     1       2.706   0.158   2.346  0.00  0.00    +0.174 HD
BRANCH  22  25
ATOM     25  C   UNL     1       4.675  -0.244   0.683  0.00  0.00    +0.052 A 
ATOM     26  C   UNL     1       4.903  -0.935   1.874  0.00  0.00    +0.014 A 
ATOM     27  C   UNL     1       6.045  -1.696   2.019  0.00  0.00    +0.001 A 
ATOM     28  C   UNL     1       6.968  -1.768   0.990  0.00  0.00    +0.001 A 
ATOM     29  C   UNL     1       6.751  -1.082  -0.191  0.00  0.00    +0.016 A 
ATOM     30  C   UNL     1       5.610  -0.321  -0.351  0.00  0.00    +0.030 A 
ATOM     31 BR   UNL     1       5.316   0.617  -1.967  0.00  0.00    -0.050 Br
ENDBRANCH  22  25
ENDBRANCH   5  21
TORSDOF 6
