REMARK  Name = ZINC04054383
REMARK  3 active torsions:
REMARK  status: ('A' for Active; 'I' for Inactive)
REMARK    1  A    between atoms: C_3  and  N_18
REMARK    2  A    between atoms: C_4  and  N_15
REMARK    3  A    between atoms: C_6  and  C_7
REMARK                            x       y       z     vdW  Elec       q    Type
REMARK                         _______ _______ _______ _____ _____    ______ ____
ROOT
ATOM      1  C   UNL     1       1.112   0.569  -4.503  0.00  0.00    +0.010 A 
ATOM      2  C   UNL     1       0.923   1.512  -3.519  0.00  0.00    +0.026 A 
ATOM      3  C   UNL     1      -0.243   1.502  -2.760  0.00  0.00    +0.060 A 
ATOM      4  C   UNL     1      -1.219   0.535  -2.988  0.00  0.00    +0.148 A 
ATOM      5  C   UNL     1      -1.043  -0.402  -3.966  0.00  0.00    +0.042 A 
ATOM      6  C   UNL     1       0.127  -0.400  -4.736  0.00  0.00    -0.022 A 
ENDROOT
BRANCH   6   7
ATOM      7  C   UNL     1       0.320  -1.410  -5.783  0.00  0.00    +0.028 C 
ATOM      8  C   UNL     1       1.533  -2.000  -5.942  0.00  0.00    +0.079 C 
ATOM      9  C   UNL     1       2.740  -1.913  -5.097  0.00  0.00    +0.275 C 
ATOM     10  O   UNL     1       2.762  -1.240  -4.082  0.00  0.00    -0.267 OA
ATOM     11  N   UNL     1       3.795  -2.602  -5.496  0.00  0.00    -0.161 NA
ATOM     12  C   UNL     1       3.766  -3.347  -6.620  0.00  0.00    +0.139 C 
ATOM     13  S   UNL     1       5.016  -4.301  -7.297  0.00  0.00    -0.026 S 
ATOM     14  S   UNL     1       2.104  -3.103  -7.228  0.00  0.00    -0.059 S 
ENDBRANCH   6   7
BRANCH   3  15
ATOM     15  N   UNL     1      -0.433   2.457  -1.765  0.00  0.00    -0.328 N 
ATOM     16  C   UNL     1      -0.506   3.823  -2.346  0.00  0.00    +0.105 C 
ATOM     17  C   UNL     1      -0.174   4.767  -1.170  0.00  0.00    +0.020 C 
ATOM     18  C   UNL     1       0.645   3.902  -0.185  0.00  0.00    +0.020 C 
ATOM     19  C   UNL     1       0.737   2.512  -0.851  0.00  0.00    +0.105 C 
ENDBRANCH   3  15
BRANCH   4  20
ATOM     20  N   UNL     1      -2.454   0.526  -2.172  0.00  0.00    +0.058 N 
ATOM     21  O   UNL     1      -3.266  -0.372  -2.305  0.00  0.00    -0.126 OA
ATOM     22  O   UNL     1      -2.658   1.418  -1.367  0.00  0.00    -0.126 OA
ENDBRANCH   4  20
TORSDOF 3
