REMARK  Name = ZINC58871359
REMARK  10 active torsions:
REMARK  status: ('A' for Active; 'I' for Inactive)
REMARK    1  A    between atoms: C_1  and  C_2
REMARK    2  A    between atoms: C_2  and  O_3
REMARK    3  A    between atoms: O_3  and  C_4
REMARK    4  A    between atoms: C_6  and  C_15
REMARK    5  A    between atoms: C_9  and  O_10
REMARK    6  A    between atoms: O_10  and  C_11
REMARK    7  A    between atoms: C_11  and  C_12
REMARK    8  A    between atoms: N_16  and  N_17
REMARK    9  A    between atoms: C_18  and  C_20
REMARK   10  A    between atoms: C_25  and  O_26
REMARK                            x       y       z     vdW  Elec       q    Type
REMARK                         _______ _______ _______ _____ _____    ______ ____
ROOT
ATOM      1  C   UNL     1      -1.498  -1.849   0.006  0.00  0.00    +0.163 A 
ATOM      2  C   UNL     1      -0.391  -2.676  -0.003  0.00  0.00    +0.059 A 
ATOM      3  C   UNL     1      -0.559  -4.063  -0.009  0.00  0.00    -0.002 A 
ATOM      4  C   UNL     1      -1.846  -4.608  -0.005  0.00  0.00    +0.013 A 
ATOM      5  C   UNL     1      -2.946  -3.776   0.004  0.00  0.00    +0.050 A 
ATOM      6  C   UNL     1      -2.779  -2.399   0.016  0.00  0.00    +0.163 A 
ENDROOT
BRANCH   3   7
ATOM      7  C   UNL     1       0.619  -4.950  -0.019  0.00  0.00    +0.138 C 
ATOM      8  N   UNL     1       0.461  -6.239  -0.025  0.00  0.00    -0.187 NA
BRANCH   8   9
ATOM      9  N   UNL     1       1.580  -7.082  -0.035  0.00  0.00    -0.203 N 
ATOM     10  C   UNL     1       1.416  -8.419  -0.040  0.00  0.00    +0.267 C 
ATOM     11  O   UNL     1       0.296  -8.895  -0.037  0.00  0.00    -0.268 OA
ATOM     12  H   UNL     1       2.473  -6.702  -0.037  0.00  0.00    +0.178 HD
BRANCH  10  13
ATOM     13  C   UNL     1       2.594  -9.307  -0.051  0.00  0.00    +0.081 A 
ATOM     14  C   UNL     1       3.882  -8.765  -0.049  0.00  0.00    +0.032 A 
ATOM     15  C   UNL     1       4.979  -9.600  -0.059  0.00  0.00    +0.019 A 
ATOM     16  C   UNL     1       4.810 -10.976  -0.071  0.00  0.00    +0.019 A 
ATOM     17  C   UNL     1       3.542 -11.524  -0.073  0.00  0.00    +0.047 A 
ATOM     18  C   UNL     1       2.428 -10.698  -0.057  0.00  0.00    +0.129 A 
ATOM     19 BR   UNL     1       6.721  -8.865  -0.056  0.00  0.00    -0.050 Br
BRANCH  18  20
ATOM     20  O   UNL     1       1.182 -11.236  -0.052  0.00  0.00    -0.506 OA
ATOM     21  H   UNL     1       0.816 -11.387  -0.934  0.00  0.00    +0.292 HD
ENDBRANCH  18  20
ENDBRANCH  10  13
ENDBRANCH   8   9
ENDBRANCH   3   7
BRANCH   1  22
ATOM     22  O   UNL     1      -1.339  -0.499   0.012  0.00  0.00    -0.489 OA
BRANCH  22  24
ATOM     23  C   UNL     1      -0.019   1.526   0.010  0.00  0.00    +0.048 C 
ATOM     24  C   UNL     1       0.002  -0.004   0.002  0.00  0.00    +0.226 C 
ENDBRANCH  22  24
ENDBRANCH   1  22
BRANCH   6  25
ATOM     25  O   UNL     1      -3.866  -1.584   0.031  0.00  0.00    -0.479 OA
BRANCH  25  26
ATOM     26  C   UNL     1      -5.149  -2.214   0.040  0.00  0.00    +0.324 C 
BRANCH  26  27
ATOM     27  C   UNL     1      -6.226  -1.160   0.056  0.00  0.00    +0.248 C 
ATOM     28  O   UNL     1      -5.925   0.015   0.060  0.00  0.00    -0.272 OA
ATOM     29  N   UNL     1      -7.524  -1.524   0.067  0.00  0.00    -0.327 N 
ATOM     30  H   UNL     1      -7.765  -2.463   0.064  0.00  0.00    +0.145 HD
ATOM     31  H   UNL     1      -8.217  -0.845   0.077  0.00  0.00    +0.145 HD
ENDBRANCH  26  27
ENDBRANCH  25  26
ENDBRANCH   6  25
TORSDOF 9
