REMARK  Name = ZINC43227091
REMARK  18 active torsions:
REMARK  status: ('A' for Active; 'I' for Inactive)
REMARK    1  A    between atoms: C_1  and  C_2
REMARK    2  A    between atoms: C_2  and  C_3
REMARK    3  A    between atoms: C_3  and  C_4
REMARK    4  A    between atoms: C_3  and  C_5
REMARK    5  A    between atoms: C_3  and  C_6
REMARK    6  A    between atoms: C_9  and  O_17
REMARK    7  A    between atoms: C_10  and  C_12
REMARK    8  A    between atoms: C_12  and  C_13
REMARK    9  A    between atoms: C_12  and  C_14
REMARK   10  A    between atoms: C_12  and  C_15
REMARK   11  A    between atoms: C_15  and  C_16
REMARK   12  A    between atoms: O_17  and  C_18
REMARK   13  A    between atoms: C_18  and  C_19
REMARK   14  A    between atoms: C_19  and  C_20
REMARK   15  A    between atoms: C_20  and  C_21
REMARK   16  A    between atoms: C_21  and  N_22
REMARK   17  A    between atoms: C_23  and  C_25
REMARK   18  A    between atoms: C_28  and  C_30
REMARK                            x       y       z     vdW  Elec       q    Type
REMARK                         _______ _______ _______ _____ _____    ______ ____
ROOT
ATOM      1  C   UNL     1       0.304  -8.310   0.274  0.00  0.00    +0.042 C 
ENDROOT
BRANCH   1   2
ATOM      2  C   UNL     1       0.183  -6.794   0.108  0.00  0.00    +0.229 C 
BRANCH   2   3
ATOM      3  O   UNL     1       0.817  -6.143   1.211  0.00  0.00    -0.492 OA
BRANCH   3   7
ATOM      4  C   UNL     1       0.762  -2.018   1.233  0.00  0.00    -0.041 A 
ATOM      5  C   UNL     1       0.168  -2.710   0.195  0.00  0.00    +0.008 A 
ATOM      6  C   UNL     1       0.185  -4.091   0.185  0.00  0.00    +0.046 A 
ATOM      7  C   UNL     1       0.800  -4.784   1.218  0.00  0.00    +0.124 A 
ATOM      8  C   UNL     1       1.396  -4.087   2.259  0.00  0.00    +0.000 A 
ATOM      9  C   UNL     1       1.381  -2.705   2.261  0.00  0.00    +0.012 A 
BRANCH   4  10
ATOM     10  C   UNL     1       0.742  -0.511   1.242  0.00  0.00    -0.010 C 
ATOM     11  C   UNL     1       2.178   0.019   1.231  0.00  0.00    +0.016 C 
ATOM     12  C   UNL     1       0.026  -0.018   2.500  0.00  0.00    +0.016 C 
BRANCH  10  14
ATOM     13  C   UNL     1      -0.019   1.526   0.010  0.00  0.00    +0.005 C 
ATOM     14  C   UNL     1       0.002  -0.004   0.002  0.00  0.00    +0.007 C 
ENDBRANCH  10  14
ENDBRANCH   4  10
BRANCH   8  15
ATOM     15  C   UNL     1       2.064  -4.835   3.383  0.00  0.00    -0.007 C 
ATOM     16  C   UNL     1       2.637  -3.837   4.391  0.00  0.00    +0.016 C 
ATOM     17  C   UNL     1       1.039  -5.732   4.079  0.00  0.00    +0.016 C 
BRANCH  15  18
ATOM     18  C   UNL     1       3.196  -5.697   2.819  0.00  0.00    +0.008 C 
ATOM     19  C   UNL     1       3.875  -6.457   3.960  0.00  0.00    +0.005 C 
ENDBRANCH  15  18
ENDBRANCH   8  15
ENDBRANCH   3   7
ENDBRANCH   2   3
ENDBRANCH   1   2
BRANCH   1  20
ATOM     20  C   UNL     1      -0.374  -9.008  -0.907  0.00  0.00    +0.022 C 
BRANCH  20  21
ATOM     21  C   UNL     1      -0.254 -10.524  -0.742  0.00  0.00    +0.104 C 
BRANCH  21  22
ATOM     22  N   UNL     1      -0.903 -11.192  -1.872  0.00  0.00    -0.310 N 
ATOM     23  C   UNL     1      -0.921 -12.538  -1.940  0.00  0.00    +0.263 C 
ATOM     24  O   UNL     1      -0.398 -13.198  -1.063  0.00  0.00    -0.269 OA
ATOM     25  H   UNL     1      -1.321 -10.665  -2.572  0.00  0.00    +0.149 HD
BRANCH  23  26
ATOM     26  C   UNL     1      -1.575 -13.209  -3.076  0.00  0.00    +0.133 A 
ATOM     27  C   UNL     1      -1.622 -14.573  -3.183  0.00  0.00    +0.080 A 
ATOM     28  S   UNL     1      -2.457 -14.795  -4.624  0.00  0.00    -0.079 S 
ATOM     29  C   UNL     1      -2.715 -13.189  -5.038  0.00  0.00    +0.082 A 
ATOM     30  N   UNL     1      -2.161 -12.522  -4.062  0.00  0.00    -0.239 NA
BRANCH  29  31
ATOM     31  C   UNL     1      -3.425 -12.644  -6.250  0.00  0.00    +0.041 C 
ATOM     32  C   UNL     1      -4.870 -13.151  -6.268  0.00  0.00    -0.009 C 
ATOM     33  C   UNL     1      -5.562 -12.660  -7.541  0.00  0.00    -0.082 C 
ATOM     34  N   UNL     1      -4.848 -13.170  -8.718  0.00  0.00    +0.379 N 
ATOM     35  C   UNL     1      -3.484 -12.630  -8.746  0.00  0.00    -0.082 C 
ATOM     36  C   UNL     1      -2.712 -13.121  -7.519  0.00  0.00    -0.009 C 
ATOM     37  H   UNL     1      -4.810 -14.178  -8.676  0.00  0.00    -0.086 HD
ATOM     38  H   UNL     1      -5.337 -12.889  -9.555  0.00  0.00    -0.086 HD
ENDBRANCH  29  31
ENDBRANCH  23  26
ENDBRANCH  21  22
ENDBRANCH  20  21
ENDBRANCH   1  20
TORSDOF 12
