REMARK  Name = ZINC23600702
REMARK  9 active torsions:
REMARK  status: ('A' for Active; 'I' for Inactive)
REMARK    1  A    between atoms: C_1  and  C_2
REMARK    2  A    between atoms: C_2  and  C_4
REMARK    3  A    between atoms: C_2  and  S_16
REMARK    4  A    between atoms: N_6  and  C_7
REMARK    5  A    between atoms: C_10  and  N_13
REMARK    6  A    between atoms: S_16  and  C_17
REMARK    7  A    between atoms: C_20  and  C_28
REMARK    8  A    between atoms: N_21  and  C_22
REMARK    9  A    between atoms: C_22  and  C_23
REMARK                            x       y       z     vdW  Elec       q    Type
REMARK                         _______ _______ _______ _____ _____    ______ ____
ROOT
ATOM      1  C   UNL     1       1.287  -2.531   1.333  0.00  0.00    +0.193 A 
ATOM      2  N   UNL     1       0.194  -3.035   0.807  0.00  0.00    -0.122 NA
ATOM      3  N   UNL     1       0.379  -4.270   0.503  0.00  0.00    -0.128 NA
ATOM      4  C   UNL     1       1.601  -4.630   0.817  0.00  0.00    +0.165 A 
ATOM      5  N   UNL     1       2.223  -3.526   1.353  0.00  0.00    -0.295 N 
ENDROOT
BRANCH   4   6
ATOM      6  C   UNL     1       2.199  -5.969   0.624  0.00  0.00    +0.019 A 
ATOM      7  C   UNL     1       3.372  -6.315   1.298  0.00  0.00    +0.013 A 
ATOM      8  C   UNL     1       3.923  -7.567   1.117  0.00  0.00    +0.021 A 
ATOM      9  C   UNL     1       3.321  -8.475   0.263  0.00  0.00    +0.041 A 
ATOM     10  C   UNL     1       2.160  -8.135  -0.411  0.00  0.00    +0.021 A 
ATOM     11  C   UNL     1       1.597  -6.888  -0.236  0.00  0.00    +0.013 A 
ATOM     12 CL   UNL     1       4.024 -10.046   0.036  0.00  0.00    -0.084 Cl
ENDBRANCH   4   6
BRANCH   1  13
ATOM     13  S   UNL     1       1.508  -0.878   1.901  0.00  0.00    -0.073 S 
BRANCH  13  15
ATOM     14  C   UNL     1      -0.357  -0.195   0.026  0.00  0.00    +0.029 C 
ATOM     15  C   UNL     1      -0.130  -0.200   1.539  0.00  0.00    +0.137 C 
BRANCH  15  16
ATOM     16  C   UNL     1      -0.218   1.210   2.064  0.00  0.00    +0.230 C 
ATOM     17  O   UNL     1       0.791   1.868   2.206  0.00  0.00    -0.274 OA
ATOM     18  N   UNL     1      -1.417   1.742   2.370  0.00  0.00    -0.285 N 
ATOM     19  H   UNL     1      -2.338   1.177   2.164  0.00  0.00    +0.155 HD
BRANCH  18  20
ATOM     20  C   UNL     1      -1.492   3.013   2.951  0.00  0.00    +0.034 A 
ATOM     21  C   UNL     1      -2.477   3.293   3.888  0.00  0.00    +0.025 A 
ATOM     22  C   UNL     1      -2.544   4.547   4.464  0.00  0.00    +0.034 A 
ATOM     23  C   UNL     1      -1.639   5.527   4.098  0.00  0.00    +0.126 A 
ATOM     24  C   UNL     1      -0.660   5.252   3.161  0.00  0.00    +0.034 A 
ATOM     25  C   UNL     1      -0.584   3.998   2.586  0.00  0.00    +0.025 A 
BRANCH  23  26
ATOM     26  N   UNL     1      -1.717   6.871   4.712  0.00  0.00    +0.056 N 
ATOM     27  O   UNL     1      -0.920   7.734   4.391  0.00  0.00    -0.126 OA
ATOM     28  O   UNL     1      -2.579   7.114   5.538  0.00  0.00    -0.126 OA
ENDBRANCH  23  26
ENDBRANCH  18  20
ENDBRANCH  15  16
ENDBRANCH  13  15
ENDBRANCH   1  13
BRANCH   5  29
ATOM     29  C   UNL     1       3.599  -3.438   1.846  0.00  0.00    +0.200 C 
BRANCH  29  30
ATOM     30  C   UNL     1       3.611  -3.624   3.341  0.00  0.00    +0.125 A 
ATOM     31  C   UNL     1       3.630  -4.804   3.987  0.00  0.00    +0.046 A 
ATOM     32  C   UNL     1       3.637  -4.514   5.370  0.00  0.00    +0.041 A 
ATOM     33  C   UNL     1       3.613  -3.174   5.488  0.00  0.00    +0.195 A 
ATOM     34  O   UNL     1       3.598  -2.640   4.256  0.00  0.00    -0.466 OA
ENDBRANCH  29  30
ENDBRANCH   5  29
TORSDOF 8
