REMARK  Name = ZINC66145715
REMARK  8 active torsions:
REMARK  status: ('A' for Active; 'I' for Inactive)
REMARK    1  A    between atoms: C_1  and  C_2
REMARK    2  A    between atoms: C_2  and  O_3
REMARK    3  A    between atoms: O_3  and  C_4
REMARK    4  A    between atoms: C_6  and  C_11
REMARK    5  A    between atoms: C_9  and  O_10
REMARK    6  A    between atoms: N_15  and  C_19
REMARK    7  A    between atoms: C_19  and  C_21
REMARK    8  A    between atoms: C_19  and  C_22
REMARK                            x       y       z     vdW  Elec       q    Type
REMARK                         _______ _______ _______ _____ _____    ______ ____
ROOT
ATOM      1  C   UNL     1      -0.131  -4.990   0.382  0.00  0.00    +0.028 C 
ATOM      2  C   UNL     1      -0.150  -6.332   0.173  0.00  0.00    +0.077 C 
ATOM      3  C   UNL     1      -0.738  -7.405   0.999  0.00  0.00    +0.259 C 
ATOM      4  O   UNL     1      -1.316  -7.164   2.043  0.00  0.00    -0.269 OA
ATOM      5  N   UNL     1      -0.606  -8.640   0.547  0.00  0.00    -0.250 N 
ATOM      6  C   UNL     1       0.035  -8.903  -0.610  0.00  0.00    +0.121 C 
ATOM      7  S   UNL     1       0.306 -10.420  -1.354  0.00  0.00    -0.027 S 
ATOM      8  S   UNL     1       0.524  -7.284  -1.182  0.00  0.00    -0.061 S 
ENDROOT
BRANCH   1  11
ATOM      9  C   UNL     1       1.203  -1.927  -1.321  0.00  0.00    +0.162 A 
ATOM     10  C   UNL     1       0.451  -2.738  -0.494  0.00  0.00    +0.057 A 
ATOM     11  C   UNL     1       0.664  -4.122  -0.496  0.00  0.00    -0.020 A 
ATOM     12  C   UNL     1       1.638  -4.675  -1.336  0.00  0.00    +0.012 A 
ATOM     13  C   UNL     1       2.383  -3.858  -2.158  0.00  0.00    +0.050 A 
ATOM     14  C   UNL     1       2.167  -2.486  -2.159  0.00  0.00    +0.158 A 
BRANCH  14  15
ATOM     15  O   UNL     1       2.901  -1.686  -2.976  0.00  0.00    -0.503 OA
ATOM     16  H   UNL     1       3.719  -1.362  -2.577  0.00  0.00    +0.292 HD
ENDBRANCH  14  15
BRANCH   9  17
ATOM     17  O   UNL     1       0.999  -0.582  -1.323  0.00  0.00    -0.489 OA
BRANCH  17  19
ATOM     18  C   UNL     1      -0.089   1.444  -0.580  0.00  0.00    +0.048 C 
ATOM     19  C   UNL     1      -0.005  -0.077  -0.440  0.00  0.00    +0.226 C 
ENDBRANCH  17  19
ENDBRANCH   9  17
ENDBRANCH   1  11
BRANCH   5  20
ATOM     20  C   UNL     1      -1.168  -9.750   1.322  0.00  0.00    +0.108 C 
ATOM     21  C   UNL     1      -0.665  -9.671   2.765  0.00  0.00    +0.031 C 
BRANCH  20  22
ATOM     22  C   UNL     1      -2.695  -9.659   1.309  0.00  0.00    +0.139 C 
ATOM     23  C   UNL     1      -3.202  -9.574  -0.147  0.00  0.00    +0.036 C 
ATOM     24  C   UNL     1      -4.364  -8.550  -0.033  0.00  0.00    +0.031 C 
ATOM     25  C   UNL     1      -3.818  -7.608   1.071  0.00  0.00    +0.160 C 
ATOM     26  O   UNL     1      -3.117  -8.469   1.986  0.00  0.00    -0.375 OA
ENDBRANCH  20  22
ENDBRANCH   5  20
TORSDOF 6
