REMARK  Name = ZINC20597613
REMARK  2 active torsions:
REMARK  status: ('A' for Active; 'I' for Inactive)
REMARK    1  A    between atoms: C_4  and  N_11
REMARK    2  A    between atoms: C_5  and  C_7
REMARK                            x       y       z     vdW  Elec       q    Type
REMARK                         _______ _______ _______ _____ _____    ______ ____
ROOT
ATOM      1  N   UNL     1       1.265   1.725   2.387  0.00  0.00    -0.268 N 
ATOM      2  C   UNL     1       0.018   2.201   2.206  0.00  0.00    +0.311 C 
ATOM      3  O   UNL     1      -0.477   2.940   3.035  0.00  0.00    -0.252 OA
ATOM      4  N   UNL     1      -0.681   1.859   1.106  0.00  0.00    -0.252 N 
ATOM      5  C   UNL     1      -0.044   1.074   0.027  0.00  0.00    +0.137 C 
ATOM      6  C   UNL     1      -0.655   1.581  -1.278  0.00  0.00    +0.091 C 
ATOM      7  C   UNL     1      -0.202   0.783  -2.513  0.00  0.00    +0.025 C 
ATOM      8  C   UNL     1      -1.386   1.004  -3.495  0.00  0.00    +0.021 C 
ATOM      9  C   UNL     1      -2.590   1.376  -2.594  0.00  0.00    +0.105 C 
ATOM     10  N   UNL     1      -2.105   1.270  -1.222  0.00  0.00    -0.324 N 
ATOM     11  C   UNL     1      -2.734   1.968  -0.217  0.00  0.00    +0.052 A 
ATOM     12  C   UNL     1      -2.030   2.244   0.963  0.00  0.00    +0.059 A 
ATOM     13  C   UNL     1      -2.659   2.924   1.994  0.00  0.00    +0.025 A 
ATOM     14  C   UNL     1      -3.969   3.341   1.855  0.00  0.00    +0.002 A 
ATOM     15  C   UNL     1      -4.659   3.084   0.685  0.00  0.00    +0.002 A 
ATOM     16  C   UNL     1      -4.045   2.399  -0.347  0.00  0.00    +0.025 A 
ATOM     17  H   UNL     1       1.748   1.132   1.596  0.00  0.00    +0.156 HD
ENDROOT
BRANCH   1  21
ATOM     18  C   UNL     1       3.295   2.498   5.942  0.00  0.00    +0.001 A 
ATOM     19  C   UNL     1       1.917   2.603   5.898  0.00  0.00    +0.002 A 
ATOM     20  C   UNL     1       1.241   2.352   4.720  0.00  0.00    +0.024 A 
ATOM     21  C   UNL     1       1.947   1.984   3.581  0.00  0.00    +0.046 A 
ATOM     22  C   UNL     1       3.331   1.879   3.629  0.00  0.00    +0.076 A 
ATOM     23  C   UNL     1       4.001   2.136   4.810  0.00  0.00    +0.014 A 
BRANCH  22  24
ATOM     24  C   UNL     1       4.101   1.487   2.395  0.00  0.00    +0.419 C 
ATOM     25  F   UNL     1       5.468   1.449   2.690  0.00  0.00    -0.166 F 
ATOM     26  F   UNL     1       3.681   0.223   1.966  0.00  0.00    -0.166 F 
ATOM     27  F   UNL     1       3.868   2.423   1.382  0.00  0.00    -0.166 F 
ENDBRANCH  22  24
ENDBRANCH   1  21
TORSDOF 2
