REMARK  Name = ZINC40058064
REMARK  6 active torsions:
REMARK  status: ('A' for Active; 'I' for Inactive)
REMARK    1  A    between atoms: C_1  and  C_2
REMARK    2  A    between atoms: C_4  and  C_37
REMARK    3  A    between atoms: C_13  and  C_28
REMARK    4  A    between atoms: C_31  and  O_36
REMARK    5  A    between atoms: C_32  and  O_34
REMARK    6  A    between atoms: O_34  and  C_35
REMARK                            x       y       z     vdW  Elec       q    Type
REMARK                         _______ _______ _______ _____ _____    ______ ____
ROOT
ATOM      1  C   UNL     1      -0.523   1.450   0.038  0.00  0.00    +0.044 C 
ATOM      2  C   UNL     1      -0.237  -0.029   0.015  0.00  0.00    -0.047 A 
ATOM      3  C   UNL     1      -0.233  -0.708  -1.195  0.00  0.00    +0.007 A 
ATOM      4  C   UNL     1       0.027  -2.050  -1.231  0.00  0.00    -0.036 A 
ATOM      5  C   UNL     1       0.288  -2.735  -0.045  0.00  0.00    +0.067 A 
ATOM      6  C   UNL     1       0.282  -2.060   1.186  0.00  0.00    +0.140 A 
ATOM      7  C   UNL     1       0.022  -0.690   1.195  0.00  0.00    +0.050 A 
ATOM      8  O   UNL     1       0.518  -2.692   2.358  0.00  0.00    -0.450 OA
ATOM      9  C   UNL     1       1.000  -3.951   2.352  0.00  0.00    +0.199 A 
ATOM     10  C   UNL     1       1.049  -4.715   1.220  0.00  0.00    +0.072 A 
ATOM     11  C   UNL     1       0.580  -4.191  -0.067  0.00  0.00    +0.199 A 
ATOM     12  O   UNL     1       0.443  -4.884  -1.060  0.00  0.00    -0.287 OA
ATOM     13  C   UNL     1       1.629  -6.040   1.591  0.00  0.00    +0.152 C 
ATOM     14  N   UNL     1       1.913  -5.965   3.033  0.00  0.00    -0.232 N 
ATOM     15  C   UNL     1       1.543  -4.742   3.468  0.00  0.00    +0.289 C 
ATOM     16  O   UNL     1       1.644  -4.352   4.614  0.00  0.00    -0.266 OA
ATOM     17  C   UNL     1       2.462  -6.971   3.808  0.00  0.00    +0.169 A 
ATOM     18  N   UNL     1       2.846  -8.173   3.445  0.00  0.00    -0.224 NA
ATOM     19  C   UNL     1       3.371  -9.062   4.316  0.00  0.00    +0.080 A 
ATOM     20  C   UNL     1       3.819 -10.378   4.057  0.00  0.00    +0.030 A 
ATOM     21  C   UNL     1       4.330 -11.155   5.063  0.00  0.00    +0.022 A 
ATOM     22  C   UNL     1       4.425 -10.683   6.366  0.00  0.00    +0.042 A 
ATOM     23  C   UNL     1       3.996  -9.400   6.655  0.00  0.00    +0.037 A 
ATOM     24  C   UNL     1       3.483  -8.615   5.652  0.00  0.00    +0.042 A 
ATOM     25  S   UNL     1       2.838  -6.963   5.555  0.00  0.00    -0.052 S 
ATOM     26 CL   UNL     1       5.077 -11.693   7.619  0.00  0.00    -0.084 Cl
ATOM     27  C   UNL     1       0.030  -2.784  -2.547  0.00  0.00    +0.044 C 
ENDROOT
BRANCH  13  28
ATOM     28  C   UNL     1       2.901  -6.286   0.821  0.00  0.00    -0.018 A 
ATOM     29  C   UNL     1       4.083  -5.705   1.240  0.00  0.00    +0.009 A 
ATOM     30  C   UNL     1       5.253  -5.927   0.537  0.00  0.00    +0.049 A 
ATOM     31  C   UNL     1       5.242  -6.733  -0.590  0.00  0.00    +0.158 A 
ATOM     32  C   UNL     1       4.051  -7.317  -1.012  0.00  0.00    +0.162 A 
ATOM     33  C   UNL     1       2.883  -7.095  -0.300  0.00  0.00    +0.055 A 
BRANCH  32  34
ATOM     34  O   UNL     1       4.035  -8.109  -2.118  0.00  0.00    -0.491 OA
ATOM     35  C   UNL     1       2.777  -8.675  -2.492  0.00  0.00    +0.277 C 
ENDBRANCH  32  34
BRANCH  31  36
ATOM     36  O   UNL     1       6.391  -6.952  -1.283  0.00  0.00    -0.503 OA
ATOM     37  H   UNL     1       6.892  -7.721  -0.980  0.00  0.00    +0.292 HD
ENDBRANCH  31  36
ENDBRANCH  13  28
TORSDOF 3
