REMARK  Name = ZINC20615228
REMARK  13 active torsions:
REMARK  status: ('A' for Active; 'I' for Inactive)
REMARK    1  A    between atoms: C_1  and  C_2
REMARK    2  A    between atoms: C_2  and  O_3
REMARK    3  A    between atoms: O_3  and  C_4
REMARK    4  A    between atoms: N_12  and  N_13
REMARK    5  A    between atoms: C_14  and  C_16
REMARK    6  A    between atoms: C_21  and  C_23
REMARK    7  A    between atoms: N_25  and  C_26
REMARK    8  A    between atoms: C_26  and  C_27
REMARK    9  A    between atoms: C_27  and  C_28
REMARK   10  A    between atoms: C_31  and  O_36
REMARK   11  A    between atoms: C_32  and  O_34
REMARK   12  A    between atoms: O_34  and  C_35
REMARK   13  A    between atoms: O_36  and  C_37
REMARK                            x       y       z     vdW  Elec       q    Type
REMARK                         _______ _______ _______ _____ _____    ______ ____
ROOT
ATOM      1  C   UNL     1       1.412  10.951  -7.474  0.00  0.00    +0.163 A 
ATOM      2  C   UNL     1       0.646  11.630  -8.408  0.00  0.00    +0.049 A 
ATOM      3  C   UNL     1      -0.728  11.455  -8.453  0.00  0.00    +0.004 A 
ATOM      4  C   UNL     1      -1.353  10.605  -7.567  0.00  0.00    +0.012 A 
ATOM      5  C   UNL     1      -0.594   9.914  -6.616  0.00  0.00    +0.022 A 
ATOM      6  C   UNL     1       0.800  10.088  -6.573  0.00  0.00    +0.179 A 
ATOM      7  O   UNL     1       1.536   9.413  -5.653  0.00  0.00    -0.434 OA
ATOM      8  C   UNL     1       0.905   9.063  -4.497  0.00  0.00    +0.224 A 
ATOM      9  N   UNL     1       1.511   9.155  -3.344  0.00  0.00    -0.273 N 
ATOM     10  C   UNL     1      -0.490   8.575  -4.589  0.00  0.00    +0.098 A 
ATOM     11  C   UNL     1      -1.236   9.002  -5.662  0.00  0.00    +0.030 A 
ATOM     12  H   UNL     1       0.985   8.869  -2.422  0.00  0.00    +0.188 HD
ENDROOT
BRANCH   9  13
ATOM     13  N   UNL     1       2.831   9.620  -3.283  0.00  0.00    -0.221 N 
ATOM     14  C   UNL     1       3.457   9.716  -2.093  0.00  0.00    +0.297 C 
ATOM     15  O   UNL     1       2.875   9.399  -1.071  0.00  0.00    -0.265 OA
ATOM     16  H   UNL     1       3.357   9.907  -4.205  0.00  0.00    +0.176 HD
BRANCH  14  17
ATOM     17  C   UNL     1       4.839  10.203  -2.028  0.00  0.00    +0.191 A 
ATOM     18  C   UNL     1       5.584  10.353  -0.894  0.00  0.00    +0.054 A 
ATOM     19  C   UNL     1       6.839  10.838  -1.297  0.00  0.00    +0.042 A 
ATOM     20  C   UNL     1       6.801  10.969  -2.641  0.00  0.00    +0.196 A 
ATOM     21  O   UNL     1       5.595  10.585  -3.078  0.00  0.00    -0.458 OA
ENDBRANCH  14  17
ENDBRANCH   9  13
BRANCH  10  22
ATOM     22  C   UNL     1      -1.052   7.664  -3.577  0.00  0.00    +0.249 C 
ATOM     23  O   UNL     1      -2.201   7.279  -3.678  0.00  0.00    -0.270 OA
ATOM     24  N   UNL     1      -0.293   7.258  -2.540  0.00  0.00    -0.311 N 
ATOM     25  H   UNL     1       0.746   7.607  -2.449  0.00  0.00    +0.149 HD
BRANCH  24  26
ATOM     26  C   UNL     1      -0.853   6.353  -1.534  0.00  0.00    +0.109 C 
BRANCH  26  27
ATOM     27  C   UNL     1       0.208   6.050  -0.473  0.00  0.00    +0.054 C 
BRANCH  27  28
ATOM     28  C   UNL     1      -0.368   5.119   0.562  0.00  0.00    -0.042 A 
ATOM     29  C   UNL     1      -1.003   5.634   1.677  0.00  0.00    +0.007 A 
ATOM     30  C   UNL     1      -1.532   4.784   2.629  0.00  0.00    +0.049 A 
ATOM     31  C   UNL     1      -1.432   3.411   2.465  0.00  0.00    +0.161 A 
ATOM     32  C   UNL     1      -0.787   2.893   1.346  0.00  0.00    +0.162 A 
ATOM     33  C   UNL     1      -0.259   3.751   0.395  0.00  0.00    +0.053 A 
BRANCH  32  34
ATOM     34  O   UNL     1      -0.682   1.547   1.184  0.00  0.00    -0.491 OA
ATOM     35  C   UNL     1      -0.013   1.086   0.008  0.00  0.00    +0.277 C 
ENDBRANCH  32  34
BRANCH  31  36
ATOM     36  O   UNL     1      -1.957   2.573   3.399  0.00  0.00    -0.491 OA
ATOM     37  C   UNL     1      -2.603   3.176   4.521  0.00  0.00    +0.277 C 
ENDBRANCH  31  36
ENDBRANCH  27  28
ENDBRANCH  26  27
ENDBRANCH  24  26
ENDBRANCH  10  22
BRANCH   1  38
ATOM     38  O   UNL     1       2.760  11.129  -7.439  0.00  0.00    -0.489 OA
BRANCH  38  40
ATOM     39  C   UNL     1       4.836  12.102  -8.202  0.00  0.00    +0.048 C 
ATOM     40  C   UNL     1       3.320  12.031  -8.395  0.00  0.00    +0.226 C 
ENDBRANCH  38  40
ENDBRANCH   1  38
TORSDOF 10
