REMARK  Name = ZINC35231717
REMARK  11 active torsions:
REMARK  status: ('A' for Active; 'I' for Inactive)
REMARK    1  A    between atoms: C_1  and  C_2
REMARK    2  A    between atoms: C_2  and  C_3
REMARK    3  A    between atoms: C_3  and  C_4
REMARK    4  A    between atoms: C_4  and  N_5
REMARK    5  A    between atoms: N_5  and  C_6
REMARK    6  A    between atoms: C_6  and  C_7
REMARK    7  A    between atoms: C_21  and  C_23
REMARK    8  A    between atoms: N_31  and  C_32
REMARK    9  A    between atoms: C_37  and  O_38
REMARK   10  A    between atoms: O_38  and  C_39
REMARK   11  A    between atoms: C_39  and  C_40
REMARK                            x       y       z     vdW  Elec       q    Type
REMARK                         _______ _______ _______ _____ _____    ______ ____
ROOT
ATOM      1  C   UNL     1      -3.432  -4.236  -1.571  0.00  0.00    +0.238 C 
ATOM      2  O   UNL     1      -2.668  -4.946  -0.951  0.00  0.00    -0.273 OA
ATOM      3  N   UNL     1      -4.085  -4.724  -2.644  0.00  0.00    -0.255 N 
ATOM      4  C   UNL     1      -3.961  -6.079  -2.982  0.00  0.00    +0.061 A 
ATOM      5  C   UNL     1      -2.804  -6.778  -2.677  0.00  0.00    +0.025 A 
ATOM      6  C   UNL     1      -2.699  -8.116  -3.006  0.00  0.00    +0.002 A 
ATOM      7  C   UNL     1      -3.744  -8.765  -3.639  0.00  0.00    +0.002 A 
ATOM      8  C   UNL     1      -4.902  -8.076  -3.953  0.00  0.00    +0.028 A 
ATOM      9  C   UNL     1      -5.011  -6.738  -3.631  0.00  0.00    +0.068 A 
ATOM     10  N   UNL     1      -6.154  -5.990  -3.951  0.00  0.00    -0.316 N 
ATOM     11  C   UNL     1      -7.379  -6.399  -4.358  0.00  0.00    +0.092 A 
ATOM     12  C   UNL     1      -8.151  -5.304  -4.537  0.00  0.00    +0.020 A 
ATOM     13  C   UNL     1      -7.364  -4.173  -4.227  0.00  0.00    +0.025 A 
ATOM     14  C   UNL     1      -6.152  -4.614  -3.876  0.00  0.00    +0.049 A 
ATOM     15  C   UNL     1      -4.933  -3.836  -3.455  0.00  0.00    +0.159 C 
ENDROOT
BRANCH  15  16
ATOM     16  C   UNL     1      -4.175  -3.383  -4.677  0.00  0.00    -0.021 A 
ATOM     17  C   UNL     1      -3.370  -4.275  -5.361  0.00  0.00    +0.006 A 
ATOM     18  C   UNL     1      -2.675  -3.860  -6.481  0.00  0.00    +0.000 A 
ATOM     19  C   UNL     1      -2.786  -2.553  -6.919  0.00  0.00    +0.000 A 
ATOM     20  C   UNL     1      -3.592  -1.661  -6.236  0.00  0.00    +0.000 A 
ATOM     21  C   UNL     1      -4.290  -2.078  -5.117  0.00  0.00    +0.006 A 
ENDBRANCH  15  16
BRANCH   1  22
ATOM     22  C   UNL     1      -3.650  -2.808  -1.141  0.00  0.00    +0.205 C 
BRANCH  22  23
ATOM     23  N   UNL     1      -2.926  -2.558   0.108  0.00  0.00    -0.277 N 
ATOM     24  C   UNL     1      -3.532  -2.770   1.292  0.00  0.00    +0.307 C 
ATOM     25  O   UNL     1      -4.680  -3.170   1.325  0.00  0.00    -0.252 OA
ATOM     26  N   UNL     1      -2.865  -2.540   2.441  0.00  0.00    -0.266 N 
ATOM     27  H   UNL     1      -1.980  -2.143   2.417  0.00  0.00    +0.156 HD
BRANCH  26  28
ATOM     28  C   UNL     1      -3.451  -2.873   3.670  0.00  0.00    +0.077 A 
ATOM     29  C   UNL     1      -4.422  -3.861   3.733  0.00  0.00    +0.027 A 
ATOM     30  C   UNL     1      -4.999  -4.188   4.946  0.00  0.00    +0.002 A 
ATOM     31  C   UNL     1      -4.609  -3.531   6.099  0.00  0.00    +0.004 A 
ATOM     32  C   UNL     1      -3.642  -2.545   6.044  0.00  0.00    +0.047 A 
ATOM     33  C   UNL     1      -3.055  -2.216   4.833  0.00  0.00    +0.142 A 
BRANCH  33  34
ATOM     34  O   UNL     1      -2.100  -1.250   4.779  0.00  0.00    -0.490 OA
BRANCH  34  35
ATOM     35  C   UNL     1      -1.744  -0.619   6.011  0.00  0.00    +0.226 C 
ATOM     36  C   UNL     1      -0.662   0.431   5.752  0.00  0.00    +0.048 C 
ENDBRANCH  34  35
ENDBRANCH  33  34
ENDBRANCH  26  28
BRANCH  23  37
ATOM     37  C   UNL     1      -1.542  -2.077   0.068  0.00  0.00    +0.110 C 
BRANCH  37  38
ATOM     38  C   UNL     1      -1.535  -0.547   0.056  0.00  0.00    +0.019 C 
BRANCH  38  40
ATOM     39  C   UNL     1      -0.083   1.486   0.003  0.00  0.00    +0.004 C 
ATOM     40  C   UNL     1      -0.090  -0.044   0.015  0.00  0.00    -0.002 C 
ENDBRANCH  38  40
ENDBRANCH  37  38
ENDBRANCH  23  37
ENDBRANCH  22  23
ENDBRANCH   1  22
TORSDOF 9
