REMARK  Name = ZINC09251355
REMARK  8 active torsions:
REMARK  status: ('A' for Active; 'I' for Inactive)
REMARK    1  A    between atoms: C_1  and  C_2
REMARK    2  A    between atoms: C_2  and  N_3
REMARK    3  A    between atoms: N_3  and  C_4
REMARK    4  A    between atoms: N_3  and  C_29
REMARK    5  A    between atoms: C_4  and  C_5
REMARK    6  A    between atoms: C_5  and  N_6
REMARK    7  A    between atoms: C_7  and  C_9
REMARK    8  A    between atoms: C_10  and  C_28
REMARK                            x       y       z     vdW  Elec       q    Type
REMARK                         _______ _______ _______ _____ _____    ______ ____
ROOT
ATOM      1  C   UNL     1      -1.387   1.952  -0.414  0.00  0.00    +0.193 A 
ATOM      2  C   UNL     1      -2.525   1.346   0.016  0.00  0.00    +0.008 A 
ATOM      3  C   UNL     1      -3.385   2.368   0.482  0.00  0.00    +0.038 A 
ATOM      4  C   UNL     1      -2.701   3.580   0.293  0.00  0.00    +0.137 A 
ATOM      5  O   UNL     1      -1.500   3.286  -0.248  0.00  0.00    -0.450 OA
ATOM      6  C   UNL     1      -3.312   4.777   0.658  0.00  0.00    +0.050 A 
ATOM      7  C   UNL     1      -4.575   4.785   1.204  0.00  0.00    +0.050 A 
ATOM      8  C   UNL     1      -5.274   3.596   1.405  0.00  0.00    +0.133 A 
ATOM      9  C   UNL     1      -4.682   2.381   1.040  0.00  0.00    +0.070 A 
ATOM     10  C   UNL     1      -5.428   1.132   1.242  0.00  0.00    +0.171 C 
ATOM     11  O   UNL     1      -5.063   0.084   0.750  0.00  0.00    -0.292 OA
ATOM     12  C   UNL     1      -6.679   1.219   2.098  0.00  0.00    +0.127 C 
ATOM     13  C   UNL     1      -7.392   2.527   1.725  0.00  0.00    +0.118 C 
ATOM     14  O   UNL     1      -6.512   3.627   1.952  0.00  0.00    -0.485 OA
ATOM     15  C   UNL     1      -7.790   2.481   0.249  0.00  0.00    +0.048 C 
ATOM     16  C   UNL     1      -8.513   3.776  -0.126  0.00  0.00    +0.004 C 
ATOM     17  C   UNL     1      -9.767   3.927   0.737  0.00  0.00    +0.000 C 
ATOM     18  C   UNL     1      -9.368   3.976   2.213  0.00  0.00    +0.004 C 
ATOM     19  C   UNL     1      -8.644   2.682   2.589  0.00  0.00    +0.048 C 
ATOM     20  C   UNL     1      -2.814  -0.133   0.002  0.00  0.00    +0.048 C 
ENDROOT
BRANCH   1  22
ATOM     21  N   UNL     1       0.855   1.972  -1.381  0.00  0.00    -0.307 N 
ATOM     22  C   UNL     1      -0.217   1.261  -0.977  0.00  0.00    +0.280 C 
ATOM     23  O   UNL     1      -0.218   0.049  -1.083  0.00  0.00    -0.267 OA
ATOM     24  H   UNL     1       0.856   2.938  -1.297  0.00  0.00    +0.149 HD
BRANCH  21  25
ATOM     25  C   UNL     1       2.018   1.284  -1.948  0.00  0.00    +0.123 C 
BRANCH  25  26
ATOM     26  C   UNL     1       3.086   2.313  -2.322  0.00  0.00    +0.124 C 
BRANCH  26  27
ATOM     27  N   UNL     1       4.249   1.626  -2.889  0.00  0.00    -0.329 N 
BRANCH  27  28
ATOM     28  C   UNL     1       4.322   1.396  -4.265  0.00  0.00    +0.030 A 
ATOM     29  C   UNL     1       3.291   1.813  -5.096  0.00  0.00    +0.023 A 
ATOM     30  C   UNL     1       3.369   1.588  -6.457  0.00  0.00    +0.002 A 
ATOM     31  C   UNL     1       4.467   0.939  -6.990  0.00  0.00    +0.000 A 
ATOM     32  C   UNL     1       5.493   0.518  -6.165  0.00  0.00    +0.002 A 
ATOM     33  C   UNL     1       5.425   0.744  -4.804  0.00  0.00    +0.023 A 
ENDBRANCH  27  28
BRANCH  27  35
ATOM     34  C   UNL     1       5.050  -0.243  -1.531  0.00  0.00    +0.024 C 
ATOM     35  C   UNL     1       5.335   1.180  -2.013  0.00  0.00    +0.102 C 
ENDBRANCH  27  35
ENDBRANCH  26  27
ENDBRANCH  25  26
ENDBRANCH  21  25
ENDBRANCH   1  22
TORSDOF 6
