REMARK  Name = ZINC37934240
REMARK  6 active torsions:
REMARK  status: ('A' for Active; 'I' for Inactive)
REMARK    1  A    between atoms: C_1  and  C_2
REMARK    2  A    between atoms: N_5  and  C_11
REMARK    3  A    between atoms: C_6  and  C_10
REMARK    4  A    between atoms: C_13  and  N_21
REMARK    5  A    between atoms: C_15  and  S_17
REMARK    6  A    between atoms: S_17  and  N_20
REMARK                            x       y       z     vdW  Elec       q    Type
REMARK                         _______ _______ _______ _____ _____    ______ ____
ROOT
ATOM      1  C   UNL     1       0.486  -2.853  -2.144  0.00  0.00    +0.034 A 
ATOM      2  C   UNL     1      -0.855  -2.955  -2.486  0.00  0.00    +0.046 A 
ATOM      3  C   UNL     1      -1.246  -3.819  -3.500  0.00  0.00    +0.028 A 
ATOM      4  C   UNL     1      -0.293  -4.578  -4.169  0.00  0.00    +0.051 A 
ATOM      5  C   UNL     1       1.041  -4.474  -3.826  0.00  0.00    +0.108 A 
ATOM      6  C   UNL     1       1.434  -3.611  -2.821  0.00  0.00    +0.051 A 
ENDROOT
BRANCH   1  10
ATOM      7  C   UNL     1       0.759   1.747  -0.517  0.00  0.00    +0.039 C 
ATOM      8  C   UNL     1       0.359   0.276  -0.382  0.00  0.00    +0.132 C 
ATOM      9  C   UNL     1       1.142  -0.562  -1.399  0.00  0.00    +0.136 C 
ATOM     10  N   UNL     1       0.883  -1.985  -1.125  0.00  0.00    -0.322 N 
ATOM     11  C   UNL     1       1.054  -2.466   0.256  0.00  0.00    +0.096 C 
ATOM     12  C   UNL     1       0.276  -1.534   1.192  0.00  0.00    +0.182 C 
ATOM     13  O   UNL     1       0.661  -0.181   0.939  0.00  0.00    -0.373 OA
ATOM     14  C   UNL     1       0.510  -3.891   0.376  0.00  0.00    +0.030 C 
ENDBRANCH   1  10
BRANCH   5  15
ATOM     15  S   UNL     1       2.245  -5.438  -4.677  0.00  0.00    +0.056 S 
ATOM     16  O   UNL     1       3.358  -5.564  -3.801  0.00  0.00    -0.153 OA
ATOM     17  O   UNL     1       1.562  -6.566  -5.207  0.00  0.00    -0.153 OA
BRANCH  15  18
ATOM     18  N   UNL     1       2.762  -4.545  -5.972  0.00  0.00    -0.204 NA
ATOM     19  H   UNL     1       3.666  -4.653  -6.306  0.00  0.00    +0.144 HD
ATOM     20  H   UNL     1       2.160  -3.914  -6.397  0.00  0.00    +0.144 HD
ENDBRANCH  15  18
ENDBRANCH   5  15
BRANCH   3  21
ATOM     21  N   UNL     1      -2.594  -3.925  -3.847  0.00  0.00    -0.358 N 
ATOM     22  H   UNL     1      -3.259  -3.395  -3.379  0.00  0.00    +0.142 HD
ATOM     23  H   UNL     1      -2.867  -4.529  -4.555  0.00  0.00    +0.142 HD
ENDBRANCH   3  21
TORSDOF 4
