REMARK  Name = ZINC41550414
REMARK  6 active torsions:
REMARK  status: ('A' for Active; 'I' for Inactive)
REMARK    1  A    between atoms: C_1  and  C_2
REMARK    2  A    between atoms: C_2  and  C_3
REMARK    3  A    between atoms: C_3  and  C_5
REMARK    4  A    between atoms: C_3  and  N_6
REMARK    5  A    between atoms: C_7  and  C_9
REMARK    6  A    between atoms: C_9  and  C_21
REMARK                            x       y       z     vdW  Elec       q    Type
REMARK                         _______ _______ _______ _____ _____    ______ ____
ROOT
ATOM      1  C   UNL     1       4.271   0.470  -2.304  0.00  0.00    +0.257 C 
ATOM      2  C   UNL     1       4.646   1.132  -3.605  0.00  0.00    +0.270 C 
ATOM      3  O   UNL     1       5.128   0.478  -4.505  0.00  0.00    -0.271 OA
ATOM      4  N   UNL     1       4.443   2.457  -3.765  0.00  0.00    -0.279 N 
ATOM      5  C   UNL     1       4.004   3.218  -2.673  0.00  0.00    +0.077 A 
ATOM      6  C   UNL     1       3.569   4.521  -2.852  0.00  0.00    +0.047 A 
ATOM      7  C   UNL     1       3.126   5.255  -1.766  0.00  0.00    +0.043 A 
ATOM      8  C   UNL     1       3.116   4.690  -0.502  0.00  0.00    +0.024 A 
ATOM      9  C   UNL     1       3.554   3.391  -0.317  0.00  0.00    +0.049 A 
ATOM     10  C   UNL     1       4.003   2.653  -1.399  0.00  0.00    +0.144 A 
ATOM     11  O   UNL     1       4.465   1.386  -1.224  0.00  0.00    -0.466 OA
ATOM     12 CL   UNL     1       2.583   6.889  -1.987  0.00  0.00    -0.083 Cl
ATOM     13  C   UNL     1       5.151  -0.764  -2.090  0.00  0.00    +0.076 C 
ATOM     14  H   UNL     1       4.599   2.877  -4.625  0.00  0.00    +0.155 HD
ENDROOT
BRANCH   1  16
ATOM     15  N   UNL     1       2.125  -0.091  -1.209  0.00  0.00    -0.309 N 
ATOM     16  C   UNL     1       2.824   0.051  -2.353  0.00  0.00    +0.266 C 
ATOM     17  O   UNL     1       2.289  -0.157  -3.421  0.00  0.00    -0.271 OA
ATOM     18  H   UNL     1       2.553   0.075  -0.355  0.00  0.00    +0.149 HD
BRANCH  15  19
ATOM     19  C   UNL     1       0.718  -0.497  -1.257  0.00  0.00    +0.070 C 
ATOM     20  C   UNL     1       0.630  -2.023  -1.329  0.00  0.00    +0.028 C 
BRANCH  19  22
ATOM     21  C   UNL     1      -0.019   1.526   0.010  0.00  0.00    +0.005 C 
ATOM     22  C   UNL     1       0.002  -0.004   0.002  0.00  0.00    +0.018 C 
ENDBRANCH  19  22
ENDBRANCH  15  19
ENDBRANCH   1  16
TORSDOF 3
