REMARK  Name = ZINC34974175
REMARK  11 active torsions:
REMARK  status: ('A' for Active; 'I' for Inactive)
REMARK    1  A    between atoms: C_1  and  C_2
REMARK    2  A    between atoms: C_6  and  N_8
REMARK    3  A    between atoms: N_11  and  C_12
REMARK    4  A    between atoms: N_11  and  C_25
REMARK    5  A    between atoms: C_12  and  C_13
REMARK    6  A    between atoms: C_13  and  C_14
REMARK    7  A    between atoms: C_14  and  C_15
REMARK    8  A    between atoms: C_15  and  C_16
REMARK    9  A    between atoms: C_16  and  C_17
REMARK   10  A    between atoms: C_17  and  N_18
REMARK   11  A    between atoms: C_25  and  C_26
REMARK                            x       y       z     vdW  Elec       q    Type
REMARK                         _______ _______ _______ _____ _____    ______ ____
ROOT
ATOM      1  N   UNL     1       0.051  -2.797   2.393  0.00  0.00    -0.269 N 
ATOM      2  C   UNL     1      -0.032  -4.143   2.386  0.00  0.00    +0.307 C 
ATOM      3  O   UNL     1      -0.029  -4.746   1.330  0.00  0.00    -0.252 OA
ATOM      4  N   UNL     1      -0.119  -4.819   3.548  0.00  0.00    -0.281 N 
ATOM      5  H   UNL     1       0.127  -2.321   3.234  0.00  0.00    +0.156 HD
ENDROOT
BRANCH   1  11
ATOM      6  C   UNL     1      -1.548  -2.371  -2.237  0.00  0.00    +0.044 C 
ATOM      7  C   UNL     1      -0.738  -1.859  -1.074  0.00  0.00    -0.049 A 
ATOM      8  C   UNL     1      -0.014  -0.687  -1.199  0.00  0.00    +0.003 A 
ATOM      9  C   UNL     1       0.731  -0.214  -0.134  0.00  0.00    +0.002 A 
ATOM     10  C   UNL     1       0.754  -0.911   1.058  0.00  0.00    +0.023 A 
ATOM     11  C   UNL     1       0.029  -2.088   1.186  0.00  0.00    +0.035 A 
ATOM     12  C   UNL     1      -0.722  -2.558   0.117  0.00  0.00    +0.026 A 
ENDBRANCH   1  11
BRANCH   4  13
ATOM     13  C   UNL     1      -0.210  -6.281   3.541  0.00  0.00    +0.110 C 
BRANCH  13  14
ATOM     14  C   UNL     1       1.197  -6.879   3.593  0.00  0.00    +0.019 C 
BRANCH  14  15
ATOM     15  C   UNL     1       1.102  -8.406   3.585  0.00  0.00    +0.002 C 
BRANCH  15  16
ATOM     16  C   UNL     1       2.509  -9.005   3.638  0.00  0.00    +0.002 C 
BRANCH  16  17
ATOM     17  C   UNL     1       2.415 -10.532   3.630  0.00  0.00    +0.019 C 
BRANCH  17  18
ATOM     18  C   UNL     1       3.822 -11.131   3.682  0.00  0.00    +0.103 C 
BRANCH  18  19
ATOM     19  N   UNL     1       3.731 -12.593   3.675  0.00  0.00    -0.331 N 
ATOM     20  C   UNL     1       4.888 -13.361   3.717  0.00  0.00    +0.096 A 
ATOM     21  C   UNL     1       6.130 -12.735   3.773  0.00  0.00    +0.041 A 
ATOM     22  C   UNL     1       7.273 -13.512   3.815  0.00  0.00    +0.005 A 
ATOM     23  C   UNL     1       7.137 -14.894   3.800  0.00  0.00    +0.018 A 
ATOM     24  C   UNL     1       5.874 -15.448   3.744  0.00  0.00    +0.084 A 
ATOM     25  N   UNL     1       4.800 -14.682   3.710  0.00  0.00    -0.350 N 
ATOM     26  H   UNL     1       2.863 -13.025   3.640  0.00  0.00    +0.147 HD
ATOM     27  H   UNL     1       3.924 -15.097   3.675  0.00  0.00    +0.166 HD
ENDBRANCH  18  19
ENDBRANCH  17  18
ENDBRANCH  16  17
ENDBRANCH  15  16
ENDBRANCH  14  15
ENDBRANCH  13  14
ENDBRANCH   4  13
BRANCH   4  28
ATOM     28  C   UNL     1      -0.123  -4.091   4.820  0.00  0.00    +0.147 C 
BRANCH  28  29
ATOM     29  C   UNL     1      -1.541  -3.753   5.202  0.00  0.00    +0.005 A 
ATOM     30  C   UNL     1      -2.039  -2.487   4.960  0.00  0.00    +0.008 A 
ATOM     31  C   UNL     1      -3.340  -2.177   5.310  0.00  0.00    +0.000 A 
ATOM     32  C   UNL     1      -4.144  -3.133   5.902  0.00  0.00    +0.003 A 
ATOM     33  C   UNL     1      -3.649  -4.400   6.143  0.00  0.00    +0.038 A 
ATOM     34  C   UNL     1      -2.348  -4.714   5.788  0.00  0.00    +0.128 A 
ATOM     35  F   UNL     1      -1.864  -5.954   6.019  0.00  0.00    -0.205 F 
ENDBRANCH  28  29
ENDBRANCH   4  28
TORSDOF 10
