REMARK  Name = ZINC36638160
REMARK  16 active torsions:
REMARK  status: ('A' for Active; 'I' for Inactive)
REMARK    1  A    between atoms: C_1  and  C_2
REMARK    2  A    between atoms: C_2  and  N_3
REMARK    3  A    between atoms: N_3  and  C_4
REMARK    4  A    between atoms: N_3  and  C_6
REMARK    5  A    between atoms: C_4  and  C_5
REMARK    6  A    between atoms: C_6  and  C_7
REMARK    7  A    between atoms: C_7  and  N_8
REMARK    8  A    between atoms: C_13  and  O_18
REMARK    9  A    between atoms: O_18  and  C_19
REMARK   10  A    between atoms: C_20  and  C_22
REMARK   11  A    between atoms: C_25  and  S_28
REMARK   12  A    between atoms: S_28  and  N_31
REMARK   13  A    between atoms: N_31  and  C_32
REMARK   14  A    between atoms: N_31  and  C_34
REMARK   15  A    between atoms: C_32  and  C_33
REMARK   16  A    between atoms: C_34  and  C_35
REMARK                            x       y       z     vdW  Elec       q    Type
REMARK                         _______ _______ _______ _____ _____    ______ ____
ROOT
ATOM      1  N   UNL     1      -1.485  -3.391  -1.721  0.00  0.00    -0.248 N 
ATOM      2  C   UNL     1      -1.725  -4.047  -0.526  0.00  0.00    +0.168 A 
ATOM      3  N   UNL     1      -1.680  -5.334  -0.269  0.00  0.00    -0.224 NA
ATOM      4  C   UNL     1      -1.940  -5.839   0.956  0.00  0.00    +0.084 A 
ATOM      5  C   UNL     1      -1.926  -7.194   1.361  0.00  0.00    +0.074 A 
ATOM      6  C   UNL     1      -2.218  -7.541   2.659  0.00  0.00    +0.122 A 
ATOM      7  C   UNL     1      -2.535  -6.579   3.613  0.00  0.00    +0.047 A 
ATOM      8  C   UNL     1      -2.556  -5.246   3.247  0.00  0.00    +0.021 A 
ATOM      9  C   UNL     1      -2.266  -4.892   1.953  0.00  0.00    +0.041 A 
ATOM     10  S   UNL     1      -2.168  -3.357   1.062  0.00  0.00    -0.052 S 
ATOM     11  C   UNL     1      -1.160  -4.096  -2.823  0.00  0.00    +0.252 C 
ATOM     12  O   UNL     1      -1.135  -5.310  -2.782  0.00  0.00    -0.270 OA
ENDROOT
BRANCH  11  13
ATOM     13  C   UNL     1      -0.834  -3.391  -4.081  0.00  0.00    +0.037 A 
ATOM     14  C   UNL     1       0.098  -2.352  -4.081  0.00  0.00    +0.015 A 
ATOM     15  C   UNL     1       0.397  -1.698  -5.259  0.00  0.00    +0.029 A 
ATOM     16  C   UNL     1      -0.224  -2.071  -6.438  0.00  0.00    +0.106 A 
ATOM     17  C   UNL     1      -1.149  -3.101  -6.444  0.00  0.00    +0.029 A 
ATOM     18  C   UNL     1      -1.453  -3.766  -5.275  0.00  0.00    +0.015 A 
BRANCH  16  19
ATOM     19  S   UNL     1       0.164  -1.232  -7.937  0.00  0.00    +0.061 S 
ATOM     20  O   UNL     1      -0.952  -1.404  -8.800  0.00  0.00    -0.153 OA
ATOM     21  O   UNL     1       0.651   0.052  -7.570  0.00  0.00    -0.153 OA
BRANCH  19  22
ATOM     22  N   UNL     1       1.431  -2.037  -8.636  0.00  0.00    -0.177 NA
BRANCH  22  23
ATOM     23  C   UNL     1       1.175  -3.135  -9.572  0.00  0.00    +0.106 C 
ATOM     24  C   UNL     1       1.200  -2.599 -11.005  0.00  0.00    +0.022 C 
ENDBRANCH  22  23
BRANCH  22  25
ATOM     25  C   UNL     1       2.808  -1.651  -8.318  0.00  0.00    +0.106 C 
ATOM     26  C   UNL     1       3.340  -2.540  -7.192  0.00  0.00    +0.022 C 
ENDBRANCH  22  25
ENDBRANCH  19  22
ENDBRANCH  16  19
ENDBRANCH  11  13
BRANCH   6  27
ATOM     27  O   UNL     1      -2.197  -8.853   3.018  0.00  0.00    -0.495 OA
ATOM     28  C   UNL     1      -2.508  -9.158   4.379  0.00  0.00    +0.277 C 
ENDBRANCH   6  27
BRANCH   1  29
ATOM     29  C   UNL     1      -1.585  -1.931  -1.788  0.00  0.00    +0.097 C 
BRANCH  29  30
ATOM     30  C   UNL     1      -0.339  -1.305  -1.159  0.00  0.00    -0.059 C 
BRANCH  30  31
ATOM     31  N   UNL     1      -0.366   0.150  -1.361  0.00  0.00    +0.380 N 
ATOM     32  H   UNL     1      -0.464   0.351  -2.345  0.00  0.00    -0.082 HD
BRANCH  31  34
ATOM     33  C   UNL     1      -1.615   2.216  -0.951  0.00  0.00    -0.017 C 
ATOM     34  C   UNL     1      -1.502   0.725  -0.628  0.00  0.00    -0.082 C 
ENDBRANCH  31  34
BRANCH  31  35
ATOM     35  C   UNL     1       0.885   0.737  -0.864  0.00  0.00    -0.082 C 
ATOM     36  C   UNL     1       2.054   0.246  -1.721  0.00  0.00    -0.017 C 
ENDBRANCH  31  35
ENDBRANCH  30  31
ENDBRANCH  29  30
ENDBRANCH   1  29
TORSDOF 11
