REMARK  Name = ZINC12779332
REMARK  9 active torsions:
REMARK  status: ('A' for Active; 'I' for Inactive)
REMARK    1  A    between atoms: C_1  and  C_2
REMARK    2  A    between atoms: C_5  and  C_8
REMARK    3  A    between atoms: C_9  and  C_19
REMARK    4  A    between atoms: N_11  and  C_13
REMARK    5  A    between atoms: C_22  and  C_32
REMARK    6  A    between atoms: C_25  and  C_27
REMARK    7  A    between atoms: C_27  and  C_28
REMARK    8  A    between atoms: C_28  and  C_29
REMARK    9  A    between atoms: C_29  and  C_30
REMARK                            x       y       z     vdW  Elec       q    Type
REMARK                         _______ _______ _______ _____ _____    ______ ____
ROOT
ATOM      1  C   UNL     1      -2.522   1.240   0.021  0.00  0.00    +0.140 C 
ATOM      2  C   UNL     1      -3.487   2.442   0.033  0.00  0.00    +0.087 C 
ATOM      3  C   UNL     1      -2.571   3.645   0.035  0.00  0.00    +0.069 C 
ATOM      4  N   UNL     1      -1.345   3.252   0.032  0.00  0.00    -0.181 NA
ATOM      5  N   UNL     1      -1.191   1.867   0.018  0.00  0.00    -0.185 N 
ATOM      6  C   UNL     1      -0.014   1.209   0.009  0.00  0.00    +0.235 C 
ATOM      7  O   UNL     1       0.002  -0.004   0.002  0.00  0.00    -0.274 OA
ENDROOT
BRANCH   3   8
ATOM      8  C   UNL     1      -3.014   5.052   0.047  0.00  0.00    -0.002 A 
ATOM      9  C   UNL     1      -4.377   5.359   0.050  0.00  0.00    +0.010 A 
ATOM     10  C   UNL     1      -4.783   6.676   0.065  0.00  0.00    +0.001 A 
ATOM     11  C   UNL     1      -3.845   7.693   0.067  0.00  0.00    +0.000 A 
ATOM     12  C   UNL     1      -2.493   7.397   0.058  0.00  0.00    +0.001 A 
ATOM     13  C   UNL     1      -2.072   6.083   0.048  0.00  0.00    +0.010 A 
ENDBRANCH   3   8
BRANCH   1  15
ATOM     14  C   UNL     1      -3.607  -0.679   1.398  0.00  0.00    +0.098 A 
ATOM     15  C   UNL     1      -2.709   0.397   1.256  0.00  0.00    +0.021 A 
ATOM     16  C   UNL     1      -2.049   0.544   2.425  0.00  0.00    +0.120 A 
ATOM     17  N   UNL     1      -2.504  -0.407   3.283  0.00  0.00    -0.239 N 
ATOM     18  N   UNL     1      -3.476  -1.163   2.615  0.00  0.00    -0.166 NA
BRANCH  14  23
ATOM     19  C   UNL     1      -7.213  -2.630  -2.647  0.00  0.00    +0.044 C 
ATOM     20  C   UNL     1      -6.269  -2.119  -1.589  0.00  0.00    -0.050 A 
ATOM     21  C   UNL     1      -5.680  -3.006  -0.706  0.00  0.00    +0.004 A 
ATOM     22  C   UNL     1      -4.816  -2.543   0.266  0.00  0.00    +0.010 A 
ATOM     23  C   UNL     1      -4.536  -1.181   0.355  0.00  0.00    +0.002 A 
ATOM     24  C   UNL     1      -5.136  -0.292  -0.534  0.00  0.00    +0.010 A 
ATOM     25  C   UNL     1      -5.995  -0.766  -1.505  0.00  0.00    +0.004 A 
ENDBRANCH  14  23
BRANCH  17  26
ATOM     26  C   UNL     1      -2.075  -0.599   4.603  0.00  0.00    +0.065 A 
ATOM     27  C   UNL     1      -1.094   0.223   5.142  0.00  0.00    +0.028 A 
ATOM     28  C   UNL     1      -0.677   0.035   6.445  0.00  0.00    +0.002 A 
ATOM     29  C   UNL     1      -1.228  -0.977   7.210  0.00  0.00    +0.000 A 
ATOM     30  C   UNL     1      -2.202  -1.800   6.674  0.00  0.00    +0.002 A 
ATOM     31  C   UNL     1      -2.627  -1.614   5.373  0.00  0.00    +0.028 A 
ENDBRANCH  17  26
ENDBRANCH   1  15
BRANCH   6  32
ATOM     32  C   UNL     1       1.280   1.980   0.001  0.00  0.00    +0.098 C 
BRANCH  32  33
ATOM     33  C   UNL     1       2.457   1.002  -0.016  0.00  0.00    +0.020 C 
BRANCH  33  34
ATOM     34  C   UNL     1       3.771   1.785  -0.024  0.00  0.00    +0.125 C 
BRANCH  34  35
ATOM     35  C   UNL     1       4.930   0.821  -0.041  0.00  0.00    +0.356 C 
ATOM     36  O   UNL     1       4.725  -0.370  -0.045  0.00  0.00    -0.246 OA
ATOM     37  O   UNL     1       6.189   1.286  -0.050  0.00  0.00    -0.246 OA
ENDBRANCH  34  35
ENDBRANCH  33  34
ENDBRANCH  32  33
ENDBRANCH   6  32
TORSDOF 8
