REMARK  Name = ZINC22067022
REMARK  12 active torsions:
REMARK  status: ('A' for Active; 'I' for Inactive)
REMARK    1  A    between atoms: C_1  and  C_2
REMARK    2  A    between atoms: C_5  and  C_8
REMARK    3  A    between atoms: C_8  and  C_10
REMARK    4  A    between atoms: C_13  and  C_16
REMARK    5  A    between atoms: N_14  and  C_15
REMARK    6  A    between atoms: C_16  and  C_17
REMARK    7  A    between atoms: C_17  and  O_19
REMARK    8  A    between atoms: O_19  and  C_20
REMARK    9  A    between atoms: C_22  and  O_36
REMARK   10  A    between atoms: C_24  and  O_35
REMARK   11  A    between atoms: C_26  and  O_34
REMARK   12  A    between atoms: C_28  and  C_31
REMARK                            x       y       z     vdW  Elec       q    Type
REMARK                         _______ _______ _______ _____ _____    ______ ____
ROOT
ATOM      1  C   UNL     1       1.263   2.020   0.128  0.00  0.00    +0.315 C 
ATOM      2  O   UNL     1       2.194   1.251   0.173  0.00  0.00    -0.250 OA
ENDROOT
BRANCH   1   3
ATOM      3  C   UNL     1      -0.146   1.494   0.040  0.00  0.00    +0.174 C 
BRANCH   3   7
ATOM      4  C   UNL     1      -0.102  -2.111  -0.699  0.00  0.00    +0.090 A 
ATOM      5  C   UNL     1      -0.061  -2.139   0.682  0.00  0.00    +0.031 A 
ATOM      6  C   UNL     1      -0.067  -0.812   1.119  0.00  0.00    +0.024 A 
ATOM      7  C   UNL     1      -0.119  -0.013   0.024  0.00  0.00    +0.030 A 
ATOM      8  N   UNL     1      -0.137  -0.790  -1.086  0.00  0.00    -0.344 N 
ATOM      9  C   UNL     1      -0.186  -0.305  -2.468  0.00  0.00    +0.149 C 
BRANCH   4  10
ATOM     10  C   UNL     1      -0.107  -3.275  -1.589  0.00  0.00    +0.209 C 
ATOM     11  O   UNL     1      -0.263  -3.124  -2.787  0.00  0.00    -0.285 OA
BRANCH  10  16
ATOM     12  C   UNL     1       0.614  -8.557   0.579  0.00  0.00    +0.044 C 
ATOM     13  C   UNL     1       0.425  -7.174   0.011  0.00  0.00    -0.050 A 
ATOM     14  C   UNL     1      -0.298  -7.001  -1.156  0.00  0.00    +0.004 A 
ATOM     15  C   UNL     1      -0.474  -5.738  -1.681  0.00  0.00    +0.012 A 
ATOM     16  C   UNL     1       0.079  -4.632  -1.032  0.00  0.00    +0.024 A 
ATOM     17  C   UNL     1       0.812  -4.814   0.142  0.00  0.00    +0.012 A 
ATOM     18  C   UNL     1       0.976  -6.082   0.659  0.00  0.00    +0.004 A 
ENDBRANCH  10  16
ENDBRANCH   4  10
ENDBRANCH   3   7
ENDBRANCH   1   3
BRANCH   1  19
ATOM     19  O   UNL     1       1.484   3.344   0.156  0.00  0.00    -0.432 OA
BRANCH  19  20
ATOM     20  C   UNL     1       2.867   3.780   0.241  0.00  0.00    +0.343 C 
ATOM     21  C   UNL     1       2.912   5.286   0.510  0.00  0.00    +0.214 C 
ATOM     22  C   UNL     1       2.263   6.026  -0.663  0.00  0.00    +0.180 C 
ATOM     23  C   UNL     1       2.989   5.645  -1.957  0.00  0.00    +0.186 C 
ATOM     24  C   UNL     1       2.941   4.125  -2.131  0.00  0.00    +0.266 C 
ATOM     25  O   UNL     1       3.532   3.497  -0.991  0.00  0.00    -0.322 OA
BRANCH  24  26
ATOM     26  C   UNL     1       3.704   3.736  -3.371  0.00  0.00    +0.387 C 
ATOM     27  O   UNL     1       4.709   3.072  -3.279  0.00  0.00    -0.243 OA
ATOM     28  O   UNL     1       3.267   4.128  -4.578  0.00  0.00    -0.243 OA
ENDBRANCH  24  26
BRANCH  23  29
ATOM     29  O   UNL     1       4.350   6.075  -1.885  0.00  0.00    -0.386 OA
ATOM     30  H   UNL     1       5.031   5.887  -2.728  0.00  0.00    +0.210 HD
ENDBRANCH  23  29
BRANCH  22  31
ATOM     31  O   UNL     1       2.365   7.436  -0.455  0.00  0.00    -0.386 OA
ATOM     32  H   UNL     1       1.952   8.133  -1.199  0.00  0.00    +0.210 HD
ENDBRANCH  22  31
BRANCH  21  33
ATOM     33  O   UNL     1       2.196   5.578   1.713  0.00  0.00    -0.383 OA
ATOM     34  H   UNL     1       2.120   6.616   2.069  0.00  0.00    +0.210 HD
ENDBRANCH  21  33
ENDBRANCH  19  20
ENDBRANCH   1  19
TORSDOF 10
