REMARK  Name = ZINC28627762
REMARK  7 active torsions:
REMARK  status: ('A' for Active; 'I' for Inactive)
REMARK    1  A    between atoms: C_1  and  C_2
REMARK    2  A    between atoms: C_5  and  C_7
REMARK    3  A    between atoms: C_9  and  C_29
REMARK    4  A    between atoms: C_10  and  C_28
REMARK    5  A    between atoms: C_17  and  C_18
REMARK    6  A    between atoms: C_21  and  N_24
REMARK    7  A    between atoms: N_31  and  C_32
REMARK                            x       y       z     vdW  Elec       q    Type
REMARK                         _______ _______ _______ _____ _____    ______ ____
ROOT
ATOM      1  C   UNL     1       5.084   5.242  -1.119  0.00  0.00    +0.195 C 
ATOM      2  C   UNL     1       6.497   5.444  -0.623  0.00  0.00    +0.066 C 
ATOM      3  C   UNL     1       7.110   4.404   0.014  0.00  0.00    +0.052 C 
ATOM      4  N   UNL     1       6.475   3.251   0.189  0.00  0.00    -0.228 NA
ATOM      5  C   UNL     1       5.254   3.002  -0.211  0.00  0.00    +0.178 A 
ATOM      6  N   UNL     1       4.461   3.912  -0.873  0.00  0.00    -0.272 N 
ATOM      7  C   UNL     1       3.225   3.543  -1.235  0.00  0.00    +0.268 A 
ATOM      8  O   UNL     1       2.487   4.313  -1.821  0.00  0.00    -0.266 OA
ATOM      9  C   UNL     1       2.787   2.178  -0.902  0.00  0.00    +0.081 A 
ATOM     10  C   UNL     1       1.602   1.567  -1.153  0.00  0.00    +0.028 C 
ATOM     11  S   UNL     1       4.236   1.547  -0.070  0.00  0.00    -0.046 S 
ATOM     12  C   UNL     1       8.519   4.566   0.524  0.00  0.00    +0.066 C 
ENDROOT
BRANCH   1  17
ATOM     13  C   UNL     1       5.614   4.509  -6.081  0.00  0.00    +0.086 C 
ATOM     14  C   UNL     1       5.306   5.171  -4.763  0.00  0.00    +0.102 A 
ATOM     15  C   UNL     1       4.848   6.426  -4.601  0.00  0.00    +0.045 A 
ATOM     16  C   UNL     1       4.700   6.632  -3.210  0.00  0.00    +0.047 A 
ATOM     17  C   UNL     1       5.075   5.490  -2.605  0.00  0.00    +0.133 A 
ATOM     18  O   UNL     1       5.447   4.612  -3.550  0.00  0.00    -0.462 OA
ENDBRANCH   1  17
BRANCH  10  19
ATOM     19  C   UNL     1       0.470   2.346  -1.675  0.00  0.00    -0.024 A 
ATOM     20  C   UNL     1       0.187   3.613  -1.152  0.00  0.00    +0.010 A 
ATOM     21  C   UNL     1      -0.880   4.334  -1.643  0.00  0.00    +0.033 A 
ATOM     22  C   UNL     1      -1.664   3.813  -2.658  0.00  0.00    +0.126 A 
ATOM     23  C   UNL     1      -1.391   2.561  -3.181  0.00  0.00    +0.033 A 
ATOM     24  C   UNL     1      -0.330   1.824  -2.697  0.00  0.00    +0.010 A 
BRANCH  22  25
ATOM     25  N   UNL     1      -2.804   4.598  -3.184  0.00  0.00    +0.056 N 
ATOM     26  O   UNL     1      -3.498   4.141  -4.074  0.00  0.00    -0.126 OA
ATOM     27  O   UNL     1      -3.048   5.700  -2.727  0.00  0.00    -0.126 OA
ENDBRANCH  22  25
ENDBRANCH  10  19
BRANCH   2  28
ATOM     28  C   UNL     1       7.163   6.670  -0.813  0.00  0.00    +0.248 C 
ATOM     29  O   UNL     1       6.945   7.604  -0.062  0.00  0.00    -0.270 OA
ATOM     30  N   UNL     1       8.041   6.809  -1.825  0.00  0.00    -0.282 N 
ATOM     31  H   UNL     1       8.165   6.002  -2.562  0.00  0.00    +0.155 HD
BRANCH  30  32
ATOM     32  C   UNL     1       8.797   7.981  -1.939  0.00  0.00    +0.034 A 
ATOM     33  C   UNL     1       9.221   8.649  -0.798  0.00  0.00    +0.023 A 
ATOM     34  C   UNL     1       9.972   9.802  -0.914  0.00  0.00    +0.002 A 
ATOM     35  C   UNL     1      10.291  10.298  -2.165  0.00  0.00    +0.000 A 
ATOM     36  C   UNL     1       9.865   9.639  -3.303  0.00  0.00    +0.002 A 
ATOM     37  C   UNL     1       9.119   8.482  -3.194  0.00  0.00    +0.023 A 
ENDBRANCH  30  32
ENDBRANCH   2  28
TORSDOF 5
