REMARK  Name = ZINC08623013
REMARK  10 active torsions:
REMARK  status: ('A' for Active; 'I' for Inactive)
REMARK    1  A    between atoms: C_1  and  C_2
REMARK    2  A    between atoms: C_2  and  C_3
REMARK    3  A    between atoms: C_3  and  C_4
REMARK    4  A    between atoms: C_3  and  C_6
REMARK    5  A    between atoms: C_4  and  C_5
REMARK    6  A    between atoms: C_8  and  C_18
REMARK    7  A    between atoms: C_10  and  C_12
REMARK    8  A    between atoms: C_27  and  C_29
REMARK    9  A    between atoms: C_29  and  N_30
REMARK   10  A    between atoms: C_31  and  C_33
REMARK                            x       y       z     vdW  Elec       q    Type
REMARK                         _______ _______ _______ _____ _____    ______ ____
ROOT
ATOM      1  C   UNL     1       1.950  -0.568   1.355  0.00  0.00    +0.024 C 
ATOM      2  C   UNL     1       1.638   0.910   1.103  0.00  0.00    -0.068 C 
ATOM      3  N   UNL     1       0.898   1.043  -0.160  0.00  0.00    +0.383 N 
ATOM      4  C   UNL     1      -0.387   0.334  -0.096  0.00  0.00    -0.078 C 
ATOM      5  C   UNL     1      -0.132  -1.161   0.122  0.00  0.00    -0.015 C 
ATOM      6  C   UNL     1       1.381  -1.399   0.198  0.00  0.00    -0.007 C 
ATOM      7  C   UNL     1       2.016  -0.934  -1.118  0.00  0.00    -0.010 C 
ATOM      8  C   UNL     1       1.705   0.572  -1.294  0.00  0.00    -0.051 C 
ATOM      9  H   UNL     1       0.685   2.110  -0.317  0.00  0.00    -0.081 HD
ENDROOT
BRANCH   1  12
ATOM     10  C   UNL     1       5.615  -0.020   2.075  0.00  0.00    +0.048 A 
ATOM     11  C   UNL     1       4.247   0.201   2.020  0.00  0.00    +0.047 A 
ATOM     12  C   UNL     1       3.442  -0.763   1.432  0.00  0.00    +0.047 A 
ATOM     13  N   UNL     1       4.000  -1.853   0.934  0.00  0.00    -0.232 NA
ATOM     14  C   UNL     1       5.312  -2.031   0.997  0.00  0.00    +0.160 A 
ATOM     15  N   UNL     1       6.109  -1.132   1.558  0.00  0.00    -0.232 NA
BRANCH  14  16
ATOM     16  C   UNL     1       5.903  -3.268   0.428  0.00  0.00    +0.022 A 
ATOM     17  C   UNL     1       5.096  -4.242  -0.165  0.00  0.00    +0.031 A 
ATOM     18  C   UNL     1       5.687  -5.375  -0.687  0.00  0.00    +0.111 A 
ATOM     19  N   UNL     1       6.993  -5.549  -0.621  0.00  0.00    -0.263 NA
ATOM     20  C   UNL     1       7.790  -4.656  -0.066  0.00  0.00    +0.111 A 
ATOM     21  C   UNL     1       7.282  -3.492   0.476  0.00  0.00    +0.031 A 
ENDBRANCH  14  16
BRANCH  10  22
ATOM     22  C   UNL     1       6.528   0.997   2.710  0.00  0.00    +0.037 C 
BRANCH  22  24
ATOM     23  C   UNL     1       7.889   3.050   2.294  0.00  0.00    +0.004 C 
ATOM     24  C   UNL     1       6.865   2.086   1.690  0.00  0.00    +0.006 C 
ENDBRANCH  22  24
BRANCH  22  25
ATOM     25  C   UNL     1       5.829   1.626   3.916  0.00  0.00    +0.006 C 
ATOM     26  C   UNL     1       5.592   0.556   4.984  0.00  0.00    +0.004 C 
ENDBRANCH  22  25
ENDBRANCH  10  22
ENDBRANCH   1  12
BRANCH   8  27
ATOM     27  C   UNL     1       3.011   1.365  -1.355  0.00  0.00    +0.089 C 
BRANCH  27  28
ATOM     28  N   UNL     1       2.711   2.798  -1.404  0.00  0.00    -0.317 N 
ATOM     29  C   UNL     1       3.708   3.691  -1.561  0.00  0.00    +0.216 C 
ATOM     30  O   UNL     1       4.842   3.306  -1.753  0.00  0.00    -0.276 OA
ATOM     31  H   UNL     1       1.671   3.145  -1.313  0.00  0.00    +0.149 HD
BRANCH  29  32
ATOM     32  C   UNL     1       3.414   5.168  -1.499  0.00  0.00    +0.075 C 
ATOM     33  C   UNL     1       2.412   5.535  -2.595  0.00  0.00    +0.013 C 
ATOM     34  C   UNL     1       2.114   7.035  -2.532  0.00  0.00    +0.001 C 
ATOM     35  C   UNL     1       3.409   7.822  -2.740  0.00  0.00    +0.000 C 
ATOM     36  C   UNL     1       4.411   7.454  -1.643  0.00  0.00    +0.001 C 
ATOM     37  C   UNL     1       4.709   5.955  -1.706  0.00  0.00    +0.013 C 
ENDBRANCH  29  32
ENDBRANCH  27  28
ENDBRANCH   8  27
TORSDOF 8
