REMARK  Name = ZINC13810925
REMARK  3 active torsions:
REMARK  status: ('A' for Active; 'I' for Inactive)
REMARK    1  A    between atoms: C_1  and  C_2
REMARK    2  A    between atoms: C_5  and  C_8
REMARK    3  A    between atoms: C_11  and  C_32
REMARK                            x       y       z     vdW  Elec       q    Type
REMARK                         _______ _______ _______ _____ _____    ______ ____
ROOT
ATOM      1  C   UNL     1       0.059  -4.275  -0.021  0.00  0.00    +0.143 C 
ATOM      2  C   UNL     1      -1.178  -4.809   0.711  0.00  0.00    +0.058 C 
ATOM      3  C   UNL     1      -1.029  -6.317   0.947  0.00  0.00    +0.106 C 
ATOM      4  N   UNL     1       0.141  -6.544   1.817  0.00  0.00    -0.307 N 
ATOM      5  C   UNL     1       1.280  -5.807   1.519  0.00  0.00    +0.216 A 
ATOM      6  N   UNL     1       1.260  -4.754   0.664  0.00  0.00    -0.224 N 
ATOM      7  N   UNL     1       2.565  -4.264   0.599  0.00  0.00    -0.131 NA
ATOM      8  C   UNL     1       3.292  -5.019   1.392  0.00  0.00    +0.251 A 
ATOM      9  N   UNL     1       2.503  -5.954   1.952  0.00  0.00    -0.179 NA
ATOM     10  N   UNL     1       4.667  -4.870   1.620  0.00  0.00    -0.176 N 
ATOM     11  C   UNL     1       5.408  -3.907   1.040  0.00  0.00    +0.233 C 
ATOM     12  O   UNL     1       4.990  -2.946   0.431  0.00  0.00    -0.274 OA
ATOM     13  C   UNL     1       6.885  -4.253   1.295  0.00  0.00    +0.092 C 
ATOM     14  C   UNL     1       7.281  -5.161   0.128  0.00  0.00    +0.040 C 
ATOM     15  C   UNL     1       8.256  -6.221   0.509  0.00  0.00    -0.030 C 
ATOM     16  C   UNL     1       8.499  -6.601   1.719  0.00  0.00    -0.030 C 
ATOM     17  C   UNL     1       7.856  -5.980   2.919  0.00  0.00    +0.040 C 
ATOM     18  C   UNL     1       6.723  -5.048   2.601  0.00  0.00    +0.092 C 
ATOM     19  C   UNL     1       5.368  -5.677   2.448  0.00  0.00    +0.233 C 
ATOM     20  O   UNL     1       4.982  -6.704   2.962  0.00  0.00    -0.274 OA
ATOM     21  H   UNL     1       0.116  -7.172   2.555  0.00  0.00    +0.149 HD
ENDROOT
BRANCH   1  26
ATOM     22  C   UNL     1      -0.018   1.503   0.010  0.00  0.00    +0.044 C 
ATOM     23  C   UNL     1       0.002  -0.004   0.002  0.00  0.00    -0.050 A 
ATOM     24  C   UNL     1       0.006  -0.689  -1.199  0.00  0.00    +0.004 A 
ATOM     25  C   UNL     1       0.025  -2.071  -1.206  0.00  0.00    +0.006 A 
ATOM     26  C   UNL     1       0.040  -2.768  -0.013  0.00  0.00    -0.023 A 
ATOM     27  C   UNL     1       0.037  -2.084   1.188  0.00  0.00    +0.006 A 
ATOM     28  C   UNL     1       0.023  -0.702   1.195  0.00  0.00    +0.004 A 
ENDBRANCH   1  26
BRANCH   3  29
ATOM     29  C   UNL     1      -2.271  -6.849   1.614  0.00  0.00    -0.027 A 
ATOM     30  C   UNL     1      -2.448  -6.685   2.975  0.00  0.00    +0.007 A 
ATOM     31  C   UNL     1      -3.587  -7.173   3.588  0.00  0.00    +0.020 A 
ATOM     32  C   UNL     1      -4.550  -7.826   2.839  0.00  0.00    +0.041 A 
ATOM     33  C   UNL     1      -4.371  -7.990   1.477  0.00  0.00    +0.020 A 
ATOM     34  C   UNL     1      -3.235  -7.497   0.864  0.00  0.00    +0.007 A 
ATOM     35 CL   UNL     1      -5.980  -8.440   3.608  0.00  0.00    -0.084 Cl
ENDBRANCH   3  29
TORSDOF 2
