REMARK  Name = ZINC35564583
REMARK  5 active torsions:
REMARK  status: ('A' for Active; 'I' for Inactive)
REMARK    1  A    between atoms: N_9  and  C_11
REMARK    2  A    between atoms: C_11  and  C_12
REMARK    3  A    between atoms: N_23  and  C_26
REMARK    4  A    between atoms: C_26  and  C_27
REMARK    5  A    between atoms: C_30  and  C_33
REMARK                            x       y       z     vdW  Elec       q    Type
REMARK                         _______ _______ _______ _____ _____    ______ ____
ROOT
ATOM      1  C   UNL     1       7.030  -2.409   3.310  0.00  0.00    +0.064 A 
ATOM      2  C   UNL     1       6.322  -3.052   2.337  0.00  0.00    +0.094 A 
ATOM      3  C   UNL     1       5.997  -2.356   1.160  0.00  0.00    +0.253 A 
ATOM      4  O   UNL     1       5.364  -2.900   0.270  0.00  0.00    -0.268 OA
ATOM      5  N   UNL     1       6.399  -1.073   1.033  0.00  0.00    -0.295 N 
ATOM      6  H   UNL     1       6.186  -0.573   0.229  0.00  0.00    +0.172 HD
ATOM      7  C   UNL     1       7.104  -0.484   2.036  0.00  0.00    +0.198 A 
ATOM      8  N   UNL     1       7.400  -1.142   3.139  0.00  0.00    -0.219 NA
ATOM      9  N   UNL     1       7.508   0.817   1.900  0.00  0.00    -0.305 N 
ATOM     10  C   UNL     1       8.374   1.450   2.908  0.00  0.00    +0.089 C 
ATOM     11  C   UNL     1       7.747   2.786   3.317  0.00  0.00    -0.059 C 
ATOM     12  N   UNL     1       7.513   3.603   2.120  0.00  0.00    +0.384 N 
ATOM     13  C   UNL     1       6.523   2.951   1.254  0.00  0.00    -0.059 C 
ATOM     14  C   UNL     1       7.094   1.621   0.740  0.00  0.00    +0.089 C 
ATOM     15  H   UNL     1       8.380   3.712   1.614  0.00  0.00    -0.081 HD
ENDROOT
BRANCH   1  16
ATOM     16  C   UNL     1       7.391  -3.133   4.581  0.00  0.00    +0.140 C 
BRANCH  16  25
ATOM     17  C   UNL     1      13.720  -2.333   5.364  0.00  0.00    +0.000 A 
ATOM     18  C   UNL     1      13.158  -1.121   5.006  0.00  0.00    +0.000 A 
ATOM     19  C   UNL     1      11.792  -1.019   4.840  0.00  0.00    +0.005 A 
ATOM     20  C   UNL     1      10.978  -2.126   5.030  0.00  0.00    -0.030 A 
ATOM     21  C   UNL     1      11.538  -3.334   5.384  0.00  0.00    -0.042 A 
ATOM     22  C   UNL     1      12.911  -3.435   5.553  0.00  0.00    +0.004 A 
ATOM     23  C   UNL     1      10.696  -4.567   5.590  0.00  0.00    +0.051 C 
ATOM     24  C   UNL     1       9.230  -4.173   5.769  0.00  0.00    +0.090 C 
ATOM     25  N   UNL     1       8.851  -3.271   4.670  0.00  0.00    -0.292 NA
ATOM     26  C   UNL     1       9.492  -1.964   4.843  0.00  0.00    +0.120 C 
ENDBRANCH  16  25
ENDBRANCH   1  16
BRANCH  12  27
ATOM     27  C   UNL     1       7.015   4.926   2.521  0.00  0.00    -0.043 C 
BRANCH  27  28
ATOM     28  C   UNL     1       6.891   5.806   1.304  0.00  0.00    -0.064 A 
ATOM     29  C   UNL     1       7.962   6.582   0.901  0.00  0.00    +0.002 A 
ATOM     30  C   UNL     1       7.849   7.390  -0.215  0.00  0.00    +0.012 A 
ATOM     31  C   UNL     1       6.665   7.422  -0.928  0.00  0.00    +0.055 A 
ATOM     32  C   UNL     1       5.595   6.645  -0.525  0.00  0.00    +0.012 A 
ATOM     33  C   UNL     1       5.709   5.834   0.588  0.00  0.00    +0.002 A 
BRANCH  31  34
ATOM     34  C   UNL     1       6.541   8.303  -2.144  0.00  0.00    +0.417 C 
ATOM     35  F   UNL     1       6.934   7.588  -3.280  0.00  0.00    -0.166 F 
ATOM     36  F   UNL     1       5.212   8.714  -2.288  0.00  0.00    -0.166 F 
ATOM     37  F   UNL     1       7.363   9.426  -1.992  0.00  0.00    -0.166 F 
ENDBRANCH  31  34
ENDBRANCH  27  28
ENDBRANCH  12  27
TORSDOF 5
