REMARK  Name = ZINC39226898
REMARK  3 active torsions:
REMARK  status: ('A' for Active; 'I' for Inactive)
REMARK    1  A    between atoms: N_18  and  C_21
REMARK    2  A    between atoms: C_21  and  C_22
REMARK    3  A    between atoms: N_24  and  C_25
REMARK                            x       y       z     vdW  Elec       q    Type
REMARK                         _______ _______ _______ _____ _____    ______ ____
ROOT
ATOM      1  C   UNL     1      -0.028   1.319   0.073  0.00  0.00    +0.001 A 
ATOM      2  C   UNL     1       1.153   2.055   0.061  0.00  0.00    +0.001 A 
ATOM      3  C   UNL     1       2.366   1.433   0.036  0.00  0.00    +0.009 A 
ATOM      4  C   UNL     1       2.427   0.036   0.025  0.00  0.00    -0.004 A 
ATOM      5  C   UNL     1       1.227  -0.717   0.040  0.00  0.00    -0.017 A 
ATOM      6  C   UNL     1      -0.005  -0.043   0.063  0.00  0.00    +0.008 A 
ATOM      7  C   UNL     1       1.293  -2.123   0.035  0.00  0.00    +0.012 A 
ATOM      8  C   UNL     1       2.486  -2.770   0.018  0.00  0.00    +0.047 A 
ATOM      9  C   UNL     1       3.701  -2.078  -0.001  0.00  0.00    +0.132 A 
ATOM     10  C   UNL     1       3.699  -0.679  -0.004  0.00  0.00    +0.067 A 
ATOM     11  C   UNL     1       4.973   0.043  -0.042  0.00  0.00    +0.171 C 
ATOM     12  O   UNL     1       5.024   1.236  -0.259  0.00  0.00    -0.292 OA
ATOM     13  C   UNL     1       6.228  -0.777   0.205  0.00  0.00    +0.127 C 
ATOM     14  C   UNL     1       6.037  -2.120  -0.512  0.00  0.00    +0.114 C 
ATOM     15  O   UNL     1       4.866  -2.764  -0.012  0.00  0.00    -0.485 OA
ATOM     16  C   UNL     1       5.891  -1.877  -2.015  0.00  0.00    +0.030 C 
ATOM     17  C   UNL     1       5.788  -3.223  -2.736  0.00  0.00    -0.074 C 
ATOM     18  N   UNL     1       6.999  -4.012  -2.480  0.00  0.00    +0.386 N 
ATOM     19  C   UNL     1       7.107  -4.311  -1.047  0.00  0.00    -0.074 C 
ATOM     20  C   UNL     1       7.260  -3.006  -0.261  0.00  0.00    +0.030 C 
ATOM     21  H   UNL     1       7.809  -3.488  -2.776  0.00  0.00    -0.081 HD
ENDROOT
BRANCH  18  22
ATOM     22  C   UNL     1       6.931  -5.269  -3.237  0.00  0.00    +0.019 C 
BRANCH  22  23
ATOM     23  C   UNL     1       8.224  -6.025  -3.073  0.00  0.00    +0.201 C 
ATOM     24  O   UNL     1       9.115  -5.562  -2.393  0.00  0.00    -0.278 OA
ATOM     25  N   UNL     1       8.391  -7.216  -3.682  0.00  0.00    -0.287 N 
ATOM     26  H   UNL     1       7.656  -7.617  -4.172  0.00  0.00    +0.155 HD
BRANCH  25  27
ATOM     27  C   UNL     1       9.624  -7.873  -3.609  0.00  0.00    +0.037 A 
ATOM     28  C   UNL     1      10.388  -7.777  -2.456  0.00  0.00    +0.023 A 
ATOM     29  C   UNL     1      11.605  -8.426  -2.386  0.00  0.00    +0.002 A 
ATOM     30  C   UNL     1      12.055  -9.161  -3.464  0.00  0.00    +0.004 A 
ATOM     31  C   UNL     1      11.294  -9.259  -4.623  0.00  0.00    -0.042 A 
ATOM     32  C   UNL     1      10.075  -8.624  -4.694  0.00  0.00    -0.023 A 
ATOM     33  C   UNL     1       9.188  -8.705  -5.909  0.00  0.00    +0.037 C 
ATOM     34  C   UNL     1       9.984  -9.177  -7.124  0.00  0.00    +0.005 C 
ATOM     35  C   UNL     1      10.740 -10.454  -6.741  0.00  0.00    +0.005 C 
ATOM     36  C   UNL     1      11.852 -10.072  -5.761  0.00  0.00    +0.035 C 
ENDBRANCH  25  27
ENDBRANCH  22  23
ENDBRANCH  18  22
TORSDOF 3
