REMARK  Name = ZINC25185668
REMARK  10 active torsions:
REMARK  status: ('A' for Active; 'I' for Inactive)
REMARK    1  A    between atoms: C_1  and  C_2
REMARK    2  A    between atoms: C_2  and  N_3
REMARK    3  A    between atoms: C_5  and  C_12
REMARK    4  A    between atoms: C_13  and  C_14
REMARK    5  A    between atoms: C_13  and  N_30
REMARK    6  A    between atoms: N_16  and  C_17
REMARK    7  A    between atoms: C_17  and  C_18
REMARK    8  A    between atoms: C_18  and  C_19
REMARK    9  A    between atoms: C_26  and  C_29
REMARK   10  A    between atoms: C_31  and  C_33
REMARK                            x       y       z     vdW  Elec       q    Type
REMARK                         _______ _______ _______ _____ _____    ______ ____
ROOT
ATOM      1  C   UNL     1      -3.034   4.952   0.078  0.00  0.00    +0.038 C 
ATOM      2  C   UNL     1      -4.344   5.249   0.273  0.00  0.00    +0.097 C 
ENDROOT
BRANCH   1   5
ATOM      3  N   UNL     1      -2.707   1.432  -0.823  0.00  0.00    -0.346 N 
ATOM      4  C   UNL     1      -3.441   2.562  -0.648  0.00  0.00    +0.094 A 
ATOM      5  C   UNL     1      -2.631   3.576  -0.224  0.00  0.00    +0.002 A 
ATOM      6  C   UNL     1      -1.268   3.018  -0.145  0.00  0.00    +0.007 A 
ATOM      7  C   UNL     1      -1.380   1.672  -0.530  0.00  0.00    +0.050 A 
ATOM      8  C   UNL     1      -0.242   0.871  -0.548  0.00  0.00    +0.026 A 
ATOM      9  C   UNL     1       0.980   1.405  -0.202  0.00  0.00    +0.002 A 
ATOM     10  C   UNL     1       1.089   2.736   0.173  0.00  0.00    +0.001 A 
ATOM     11  C   UNL     1      -0.027   3.544   0.202  0.00  0.00    +0.010 A 
BRANCH   3  13
ATOM     12  C   UNL     1      -3.466  -0.757  -0.042  0.00  0.00    +0.027 C 
ATOM     13  C   UNL     1      -3.247   0.143  -1.260  0.00  0.00    +0.118 C 
ENDBRANCH   3  13
ENDBRANCH   1   5
BRANCH   2  14
ATOM     14  C   UNL     1      -4.763   6.642   0.435  0.00  0.00    +0.258 C 
ATOM     15  O   UNL     1      -3.936   7.535   0.396  0.00  0.00    -0.269 OA
ATOM     16  N   UNL     1      -6.064   6.937   0.629  0.00  0.00    -0.310 N 
ATOM     17  H   UNL     1      -6.811   6.130   0.665  0.00  0.00    +0.149 HD
BRANCH  16  18
ATOM     18  C   UNL     1      -6.483   8.331   0.792  0.00  0.00    +0.109 C 
BRANCH  18  19
ATOM     19  C   UNL     1      -7.998   8.388   0.995  0.00  0.00    +0.056 C 
BRANCH  19  20
ATOM     20  C   UNL     1      -8.429   9.822   1.162  0.00  0.00    -0.021 A 
ATOM     21  C   UNL     1      -8.607  10.472   2.323  0.00  0.00    +0.087 A 
ATOM     22  N   UNL     1      -9.000  11.760   2.081  0.00  0.00    -0.360 N 
ATOM     23  H   UNL     1      -9.193  12.444   2.921  0.00  0.00    +0.165 HD
ATOM     24  C   UNL     1      -9.087  11.976   0.724  0.00  0.00    +0.047 A 
ATOM     25  C   UNL     1      -8.728  10.773   0.089  0.00  0.00    +0.003 A 
ATOM     26  C   UNL     1      -8.732  10.693  -1.305  0.00  0.00    +0.013 A 
ATOM     27  C   UNL     1      -9.074  11.789  -2.046  0.00  0.00    -0.050 A 
ATOM     28  C   UNL     1      -9.424  12.980  -1.424  0.00  0.00    +0.005 A 
ATOM     29  C   UNL     1      -9.432  13.079  -0.050  0.00  0.00    +0.026 A 
ATOM     30  C   UNL     1      -9.072  11.704  -3.551  0.00  0.00    +0.044 C 
ENDBRANCH  19  20
ENDBRANCH  18  19
ENDBRANCH  16  18
ENDBRANCH   2  14
BRANCH   2  31
ATOM     31  N   UNL     1      -5.296   4.221   0.319  0.00  0.00    -0.277 N 
ATOM     32  C   UNL     1      -6.304   4.195  -0.576  0.00  0.00    +0.250 C 
ATOM     33  O   UNL     1      -6.343   5.016  -1.472  0.00  0.00    -0.270 OA
ATOM     34  H   UNL     1      -5.221   3.435   1.085  0.00  0.00    +0.155 HD
BRANCH  32  35
ATOM     35  C   UNL     1      -7.361   3.168  -0.469  0.00  0.00    +0.055 A 
ATOM     36  C   UNL     1      -7.387   2.299   0.623  0.00  0.00    +0.014 A 
ATOM     37  C   UNL     1      -8.379   1.347   0.720  0.00  0.00    +0.001 A 
ATOM     38  C   UNL     1      -9.343   1.243  -0.268  0.00  0.00    +0.001 A 
ATOM     39  C   UNL     1      -9.321   2.096  -1.357  0.00  0.00    +0.021 A 
ATOM     40  C   UNL     1      -8.336   3.058  -1.464  0.00  0.00    +0.053 A 
ATOM     41 CL   UNL     1      -8.310   4.128  -2.831  0.00  0.00    -0.083 Cl
ENDBRANCH  32  35
ENDBRANCH   2  31
TORSDOF 8
