REMARK  Name = ZINC11461941
REMARK  11 active torsions:
REMARK  status: ('A' for Active; 'I' for Inactive)
REMARK    1  A    between atoms: C_1  and  C_2
REMARK    2  A    between atoms: C_2  and  C_4
REMARK    3  A    between atoms: C_2  and  N_53
REMARK    4  A    between atoms: N_6  and  C_7
REMARK    5  A    between atoms: N_6  and  C_8
REMARK    6  A    between atoms: C_8  and  C_9
REMARK    7  A    between atoms: N_11  and  C_12
REMARK    8  A    between atoms: C_17  and  C_18
REMARK    9  A    between atoms: C_22  and  N_53
REMARK   10  A    between atoms: C_23  and  C_24
REMARK   11  A    between atoms: C_23  and  N_53
REMARK                            x       y       z     vdW  Elec       q    Type
REMARK                         _______ _______ _______ _____ _____    ______ ____
ROOT
ATOM      1  C   UNL     1      -6.214  -1.143  -2.001  0.00  0.00    +0.202 C 
ATOM      2  O   UNL     1      -5.422  -0.981  -2.906  0.00  0.00    -0.277 OA
ATOM      3  N   UNL     1      -6.346  -0.202  -1.045  0.00  0.00    -0.297 N 
ATOM      4  C   UNL     1      -7.381  -0.343  -0.018  0.00  0.00    +0.132 C 
ENDROOT
BRANCH   1   6
ATOM      5  C   UNL     1      -6.602  -3.257  -0.765  0.00  0.00    -0.004 C 
ATOM      6  C   UNL     1      -7.050  -2.395  -1.947  0.00  0.00    +0.016 C 
BRANCH   6   8
ATOM      7  C   UNL     1      -5.507  -3.654  -3.325  0.00  0.00    -0.095 C 
ATOM      8  N   UNL     1      -6.886  -3.133  -3.217  0.00  0.00    +0.388 N 
ATOM      9  H   UNL     1      -7.063  -2.493  -4.000  0.00  0.00    -0.081 HD
BRANCH   8  10
ATOM     10  C   UNL     1      -7.853  -4.249  -3.282  0.00  0.00    -0.041 C 
BRANCH  10  11
ATOM     11  C   UNL     1      -9.211  -3.692  -3.622  0.00  0.00    -0.050 A 
ATOM     12  C   UNL     1     -10.213  -3.681  -2.670  0.00  0.00    +0.003 A 
ATOM     13  C   UNL     1     -11.457  -3.166  -2.981  0.00  0.00    +0.000 A 
ATOM     14  C   UNL     1     -11.704  -2.670  -4.247  0.00  0.00    +0.001 A 
ATOM     15  C   UNL     1     -10.705  -2.685  -5.202  0.00  0.00    +0.015 A 
ATOM     16  C   UNL     1      -9.458  -3.196  -4.890  0.00  0.00    +0.019 A 
ATOM     17 BR   UNL     1      -8.090  -3.218  -6.196  0.00  0.00    -0.050 Br
ENDBRANCH  10  11
ENDBRANCH   8  10
ENDBRANCH   6   8
ENDBRANCH   1   6
BRANCH   3  18
ATOM     18  C   UNL     1      -5.454   0.960  -1.032  0.00  0.00    +0.203 C 
BRANCH  18  19
ATOM     19  C   UNL     1      -4.234   0.648  -0.204  0.00  0.00    +0.235 C 
ATOM     20  O   UNL     1      -4.121  -0.438   0.324  0.00  0.00    -0.274 OA
ATOM     21  N   UNL     1      -3.269   1.577  -0.050  0.00  0.00    -0.284 N 
ATOM     22  H   UNL     1      -3.395   2.470  -0.406  0.00  0.00    +0.155 HD
BRANCH  21  23
ATOM     23  C   UNL     1      -2.087   1.251   0.624  0.00  0.00    +0.045 A 
ATOM     24  C   UNL     1      -1.711  -0.079   0.768  0.00  0.00    +0.024 A 
ATOM     25  C   UNL     1      -0.543  -0.396   1.432  0.00  0.00    +0.002 A 
ATOM     26  C   UNL     1       0.253   0.607   1.954  0.00  0.00    +0.001 A 
ATOM     27  C   UNL     1      -0.116   1.932   1.807  0.00  0.00    +0.014 A 
ATOM     28  C   UNL     1      -1.286   2.256   1.148  0.00  0.00    +0.076 A 
BRANCH  28  29
ATOM     29  C   UNL     1      -1.689   3.700   0.994  0.00  0.00    +0.419 C 
ATOM     30  F   UNL     1      -0.731   4.519   1.601  0.00  0.00    -0.166 F 
ATOM     31  F   UNL     1      -1.780   4.016  -0.365  0.00  0.00    -0.166 F 
ATOM     32  F   UNL     1      -2.931   3.905   1.605  0.00  0.00    -0.166 F 
ENDBRANCH  28  29
ENDBRANCH  21  23
ENDBRANCH  18  19
ENDBRANCH   3  18
TORSDOF 8
