REMARK  Name = ZINC05445182
REMARK  13 active torsions:
REMARK  status: ('A' for Active; 'I' for Inactive)
REMARK    1  A    between atoms: C_1  and  N_60
REMARK    2  A    between atoms: C_2  and  N_60
REMARK    3  A    between atoms: C_3  and  C_4
REMARK    4  A    between atoms: C_3  and  N_60
REMARK    5  A    between atoms: C_4  and  N_5
REMARK    6  A    between atoms: C_6  and  C_23
REMARK    7  A    between atoms: C_9  and  C_10
REMARK    8  A    between atoms: C_9  and  O_18
REMARK    9  A    between atoms: C_13  and  O_16
REMARK   10  A    between atoms: O_16  and  C_17
REMARK   11  A    between atoms: C_26  and  N_29
REMARK   12  A    between atoms: N_29  and  C_30
REMARK   13  A    between atoms: N_29  and  C_31
REMARK                            x       y       z     vdW  Elec       q    Type
REMARK                         _______ _______ _______ _____ _____    ______ ____
ROOT
ATOM      1  N   UNL     1       4.099  -4.541  -0.367  0.00  0.00    -0.285 N 
ATOM      2  C   UNL     1       2.654  -4.318  -0.265  0.00  0.00    +0.144 C 
ATOM      3  C   UNL     1       2.454  -2.825  -0.140  0.00  0.00    +0.071 C 
ATOM      4  C   UNL     1       1.251  -2.156  -0.021  0.00  0.00    +0.133 C 
ATOM      5  C   UNL     1       3.736  -2.256  -0.165  0.00  0.00    +0.249 C 
ATOM      6  O   UNL     1       3.992  -1.068  -0.084  0.00  0.00    -0.282 OA
ATOM      7  C   UNL     1       4.729  -3.355  -0.306  0.00  0.00    +0.288 C 
ATOM      8  O   UNL     1       5.932  -3.203  -0.359  0.00  0.00    -0.266 OA
ENDROOT
BRANCH   4   9
ATOM      9  C   UNL     1       1.220  -0.686  -0.063  0.00  0.00    +0.017 A 
ATOM     10  C   UNL     1       1.858   0.001  -1.103  0.00  0.00    +0.015 A 
ATOM     11  C   UNL     1       1.825   1.376  -1.138  0.00  0.00    +0.046 A 
ATOM     12  C   UNL     1       1.161   2.084  -0.142  0.00  0.00    +0.120 A 
ATOM     13  C   UNL     1       0.526   1.407   0.893  0.00  0.00    +0.046 A 
ATOM     14  C   UNL     1       0.552   0.032   0.937  0.00  0.00    +0.015 A 
BRANCH  12  15
ATOM     15  O   UNL     1       1.132   3.440  -0.181  0.00  0.00    -0.495 OA
ATOM     16  C   UNL     1       0.432   4.104   0.873  0.00  0.00    +0.277 C 
ENDBRANCH  12  15
ENDBRANCH   4   9
BRANCH   2  17
ATOM     17  C   UNL     1       1.967  -4.829  -1.505  0.00  0.00    -0.022 A 
ATOM     18  C   UNL     1       2.558  -4.654  -2.743  0.00  0.00    +0.007 A 
ATOM     19  C   UNL     1       1.934  -5.126  -3.881  0.00  0.00    +0.023 A 
ATOM     20  C   UNL     1       0.706  -5.767  -3.782  0.00  0.00    +0.029 A 
ATOM     21  C   UNL     1       0.112  -5.936  -2.538  0.00  0.00    +0.023 A 
ATOM     22  C   UNL     1       0.744  -5.467  -1.403  0.00  0.00    +0.007 A 
BRANCH  20  23
ATOM     23  N   UNL     1       0.069  -6.241  -4.932  0.00  0.00    -0.336 N 
ATOM     24  C   UNL     1      -1.227  -6.916  -4.826  0.00  0.00    +0.129 C 
ATOM     25  C   UNL     1       0.697  -6.062  -6.243  0.00  0.00    +0.129 C 
ENDBRANCH  20  23
ENDBRANCH   2  17
BRANCH   4  26
ATOM     26  O   UNL     1       0.104  -2.851   0.134  0.00  0.00    -0.506 OA
ATOM     27  H   UNL     1      -0.664  -2.215   0.204  0.00  0.00    +0.292 HD
ENDBRANCH   4  26
BRANCH   1  28
ATOM     28  C   UNL     1       4.751  -5.845  -0.506  0.00  0.00    +0.090 C 
BRANCH  28  29
ATOM     29  C   UNL     1       5.056  -6.414   0.881  0.00  0.00    -0.060 C 
BRANCH  29  32
ATOM     30  C   UNL     1       7.035  -7.584   0.121  0.00  0.00    -0.097 C 
ATOM     31  C   UNL     1       5.804  -8.405   2.038  0.00  0.00    -0.097 C 
ATOM     32  N   UNL     1       5.694  -7.738   0.724  0.00  0.00    +0.377 N 
ATOM     33  H   UNL     1       5.114  -8.316   0.104  0.00  0.00    -0.083 HD
ENDBRANCH  29  32
ENDBRANCH  28  29
ENDBRANCH   1  28
TORSDOF 8
