REMARK  Name = ZINC02737023
REMARK  4 active torsions:
REMARK  status: ('A' for Active; 'I' for Inactive)
REMARK    1  A    between atoms: C_3  and  C_6
REMARK    2  A    between atoms: C_7  and  C_8
REMARK    3  A    between atoms: N_10  and  C_11
REMARK    4  A    between atoms: C_12  and  C_22
REMARK                            x       y       z     vdW  Elec       q    Type
REMARK                         _______ _______ _______ _____ _____    ______ ____
ROOT
ATOM      1  C   UNL     1      -2.371   1.877   3.318  0.00  0.00    +0.090 A 
ATOM      2  C   UNL     1      -1.620   2.964   2.921  0.00  0.00    +0.084 A 
ATOM      3  C   UNL     1      -0.691   2.797   1.798  0.00  0.00    -0.018 A 
ATOM      4  C   UNL     1      -0.743   1.584   1.224  0.00  0.00    -0.004 A 
ATOM      5  S   UNL     1      -1.892   0.646   2.199  0.00  0.00    -0.077 S 
ATOM      6  C   UNL     1      -0.013   1.086   0.008  0.00  0.00    +0.043 C 
ATOM      7  C   UNL     1      -0.784   1.609  -1.217  0.00  0.00    +0.005 C 
ATOM      8  C   UNL     1      -0.935   3.129  -1.077  0.00  0.00    +0.000 C 
ATOM      9  C   UNL     1       0.477   3.675  -1.077  0.00  0.00    +0.000 C 
ATOM     10  C   UNL     1       1.164   3.618   0.277  0.00  0.00    +0.005 C 
ATOM     11  C   UNL     1       0.225   3.964   1.426  0.00  0.00    +0.037 C 
ENDROOT
BRANCH   1  14
ATOM     12  C   UNL     1      -3.935   0.633   4.588  0.00  0.00    +0.242 C 
ATOM     13  O   UNL     1      -3.714  -0.339   3.889  0.00  0.00    -0.270 OA
ATOM     14  N   UNL     1      -3.288   1.792   4.354  0.00  0.00    -0.275 N 
ATOM     15  H   UNL     1      -3.463   2.567   4.911  0.00  0.00    +0.156 HD
BRANCH  12  17
ATOM     16  C   UNL     1      -5.522  -0.619   5.881  0.00  0.00    +0.051 C 
ATOM     17  C   UNL     1      -4.871   0.547   5.646  0.00  0.00    +0.071 C 
BRANCH  16  20
ATOM     18  C   UNL     1      -7.983  -1.453   8.386  0.00  0.00    +0.042 A 
ATOM     19  C   UNL     1      -7.193  -1.821   7.286  0.00  0.00    +0.049 A 
ATOM     20  C   UNL     1      -6.459  -0.706   6.939  0.00  0.00    +0.128 A 
ATOM     21  O   UNL     1      -6.797   0.290   7.785  0.00  0.00    -0.464 OA
ATOM     22  C   UNL     1      -7.713  -0.157   8.656  0.00  0.00    +0.195 A 
ENDBRANCH  16  20
ENDBRANCH  12  17
ENDBRANCH   1  14
BRANCH   2  23
ATOM     23  C   UNL     1      -1.740   4.223   3.594  0.00  0.00    +0.102 C 
ATOM     24  N   UNL     1      -1.835   5.221   4.127  0.00  0.00    -0.191 NA
ENDBRANCH   2  23
TORSDOF 4
