REMARK  Name = ZINC33960428
REMARK  8 active torsions:
REMARK  status: ('A' for Active; 'I' for Inactive)
REMARK    1  A    between atoms: C_1  and  C_2
REMARK    2  A    between atoms: C_5  and  C_23
REMARK    3  A    between atoms: C_6  and  C_7
REMARK    4  A    between atoms: C_6  and  C_8
REMARK    5  A    between atoms: N_11  and  O_12
REMARK    6  A    between atoms: O_12  and  C_13
REMARK    7  A    between atoms: C_13  and  C_15
REMARK    8  A    between atoms: N_25  and  C_26
REMARK                            x       y       z     vdW  Elec       q    Type
REMARK                         _______ _______ _______ _____ _____    ______ ____
ROOT
ATOM      1  C   UNL     1      -0.051   1.526   0.032  0.00  0.00    +0.018 C 
ATOM      2  C   UNL     1      -0.024  -0.004   0.019  0.00  0.00    +0.015 C 
ATOM      3  C   UNL     1      -1.413  -0.709   0.086  0.00  0.00    +0.014 C 
ATOM      4  C   UNL     1      -1.099  -2.143   0.572  0.00  0.00    +0.018 C 
ATOM      5  C   UNL     1       0.452  -2.165   0.744  0.00  0.00    +0.058 C 
ATOM      6  C   UNL     1       0.711  -0.693   1.223  0.00  0.00    -0.010 C 
ATOM      7  C   UNL     1       0.029  -0.394   2.560  0.00  0.00    +0.013 C 
ATOM      8  C   UNL     1       2.202  -0.353   1.258  0.00  0.00    +0.013 C 
ATOM      9  C   UNL     1       1.002  -2.082  -0.714  0.00  0.00    +0.071 C 
ATOM     10  C   UNL     1       0.702  -0.650  -1.169  0.00  0.00    +0.066 C 
ATOM     11  N   UNL     1       0.975  -0.112  -2.298  0.00  0.00    -0.083 NA
ENDROOT
BRANCH   5  12
ATOM     12  C   UNL     1       1.006  -3.261   1.616  0.00  0.00    +0.224 C 
ATOM     13  O   UNL     1       1.627  -2.982   2.620  0.00  0.00    -0.275 OA
ATOM     14  N   UNL     1       0.811  -4.553   1.282  0.00  0.00    -0.284 N 
ATOM     15  H   UNL     1       0.259  -4.777   0.516  0.00  0.00    +0.155 HD
BRANCH  14  16
ATOM     16  C   UNL     1       1.404  -5.566   2.037  0.00  0.00    +0.041 A 
ATOM     17  C   UNL     1       1.554  -5.421   3.399  0.00  0.00    +0.024 A 
ATOM     18  C   UNL     1       2.144  -6.426   4.161  0.00  0.00    +0.002 A 
ATOM     19  C   UNL     1       2.587  -7.577   3.584  0.00  0.00    +0.008 A 
ATOM     20  C   UNL     1       2.451  -7.765   2.198  0.00  0.00    -0.016 A 
ATOM     21  C   UNL     1       1.849  -6.751   1.413  0.00  0.00    +0.003 A 
ATOM     22  C   UNL     1       1.710  -6.942   0.029  0.00  0.00    +0.010 A 
ATOM     23  C   UNL     1       2.151  -8.098  -0.539  0.00  0.00    +0.001 A 
ATOM     24  C   UNL     1       2.739  -9.098   0.233  0.00  0.00    +0.001 A 
ATOM     25  C   UNL     1       2.900  -8.943   1.576  0.00  0.00    +0.008 A 
ENDBRANCH  14  16
ENDBRANCH   5  12
BRANCH  11  26
ATOM     26  O   UNL     1       1.655  -0.857  -3.292  0.00  0.00    -0.312 OA
BRANCH  26  27
ATOM     27  C   UNL     1       1.879  -0.174  -4.431  0.00  0.00    +0.368 C 
ATOM     28  O   UNL     1       1.506   0.978  -4.532  0.00  0.00    -0.243 OA
BRANCH  27  29
ATOM     29  C   UNL     1       2.580  -0.824  -5.555  0.00  0.00    +0.080 A 
ATOM     30  C   UNL     1       3.006  -2.150  -5.444  0.00  0.00    +0.018 A 
ATOM     31  C   UNL     1       3.659  -2.752  -6.498  0.00  0.00    +0.021 A 
ATOM     32  C   UNL     1       3.893  -2.045  -7.667  0.00  0.00    +0.042 A 
ATOM     33  C   UNL     1       3.474  -0.731  -7.785  0.00  0.00    +0.040 A 
ATOM     34  C   UNL     1       2.814  -0.118  -6.739  0.00  0.00    +0.056 A 
ATOM     35 CL   UNL     1       2.283   1.528  -6.890  0.00  0.00    -0.083 Cl
ATOM     36 CL   UNL     1       4.717  -2.812  -8.989  0.00  0.00    -0.083 Cl
ENDBRANCH  27  29
ENDBRANCH  26  27
ENDBRANCH  11  26
TORSDOF 5
