REMARK  Name = ZINC04222525
REMARK  16 active torsions:
REMARK  status: ('A' for Active; 'I' for Inactive)
REMARK    1  A    between atoms: C_1  and  C_2
REMARK    2  A    between atoms: C_2  and  C_3
REMARK    3  A    between atoms: C_3  and  C_4
REMARK    4  A    between atoms: C_4  and  N_5
REMARK    5  A    between atoms: C_14  and  C_34
REMARK    6  A    between atoms: C_15  and  C_17
REMARK    7  A    between atoms: C_17  and  C_18
REMARK    8  A    between atoms: N_20  and  C_21
REMARK    9  A    between atoms: C_21  and  C_22
REMARK   10  A    between atoms: C_22  and  N_74
REMARK   11  A    between atoms: C_23  and  N_74
REMARK   12  A    between atoms: C_24  and  N_74
REMARK   13  A    between atoms: C_27  and  O_33
REMARK   14  A    between atoms: C_29  and  C_30
REMARK   15  A    between atoms: C_29  and  C_31
REMARK   16  A    between atoms: C_31  and  O_32
REMARK                            x       y       z     vdW  Elec       q    Type
REMARK                         _______ _______ _______ _____ _____    ______ ____
ROOT
ATOM      1  N   UNL     1       1.934   3.789  -0.375  0.00  0.00    -0.323 N 
ATOM      2  C   UNL     1       1.294   2.561  -0.306  0.00  0.00    +0.159 A 
ATOM      3  N   UNL     1       1.819   1.357  -0.212  0.00  0.00    -0.229 NA
ATOM      4  C   UNL     1       1.068   0.258  -0.154  0.00  0.00    +0.058 A 
ATOM      5  C   UNL     1      -0.274   0.452  -0.198  0.00  0.00    +0.015 A 
ATOM      6  S   UNL     1      -0.410   2.215  -0.322  0.00  0.00    -0.057 S 
ATOM      7  C   UNL     1      -1.345  -0.580  -0.149  0.00  0.00    +0.049 C 
ATOM      8  C   UNL     1      -0.719  -1.967  -0.397  0.00  0.00    +0.011 C 
ATOM      9  C   UNL     1       0.542  -2.103   0.459  0.00  0.00    -0.019 C 
ATOM     10  C   UNL     1       1.633  -1.150  -0.050  0.00  0.00    +0.054 C 
ATOM     11  C   UNL     1       1.095  -3.529   0.362  0.00  0.00    +0.010 C 
ATOM     12  C   UNL     1       0.056  -4.545   0.786  0.00  0.00    +0.032 C 
ATOM     13  C   UNL     1      -1.163  -4.425  -0.135  0.00  0.00    +0.123 C 
ATOM     14  C   UNL     1      -1.751  -3.023   0.010  0.00  0.00    +0.021 C 
ATOM     15  C   UNL     1      -2.985  -2.897  -0.886  0.00  0.00    +0.016 C 
ATOM     16  C   UNL     1       0.211  -1.771   1.916  0.00  0.00    +0.012 C 
ATOM     17  H   UNL     1       2.903   3.832  -0.356  0.00  0.00    +0.148 HD
ENDROOT
BRANCH  13  18
ATOM     18  O   UNL     1      -2.142  -5.396   0.238  0.00  0.00    -0.391 OA
ATOM     19  H   UNL     1      -1.835  -6.311   0.170  0.00  0.00    +0.210 HD
ENDBRANCH  13  18
BRANCH   1  20
ATOM     20  C   UNL     1       1.148   5.021  -0.477  0.00  0.00    +0.103 C 
BRANCH  20  21
ATOM     21  C   UNL     1       2.091   6.224  -0.538  0.00  0.00    +0.018 C 
BRANCH  21  23
ATOM     22  C   UNL     1       2.213   8.714  -0.705  0.00  0.00    +0.004 C 
ATOM     23  C   UNL     1       1.270   7.511  -0.644  0.00  0.00    -0.002 C 
ENDBRANCH  21  23
ENDBRANCH  20  21
ENDBRANCH   1  20
BRANCH  10  24
ATOM     24  C   UNL     1       2.811  -1.156   0.926  0.00  0.00    +0.106 C 
BRANCH  24  25
ATOM     25  C   UNL     1       3.956  -0.374   0.336  0.00  0.00    +0.214 C 
ATOM     26  O   UNL     1       3.841   0.137  -0.758  0.00  0.00    -0.276 OA
ATOM     27  N   UNL     1       5.108  -0.244   1.023  0.00  0.00    -0.317 N 
ATOM     28  H   UNL     1       5.200  -0.653   1.897  0.00  0.00    +0.149 HD
BRANCH  27  29
ATOM     29  C   UNL     1       6.221   0.516   0.449  0.00  0.00    +0.085 C 
BRANCH  29  30
ATOM     30  C   UNL     1       7.399   0.510   1.425  0.00  0.00    -0.061 C 
BRANCH  30  33
ATOM     31  C   UNL     1       8.172   2.696   0.724  0.00  0.00    -0.097 C 
ATOM     32  C   UNL     1       9.739   1.094   1.642  0.00  0.00    -0.097 C 
ATOM     33  N   UNL     1       8.521   1.263   0.823  0.00  0.00    +0.377 N 
ATOM     34  H   UNL     1       8.699   0.897  -0.120  0.00  0.00    -0.083 HD
ENDBRANCH  30  33
ENDBRANCH  29  30
ENDBRANCH  27  29
ENDBRANCH  24  25
ENDBRANCH  10  24
BRANCH  14  35
ATOM     35  C   UNL     1      -2.159  -2.797   1.468  0.00  0.00    +0.165 C 
BRANCH  35  36
ATOM     36  O   UNL     1      -3.237  -3.674   1.802  0.00  0.00    -0.394 OA
ATOM     37  H   UNL     1      -3.547  -3.585   2.714  0.00  0.00    +0.209 HD
ENDBRANCH  35  36
ENDBRANCH  14  35
TORSDOF 11
