REMARK  Name = ZINC39154747
REMARK  9 active torsions:
REMARK  status: ('A' for Active; 'I' for Inactive)
REMARK    1  A    between atoms: C_1  and  C_2
REMARK    2  A    between atoms: C_2  and  O_3
REMARK    3  A    between atoms: O_3  and  C_4
REMARK    4  A    between atoms: C_4  and  C_6
REMARK    5  A    between atoms: C_8  and  N_17
REMARK    6  A    between atoms: C_18  and  C_20
REMARK    7  A    between atoms: C_20  and  S_21
REMARK    8  A    between atoms: S_21  and  C_22
REMARK    9  A    between atoms: C_26  and  C_29
REMARK                            x       y       z     vdW  Elec       q    Type
REMARK                         _______ _______ _______ _____ _____    ______ ____
ROOT
ATOM      1  N   UNL     1      -5.060  -1.792   1.044  0.00  0.00    -0.301 N 
ATOM      2  C   UNL     1      -5.953  -2.269   1.933  0.00  0.00    +0.224 C 
ATOM      3  O   UNL     1      -5.569  -2.832   2.936  0.00  0.00    -0.275 OA
ATOM      4  H   UNL     1      -5.367  -1.341   0.242  0.00  0.00    +0.150 HD
ENDROOT
BRANCH   1   6
ATOM      5  C   UNL     1      -2.881  -2.427   0.017  0.00  0.00    +0.155 C 
ATOM      6  C   UNL     1      -3.624  -1.955   1.289  0.00  0.00    +0.153 C 
ATOM      7  S   UNL     1      -3.281  -3.407   2.369  0.00  0.00    -0.106 S 
ATOM      8  C   UNL     1      -2.940  -4.600   1.095  0.00  0.00    -0.013 C 
ATOM      9  C   UNL     1      -2.771  -3.930  -0.035  0.00  0.00    -0.044 C 
ATOM     10  C   UNL     1      -2.477  -4.661  -1.343  0.00  0.00    +0.032 C 
ATOM     11  C   UNL     1      -1.962  -6.065  -1.028  0.00  0.00    +0.005 C 
ATOM     12  C   UNL     1      -2.940  -6.767  -0.080  0.00  0.00    +0.005 C 
ATOM     13  C   UNL     1      -2.862  -6.089   1.285  0.00  0.00    +0.042 C 
BRANCH   5  14
ATOM     14  C   UNL     1      -1.496  -1.832   0.006  0.00  0.00    +0.317 C 
ATOM     15  O   UNL     1      -0.528  -2.555  -0.007  0.00  0.00    -0.250 OA
BRANCH  14  16
ATOM     16  O   UNL     1      -1.339  -0.499   0.012  0.00  0.00    -0.464 OA
BRANCH  16  18
ATOM     17  C   UNL     1      -0.019   1.526   0.010  0.00  0.00    +0.048 C 
ATOM     18  C   UNL     1       0.002  -0.004   0.002  0.00  0.00    +0.229 C 
ENDBRANCH  16  18
ENDBRANCH  14  16
ENDBRANCH   5  14
ENDBRANCH   1   6
BRANCH   2  19
ATOM     19  C   UNL     1      -7.430  -2.102   1.681  0.00  0.00    +0.173 C 
BRANCH  19  20
ATOM     20  S   UNL     1      -8.364  -2.843   3.048  0.00  0.00    -0.075 S 
BRANCH  20  21
ATOM     21  C   UNL     1     -10.049  -2.569   2.611  0.00  0.00    +0.213 A 
ATOM     22  N   UNL     1     -11.012  -2.998   3.418  0.00  0.00    -0.180 NA
ATOM     23  C   UNL     1     -12.281  -2.791   3.088  0.00  0.00    +0.300 A 
ATOM     24  O   UNL     1     -13.284  -3.218   3.892  0.00  0.00    -0.263 OA
ATOM     25  C   UNL     1     -12.562  -2.118   1.885  0.00  0.00    +0.159 A 
ATOM     26  N   UNL     1     -11.553  -1.714   1.123  0.00  0.00    -0.141 NA
ATOM     27  N   UNL     1     -10.336  -1.931   1.482  0.00  0.00    -0.122 NA
BRANCH  25  28
ATOM     28  C   UNL     1     -13.963  -1.864   1.475  0.00  0.00    +0.008 A 
ATOM     29  C   UNL     1     -14.958  -2.796   1.770  0.00  0.00    +0.011 A 
ATOM     30  C   UNL     1     -16.261  -2.554   1.386  0.00  0.00    +0.020 A 
ATOM     31  C   UNL     1     -16.582  -1.390   0.709  0.00  0.00    +0.041 A 
ATOM     32  C   UNL     1     -15.598  -0.462   0.413  0.00  0.00    +0.020 A 
ATOM     33  C   UNL     1     -14.293  -0.691   0.798  0.00  0.00    +0.011 A 
ATOM     34 CL   UNL     1     -18.223  -1.093   0.228  0.00  0.00    -0.084 Cl
ENDBRANCH  25  28
ENDBRANCH  20  21
ENDBRANCH  19  20
ENDBRANCH   2  19
TORSDOF 8
