REMARK  Name = ZINC08654609
REMARK  4 active torsions:
REMARK  status: ('A' for Active; 'I' for Inactive)
REMARK    1  A    between atoms: C_1  and  C_2
REMARK    2  A    between atoms: C_4  and  C_28
REMARK    3  A    between atoms: C_11  and  C_13
REMARK    4  A    between atoms: C_14  and  C_20
REMARK                            x       y       z     vdW  Elec       q    Type
REMARK                         _______ _______ _______ _____ _____    ______ ____
ROOT
ATOM      1  C   UNL     1      -0.018   1.503   0.010  0.00  0.00    +0.066 C 
ATOM      2  C   UNL     1       0.002  -0.004   0.002  0.00  0.00    +0.044 A 
ATOM      3  C   UNL     1       0.006  -0.699  -1.197  0.00  0.00    +0.046 A 
ATOM      4  C   UNL     1       0.025  -2.085  -1.159  0.00  0.00    +0.044 A 
ATOM      5  N   UNL     1       0.040  -2.697   0.013  0.00  0.00    -0.216 NA
ATOM      6  C   UNL     1       0.035  -2.003   1.140  0.00  0.00    +0.253 A 
ATOM      7  N   UNL     1       0.022  -0.680   1.139  0.00  0.00    -0.216 NA
ATOM      8  N   UNL     1       0.051  -2.682   2.357  0.00  0.00    -0.183 N 
ATOM      9  C   UNL     1       0.043  -2.119   3.584  0.00  0.00    +0.136 A 
ATOM     10  C   UNL     1       0.051  -3.133   4.504  0.00  0.00    +0.023 A 
ATOM     11  C   UNL     1       0.075  -4.337   3.814  0.00  0.00    +0.066 A 
ATOM     12  N   UNL     1       0.070  -4.076   2.528  0.00  0.00    -0.167 NA
ATOM     13  C   UNL     1       0.096  -5.710   4.436  0.00  0.00    +0.068 C 
ATOM     14  C   UNL     1       0.026  -2.875   5.989  0.00  0.00    +0.066 C 
ATOM     15  C   UNL     1       0.692  -1.521   6.253  0.00  0.00    +0.109 C 
ATOM     16  C   UNL     1       0.229  -0.485   5.268  0.00  0.00    +0.219 C 
ATOM     17  O   UNL     1       0.040   0.649   5.652  0.00  0.00    -0.275 OA
ATOM     18  N   UNL     1       0.016  -0.779   3.967  0.00  0.00    -0.270 N 
ATOM     19  C   UNL     1       0.030  -2.883  -2.437  0.00  0.00    +0.066 C 
ATOM     20  H   UNL     1      -0.151  -0.078   3.318  0.00  0.00    +0.156 HD
ENDROOT
BRANCH  14  21
ATOM     21  C   UNL     1      -1.401  -2.844   6.475  0.00  0.00    -0.001 A 
ATOM     22  C   UNL     1      -2.287  -1.917   5.959  0.00  0.00    +0.045 A 
ATOM     23  C   UNL     1      -3.597  -1.889   6.405  0.00  0.00    +0.124 A 
ATOM     24  C   UNL     1      -4.020  -2.789   7.368  0.00  0.00    +0.041 A 
ATOM     25  C   UNL     1      -3.134  -3.715   7.885  0.00  0.00    +0.041 A 
ATOM     26  C   UNL     1      -1.825  -3.747   7.435  0.00  0.00    +0.127 A 
ATOM     27  F   UNL     1      -0.960  -4.656   7.936  0.00  0.00    -0.205 F 
ATOM     28  F   UNL     1      -4.463  -0.983   5.900  0.00  0.00    -0.205 F 
ENDBRANCH  14  21
TORSDOF 1
