REMARK  Name = ZINC35956833
REMARK  14 active torsions:
REMARK  status: ('A' for Active; 'I' for Inactive)
REMARK    1  A    between atoms: C_4  and  C_7
REMARK    2  A    between atoms: C_7  and  C_8
REMARK    3  A    between atoms: C_8  and  N_9
REMARK    4  A    between atoms: N_9  and  C_10
REMARK    5  A    between atoms: C_10  and  C_11
REMARK    6  A    between atoms: C_11  and  C_12
REMARK    7  A    between atoms: C_14  and  C_17
REMARK    8  A    between atoms: C_21  and  C_23
REMARK    9  A    between atoms: C_27  and  C_29
REMARK   10  A    between atoms: C_29  and  C_30
REMARK   11  A    between atoms: C_30  and  C_31
REMARK   12  A    between atoms: C_31  and  C_32
REMARK   13  A    between atoms: C_32  and  C_33
REMARK   14  A    between atoms: C_33  and  N_34
REMARK                            x       y       z     vdW  Elec       q    Type
REMARK                         _______ _______ _______ _____ _____    ______ ____
ROOT
ATOM      1  N   UNL     1       5.450  -1.678   1.382  0.00  0.00    -0.301 N 
ATOM      2  C   UNL     1       5.468  -3.026   1.375  0.00  0.00    +0.216 C 
ATOM      3  O   UNL     1       6.527  -3.618   1.361  0.00  0.00    -0.276 OA
ENDROOT
BRANCH   1   4
ATOM      4  C   UNL     1       4.171  -0.963   1.399  0.00  0.00    +0.112 C 
BRANCH   4   5
ATOM      5  C   UNL     1       3.711  -0.707  -0.038  0.00  0.00    +0.054 C 
BRANCH   5   9
ATOM      6  C   UNL     1      -0.017   1.378   0.010  0.00  0.00    +0.000 A 
ATOM      7  C   UNL     1       1.171   2.086   0.002  0.00  0.00    +0.000 A 
ATOM      8  C   UNL     1       2.377   1.411  -0.013  0.00  0.00    +0.004 A 
ATOM      9  C   UNL     1       2.396   0.029  -0.020  0.00  0.00    -0.046 A 
ATOM     10  C   UNL     1       1.208  -0.679  -0.012  0.00  0.00    +0.004 A 
ATOM     11  C   UNL     1       0.002  -0.004   0.002  0.00  0.00    +0.000 A 
ENDBRANCH   5   9
ENDBRANCH   4   5
ENDBRANCH   1   4
BRANCH   1  12
ATOM     12  C   UNL     1       6.708  -0.929   1.373  0.00  0.00    +0.117 C 
BRANCH  12  13
ATOM     13  C   UNL     1       7.162  -0.675   2.812  0.00  0.00    +0.118 C 
BRANCH  13  14
ATOM     14  C   UNL     1       8.456   0.096   2.802  0.00  0.00    +0.229 A 
ATOM     15  N   UNL     1       8.569   1.394   2.812  0.00  0.00    -0.191 NA
ATOM     16  C   UNL     1       9.868   1.743   2.799  0.00  0.00    +0.202 A 
ATOM     17  N   UNL     1      10.595   0.653   2.780  0.00  0.00    -0.056 NA
ATOM     18  O   UNL     1       9.685  -0.437   2.787  0.00  0.00    -0.338 OA
BRANCH  16  19
ATOM     19  C   UNL     1      10.392   3.132   2.805  0.00  0.00    +0.023 A 
ATOM     20  C   UNL     1       9.510   4.211   2.831  0.00  0.00    +0.012 A 
ATOM     21  C   UNL     1      10.002   5.500   2.836  0.00  0.00    +0.001 A 
ATOM     22  C   UNL     1      11.367   5.723   2.815  0.00  0.00    +0.012 A 
ATOM     23  C   UNL     1      12.246   4.655   2.789  0.00  0.00    +0.055 A 
ATOM     24  C   UNL     1      11.765   3.361   2.789  0.00  0.00    +0.024 A 
BRANCH  23  25
ATOM     25  C   UNL     1      13.732   4.905   2.766  0.00  0.00    +0.417 C 
ATOM     26  F   UNL     1      13.974   6.283   2.775  0.00  0.00    -0.166 F 
ATOM     27  F   UNL     1      14.321   4.321   3.892  0.00  0.00    -0.166 F 
ATOM     28  F   UNL     1      14.282   4.344   1.608  0.00  0.00    -0.166 F 
ENDBRANCH  23  25
ENDBRANCH  16  19
ENDBRANCH  13  14
ENDBRANCH  12  13
ENDBRANCH   1  12
BRANCH   2  29
ATOM     29  C   UNL     1       4.173  -3.797   1.385  0.00  0.00    +0.096 C 
BRANCH  29  30
ATOM     30  C   UNL     1       4.473  -5.298   1.374  0.00  0.00    +0.009 C 
BRANCH  30  31
ATOM     31  C   UNL     1       3.159  -6.080   1.384  0.00  0.00    -0.001 C 
BRANCH  31  32
ATOM     32  C   UNL     1       3.459  -7.581   1.373  0.00  0.00    -0.020 C 
BRANCH  32  33
ATOM     33  C   UNL     1       2.144  -8.364   1.383  0.00  0.00    -0.086 C 
BRANCH  33  34
ATOM     34  N   UNL     1       2.432  -9.804   1.373  0.00  0.00    +0.378 N 
ATOM     35  H   UNL     1       2.956 -10.037   0.542  0.00  0.00    -0.090 HD
ATOM     36  H   UNL     1       2.973 -10.045   2.190  0.00  0.00    -0.090 HD
ATOM     37  H   UNL     1       1.566 -10.320   1.379  0.00  0.00    -0.090 HD
ENDBRANCH  33  34
ENDBRANCH  32  33
ENDBRANCH  31  32
ENDBRANCH  30  31
ENDBRANCH  29  30
ENDBRANCH   2  29
TORSDOF 14
