REMARK  Name = ZINC08916983
REMARK  8 active torsions:
REMARK  status: ('A' for Active; 'I' for Inactive)
REMARK    1  A    between atoms: C_1  and  C_2
REMARK    2  A    between atoms: C_10  and  C_11
REMARK    3  A    between atoms: N_13  and  C_14
REMARK    4  A    between atoms: C_14  and  C_15
REMARK    5  A    between atoms: C_15  and  C_17
REMARK    6  A    between atoms: C_15  and  N_54
REMARK    7  A    between atoms: C_20  and  O_23
REMARK    8  A    between atoms: O_23  and  C_24
REMARK                            x       y       z     vdW  Elec       q    Type
REMARK                         _______ _______ _______ _____ _____    ______ ____
ROOT
ATOM      1  C   UNL     1       2.370   1.239   0.046  0.00  0.00    +0.094 C 
ENDROOT
BRANCH   1   4
ATOM      2  C   UNL     1       1.618  -0.610   1.443  0.00  0.00    +0.280 C 
ATOM      3  O   UNL     1       0.633  -0.705   0.735  0.00  0.00    -0.267 OA
ATOM      4  N   UNL     1       2.547   0.331   1.182  0.00  0.00    -0.310 N 
ATOM      5  H   UNL     1       3.332   0.406   1.746  0.00  0.00    +0.149 HD
BRANCH   2  15
ATOM      6  C   UNL     1      -0.381  -2.843   2.274  0.00  0.00    +0.048 C 
ATOM      7  C   UNL     1       0.919  -2.493   2.950  0.00  0.00    +0.008 A 
ATOM      8  C   UNL     1       1.499  -3.136   4.128  0.00  0.00    +0.025 A 
ATOM      9  C   UNL     1       1.101  -4.187   4.958  0.00  0.00    +0.027 A 
ATOM     10  C   UNL     1       1.891  -4.553   6.013  0.00  0.00    +0.019 A 
ATOM     11  C   UNL     1       3.083  -3.886   6.263  0.00  0.00    +0.019 A 
ATOM     12  C   UNL     1       3.493  -2.848   5.456  0.00  0.00    +0.048 A 
ATOM     13  C   UNL     1       2.707  -2.458   4.378  0.00  0.00    +0.136 A 
ATOM     14  O   UNL     1       2.840  -1.504   3.436  0.00  0.00    -0.450 OA
ATOM     15  C   UNL     1       1.792  -1.518   2.586  0.00  0.00    +0.193 A 
ATOM     16 BR   UNL     1       1.355  -5.975   7.138  0.00  0.00    -0.050 Br
ENDBRANCH   2  15
ENDBRANCH   1   4
BRANCH   1  17
ATOM     17  C   UNL     1       3.495   2.276   0.042  0.00  0.00    -0.020 C 
BRANCH  17  18
ATOM     18  C   UNL     1       4.812   1.587  -0.210  0.00  0.00    -0.059 A 
ATOM     19  C   UNL     1       5.171   1.234  -1.498  0.00  0.00    +0.005 A 
ATOM     20  C   UNL     1       6.380   0.608  -1.732  0.00  0.00    +0.046 A 
ATOM     21  C   UNL     1       7.228   0.322  -0.673  0.00  0.00    +0.120 A 
ATOM     22  C   UNL     1       6.863   0.671   0.619  0.00  0.00    +0.046 A 
ATOM     23  C   UNL     1       5.656   1.303   0.848  0.00  0.00    +0.005 A 
BRANCH  21  24
ATOM     24  O   UNL     1       8.415  -0.300  -0.900  0.00  0.00    -0.495 OA
ATOM     25  C   UNL     1       8.726  -0.630  -2.255  0.00  0.00    +0.277 C 
ENDBRANCH  21  24
ENDBRANCH  17  18
BRANCH  17  30
ATOM     26  C   UNL     1       1.943   3.943  -0.817  0.00  0.00    -0.078 C 
ATOM     27  C   UNL     1       2.090   5.242  -1.648  0.00  0.00    -0.020 C 
ATOM     28  C   UNL     1       3.567   5.636  -1.416  0.00  0.00    -0.020 C 
ATOM     29  C   UNL     1       4.269   4.333  -0.993  0.00  0.00    -0.078 C 
ATOM     30  N   UNL     1       3.244   3.288  -1.027  0.00  0.00    +0.385 N 
ATOM     31  H   UNL     1       3.255   2.822  -1.942  0.00  0.00    -0.081 HD
ENDBRANCH  17  30
ENDBRANCH   1  17
TORSDOF 6
