REMARK  Name = ZINC18266699
REMARK  5 active torsions:
REMARK  status: ('A' for Active; 'I' for Inactive)
REMARK    1  A    between atoms: C_1  and  C_2
REMARK    2  A    between atoms: C_2  and  C_4
REMARK    3  A    between atoms: C_2  and  S_20
REMARK    4  A    between atoms: C_10  and  C_15
REMARK    5  A    between atoms: S_20  and  C_21
REMARK                            x       y       z     vdW  Elec       q    Type
REMARK                         _______ _______ _______ _____ _____    ______ ____
ROOT
ATOM      1  C   UNL     1      -1.596  -3.843   0.120  0.00  0.00    +0.124 A 
ATOM      2  N   UNL     1      -2.870  -3.583  -0.273  0.00  0.00    -0.309 N 
ATOM      3  H   UNL     1      -3.087  -2.708  -0.631  0.00  0.00    +0.170 HD
ATOM      4  C   UNL     1      -3.834  -4.516  -0.180  0.00  0.00    +0.260 A 
ATOM      5  O   UNL     1      -4.972  -4.269  -0.542  0.00  0.00    -0.267 OA
ATOM      6  C   UNL     1      -3.506  -5.802   0.356  0.00  0.00    +0.083 A 
ATOM      7  C   UNL     1      -4.366  -6.963   0.561  0.00  0.00    +0.039 A 
ATOM      8  C   UNL     1      -3.824  -8.089   1.091  0.00  0.00    +0.059 A 
ATOM      9  S   UNL     1      -2.116  -7.645   1.344  0.00  0.00    -0.076 S 
ATOM     10  C   UNL     1      -2.167  -5.977   0.740  0.00  0.00    +0.116 A 
ATOM     11  N   UNL     1      -1.266  -5.006   0.613  0.00  0.00    -0.225 NA
ENDROOT
BRANCH   7  12
ATOM     12  C   UNL     1      -5.797  -6.915   0.198  0.00  0.00    +0.136 A 
ATOM     13  C   UNL     1      -6.460  -7.829  -0.559  0.00  0.00    +0.050 A 
ATOM     14  C   UNL     1      -7.797  -7.390  -0.648  0.00  0.00    +0.042 A 
ATOM     15  C   UNL     1      -7.881  -6.239   0.046  0.00  0.00    +0.196 A 
ATOM     16  O   UNL     1      -6.670  -5.954   0.556  0.00  0.00    -0.463 OA
ENDBRANCH   7  12
BRANCH   1  18
ATOM     17  C   UNL     1       0.212  -2.951  -1.323  0.00  0.00    +0.027 C 
ATOM     18  C   UNL     1      -0.547  -2.768  -0.008  0.00  0.00    +0.116 C 
BRANCH  18  19
ATOM     19  S   UNL     1      -1.346  -1.139   0.009  0.00  0.00    -0.086 S 
BRANCH  19  20
ATOM     20  C   UNL     1       0.002  -0.004   0.002  0.00  0.00    +0.161 A 
ATOM     21  N   UNL     1       1.299  -0.246  -0.012  0.00  0.00    -0.133 NA
ATOM     22  N   UNL     1       2.190   0.802  -0.015  0.00  0.00    -0.125 NA
ATOM     23  C   UNL     1       1.745   2.043  -0.004  0.00  0.00    +0.180 A 
ATOM     24  S   UNL     1      -0.022   1.782   0.012  0.00  0.00    -0.025 S 
ATOM     25  N   UNL     1       2.459   3.235  -0.004  0.00  0.00    -0.336 N 
ATOM     26  H   UNL     1       1.988   4.083   0.005  0.00  0.00    +0.144 HD
ATOM     27  H   UNL     1       3.429   3.219  -0.013  0.00  0.00    +0.144 HD
ENDBRANCH  19  20
ENDBRANCH  18  19
ENDBRANCH   1  18
TORSDOF 4
