REMARK  Name = ZINC43743685
REMARK  12 active torsions:
REMARK  status: ('A' for Active; 'I' for Inactive)
REMARK    1  A    between atoms: C_1  and  C_2
REMARK    2  A    between atoms: C_2  and  C_4
REMARK    3  A    between atoms: C_8  and  C_40
REMARK    4  A    between atoms: C_17  and  C_39
REMARK    5  A    between atoms: C_20  and  O_35
REMARK    6  A    between atoms: C_22  and  C_33
REMARK    7  A    between atoms: C_22  and  C_34
REMARK    8  A    between atoms: C_27  and  C_32
REMARK    9  A    between atoms: C_28  and  C_31
REMARK   10  A    between atoms: O_35  and  C_36
REMARK   11  A    between atoms: C_36  and  C_38
REMARK   12  A    between atoms: C_40  and  O_41
REMARK                            x       y       z     vdW  Elec       q    Type
REMARK                         _______ _______ _______ _____ _____    ______ ____
ROOT
ATOM      1  C   UNL     1      -0.161  -1.433   0.864  0.00  0.00    +0.018 C 
ATOM      2  C   UNL     1      -0.841  -1.393  -0.530  0.00  0.00    +0.009 C 
ATOM      3  C   UNL     1      -2.307  -0.943  -0.287  0.00  0.00    +0.010 C 
ATOM      4  C   UNL     1      -2.200  -0.130   1.017  0.00  0.00    -0.002 C 
ATOM      5  C   UNL     1      -1.252  -1.029   1.845  0.00  0.00    +0.008 C 
ATOM      6  C   UNL     1      -0.886  -0.345   3.136  0.00  0.00    -0.000 C 
ATOM      7  C   UNL     1       0.083  -1.187   3.965  0.00  0.00    +0.005 C 
ATOM      8  C   UNL     1       0.417  -0.473   5.280  0.00  0.00    +0.005 C 
ATOM      9  C   UNL     1      -0.868  -0.205   6.063  0.00  0.00    +0.002 C 
ATOM     10  C   UNL     1      -0.583   0.311   7.462  0.00  0.00    -0.025 C 
ATOM     11  C   UNL     1       0.296  -0.709   8.205  0.00  0.00    +0.011 C 
ATOM     12  C   UNL     1      -0.512  -1.944   8.581  0.00  0.00    +0.046 C 
ATOM     13  C   UNL     1      -1.580  -1.518   9.586  0.00  0.00    +0.182 C 
ATOM     14  C   UNL     1      -2.552  -0.537   8.925  0.00  0.00    +0.005 C 
ATOM     15  C   UNL     1      -1.856   0.612   8.231  0.00  0.00    +0.004 C 
ATOM     16  C   UNL     1      -2.814   1.472   7.417  0.00  0.00    +0.005 C 
ATOM     17  C   UNL     1      -3.094   0.961   6.015  0.00  0.00    +0.008 C 
ATOM     18  C   UNL     1      -1.820   0.647   5.240  0.00  0.00    -0.023 C 
ATOM     19  C   UNL     1      -2.173  -0.102   3.942  0.00  0.00    -0.023 C 
ATOM     20  C   UNL     1      -3.201   0.683   3.135  0.00  0.00    +0.008 C 
ATOM     21  C   UNL     1      -3.501   0.017   1.783  0.00  0.00    +0.010 C 
ATOM     22  C   UNL     1      -2.816  -1.448   4.299  0.00  0.00    +0.012 C 
ATOM     23  C   UNL     1      -1.185   1.986   4.832  0.00  0.00    +0.012 C 
ATOM     24  C   UNL     1      -3.427   0.043  10.063  0.00  0.00    +0.015 C 
ATOM     25  C   UNL     1      -3.478  -1.330   8.003  0.00  0.00    +0.015 C 
ATOM     26  C   UNL     1       0.271   1.597   7.432  0.00  0.00    +0.012 C 
ENDROOT
BRANCH   1  28
ATOM     27  C   UNL     1       1.067   0.656   1.822  0.00  0.00    +0.039 C 
ATOM     28  C   UNL     1       1.038  -0.530   0.892  0.00  0.00    -0.076 C 
ATOM     29  C   UNL     1       2.059  -0.773   0.109  0.00  0.00    +0.007 C 
ENDBRANCH   1  28
BRANCH  13  30
ATOM     30  O   UNL     1      -0.966  -0.897  10.715  0.00  0.00    -0.461 OA
BRANCH  30  31
ATOM     31  C   UNL     1      -0.619  -1.695  11.737  0.00  0.00    +0.304 C 
ATOM     32  O   UNL     1      -0.831  -2.883  11.674  0.00  0.00    -0.251 OA
ATOM     33  C   UNL     1       0.034  -1.110  12.962  0.00  0.00    +0.136 C 
ENDBRANCH  30  31
ENDBRANCH  13  30
BRANCH   4  34
ATOM     34  C   UNL     1      -1.617   1.248   0.707  0.00  0.00    +0.163 C 
BRANCH  34  35
ATOM     35  O   UNL     1      -2.537   1.983  -0.103  0.00  0.00    -0.394 OA
ATOM     36  H   UNL     1      -2.232   2.869  -0.339  0.00  0.00    +0.209 HD
ENDBRANCH  34  35
ENDBRANCH   4  34
TORSDOF 5
