REMARK  Name = ZINC29340475
REMARK  7 active torsions:
REMARK  status: ('A' for Active; 'I' for Inactive)
REMARK    1  A    between atoms: C_10  and  O_11
REMARK    2  A    between atoms: O_11  and  C_12
REMARK    3  A    between atoms: C_12  and  C_13
REMARK    4  A    between atoms: C_13  and  C_15
REMARK    5  A    between atoms: C_13  and  O_34
REMARK    6  A    between atoms: C_15  and  N_16
REMARK    7  A    between atoms: C_25  and  C_27
REMARK                            x       y       z     vdW  Elec       q    Type
REMARK                         _______ _______ _______ _____ _____    ______ ____
ROOT
ATOM      1  N   UNL     1      10.068   0.043  -0.217  0.00  0.00    -0.226 N 
ATOM      2  C   UNL     1      10.302   0.667   0.956  0.00  0.00    +0.275 A 
ATOM      3  O   UNL     1       9.915   0.182   2.003  0.00  0.00    -0.266 OA
ATOM      4  C   UNL     1      11.031   1.942   0.949  0.00  0.00    +0.050 A 
ATOM      5  C   UNL     1      11.307   2.639   2.124  0.00  0.00    +0.014 A 
ATOM      6  C   UNL     1      11.996   3.831   2.062  0.00  0.00    +0.001 A 
ATOM      7  C   UNL     1      12.417   4.342   0.841  0.00  0.00    +0.001 A 
ATOM      8  C   UNL     1      12.155   3.670  -0.332  0.00  0.00    +0.011 A 
ATOM      9  C   UNL     1      11.459   2.462  -0.292  0.00  0.00    +0.015 A 
ATOM     10  C   UNL     1      11.154   1.704  -1.514  0.00  0.00    +0.099 A 
ATOM     11  N   UNL     1      10.504   0.571  -1.432  0.00  0.00    -0.168 NA
ENDROOT
BRANCH  10  12
ATOM     12  C   UNL     1      11.587   2.217  -2.835  0.00  0.00    +0.003 A 
ATOM     13  C   UNL     1      12.094   1.341  -3.794  0.00  0.00    +0.013 A 
ATOM     14  C   UNL     1      12.495   1.825  -5.022  0.00  0.00    +0.039 A 
ATOM     15  C   UNL     1      12.396   3.178  -5.303  0.00  0.00    +0.123 A 
ATOM     16  C   UNL     1      11.893   4.052  -4.353  0.00  0.00    +0.039 A 
ATOM     17  C   UNL     1      11.483   3.578  -3.124  0.00  0.00    +0.013 A 
ATOM     18  F   UNL     1      12.790   3.646  -6.508  0.00  0.00    -0.205 F 
ENDBRANCH  10  12
BRANCH   1  19
ATOM     19  C   UNL     1       9.341  -1.229  -0.213  0.00  0.00    +0.182 C 
BRANCH  19  20
ATOM     20  C   UNL     1       7.841  -0.959  -0.349  0.00  0.00    +0.173 C 
BRANCH  20  21
ATOM     21  O   UNL     1       7.400  -0.155   0.747  0.00  0.00    -0.387 OA
ATOM     22  H   UNL     1       7.539  -0.561   1.613  0.00  0.00    +0.210 HD
ENDBRANCH  20  21
BRANCH  20  23
ATOM     23  C   UNL     1       7.081  -2.287  -0.345  0.00  0.00    +0.262 C 
BRANCH  23  24
ATOM     24  O   UNL     1       5.694  -2.044  -0.589  0.00  0.00    -0.489 OA
BRANCH  24  34
ATOM     25  C   UNL     1       0.771  -2.698  -1.310  0.00  0.00    +0.001 A 
ATOM     26  C   UNL     1       1.596  -1.575  -1.284  0.00  0.00    +0.001 A 
ATOM     27  C   UNL     1       2.934  -1.693  -1.060  0.00  0.00    +0.012 A 
ATOM     28  C   UNL     1       3.494  -2.964  -0.853  0.00  0.00    +0.024 A 
ATOM     29  C   UNL     1       2.656  -4.106  -0.879  0.00  0.00    -0.014 A 
ATOM     30  C   UNL     1       1.279  -3.945  -1.113  0.00  0.00    +0.008 A 
ATOM     31  C   UNL     1       3.216  -5.378  -0.671  0.00  0.00    +0.009 A 
ATOM     32  C   UNL     1       4.554  -5.498  -0.446  0.00  0.00    +0.004 A 
ATOM     33  C   UNL     1       5.381  -4.379  -0.419  0.00  0.00    +0.046 A 
ATOM     34  C   UNL     1       4.874  -3.126  -0.618  0.00  0.00    +0.128 A 
ENDBRANCH  24  34
ENDBRANCH  23  24
ENDBRANCH  20  23
ENDBRANCH  19  20
ENDBRANCH   1  19
TORSDOF 7
