REMARK  Name = ZINC01755420
REMARK  7 active torsions:
REMARK  status: ('A' for Active; 'I' for Inactive)
REMARK    1  A    between atoms: C_1  and  C_2
REMARK    2  A    between atoms: C_6  and  N_8
REMARK    3  A    between atoms: C_17  and  S_18
REMARK    4  A    between atoms: S_18  and  C_19
REMARK    5  A    between atoms: C_19  and  C_20
REMARK    6  A    between atoms: C_32  and  C_33
REMARK    7  A    between atoms: C_32  and  N_66
REMARK                            x       y       z     vdW  Elec       q    Type
REMARK                         _______ _______ _______ _____ _____    ______ ____
ROOT
ATOM      1  N   UNL     1       5.065   6.324  -7.137  0.00  0.00    -0.255 N 
ATOM      2  C   UNL     1       5.063   5.508  -6.056  0.00  0.00    +0.268 A 
ATOM      3  O   UNL     1       6.087   5.010  -5.620  0.00  0.00    -0.267 OA
ATOM      4  C   UNL     1       3.784   5.266  -5.457  0.00  0.00    +0.076 A 
ATOM      5  C   UNL     1       3.510   4.436  -4.298  0.00  0.00    -0.026 A 
ATOM      6  C   UNL     1       2.218   4.349  -3.902  0.00  0.00    -0.021 A 
ATOM      7  S   UNL     1       1.314   5.362  -5.043  0.00  0.00    -0.075 S 
ATOM      8  C   UNL     1       2.664   5.897  -6.047  0.00  0.00    +0.117 A 
ATOM      9  N   UNL     1       2.734   6.689  -7.110  0.00  0.00    -0.215 NA
ATOM     10  C   UNL     1       3.932   6.891  -7.640  0.00  0.00    +0.178 A 
ATOM     11  C   UNL     1       1.690   3.560  -2.745  0.00  0.00    -0.035 C 
ATOM     12  C   UNL     1       4.024   3.298  -2.158  0.00  0.00    -0.073 C 
ATOM     13  C   UNL     1       4.589   3.677  -3.529  0.00  0.00    +0.018 C 
ATOM     14  N   UNL     1       2.738   2.594  -2.336  0.00  0.00    +0.386 N 
ATOM     15  H   UNL     1       2.844   1.885  -3.071  0.00  0.00    -0.081 HD
ENDROOT
BRANCH   1  21
ATOM     16  C   UNL     1       8.426   5.174 -10.538  0.00  0.00    +0.044 C 
ATOM     17  C   UNL     1       7.939   6.056  -9.418  0.00  0.00    -0.048 A 
ATOM     18  C   UNL     1       8.698   7.138  -9.010  0.00  0.00    +0.003 A 
ATOM     19  C   UNL     1       8.255   7.949  -7.983  0.00  0.00    +0.002 A 
ATOM     20  C   UNL     1       7.049   7.685  -7.363  0.00  0.00    +0.026 A 
ATOM     21  C   UNL     1       6.287   6.597  -7.766  0.00  0.00    +0.052 A 
ATOM     22  C   UNL     1       6.735   5.784  -8.799  0.00  0.00    +0.029 A 
ENDBRANCH   1  21
BRANCH  10  23
ATOM     23  S   UNL     1       4.066   7.936  -9.053  0.00  0.00    -0.083 S 
BRANCH  23  24
ATOM     24  C   UNL     1       2.327   8.390  -9.273  0.00  0.00    +0.112 C 
BRANCH  24  25
ATOM     25  C   UNL     1       2.195   9.309 -10.460  0.00  0.00    -0.033 A 
ATOM     26  C   UNL     1       2.285  10.678 -10.287  0.00  0.00    +0.008 A 
ATOM     27  C   UNL     1       2.170  11.524 -11.374  0.00  0.00    +0.050 A 
ATOM     28  C   UNL     1       1.951  11.003 -12.639  0.00  0.00    +0.166 A 
ATOM     29  C   UNL     1       1.855   9.624 -12.813  0.00  0.00    +0.167 A 
ATOM     30  C   UNL     1       1.977   8.782 -11.720  0.00  0.00    +0.054 A 
ATOM     31  O   UNL     1       1.641   9.365 -14.136  0.00  0.00    -0.453 OA
ATOM     32  C   UNL     1       1.200  10.612 -14.705  0.00  0.00    +0.466 C 
ATOM     33  O   UNL     1       1.798  11.607 -13.853  0.00  0.00    -0.453 OA
ENDBRANCH  24  25
ENDBRANCH  23  24
ENDBRANCH  10  23
BRANCH  14  34
ATOM     34  C   UNL     1       2.347   1.927  -1.076  0.00  0.00    -0.043 C 
BRANCH  34  35
ATOM     35  C   UNL     1       0.923   1.445  -1.192  0.00  0.00    -0.064 A 
ATOM     36  C   UNL     1       0.658   0.186  -1.696  0.00  0.00    +0.002 A 
ATOM     37  C   UNL     1      -0.647  -0.255  -1.802  0.00  0.00    +0.000 A 
ATOM     38  C   UNL     1      -1.688   0.565  -1.409  0.00  0.00    +0.000 A 
ATOM     39  C   UNL     1      -1.423   1.822  -0.899  0.00  0.00    +0.000 A 
ATOM     40  C   UNL     1      -0.117   2.263  -0.792  0.00  0.00    +0.002 A 
ENDBRANCH  34  35
ENDBRANCH  14  34
TORSDOF 6
