REMARK  Name = ZINC20323691
REMARK  10 active torsions:
REMARK  status: ('A' for Active; 'I' for Inactive)
REMARK    1  A    between atoms: C_1  and  C_2
REMARK    2  A    between atoms: C_5  and  S_8
REMARK    3  A    between atoms: S_8  and  N_11
REMARK    4  A    between atoms: N_11  and  N_12
REMARK    5  A    between atoms: C_14  and  C_25
REMARK    6  A    between atoms: C_20  and  O_23
REMARK    7  A    between atoms: O_23  and  C_24
REMARK    8  A    between atoms: N_27  and  C_28
REMARK    9  A    between atoms: C_32  and  C_35
REMARK   10  A    between atoms: C_33  and  C_34
REMARK                            x       y       z     vdW  Elec       q    Type
REMARK                         _______ _______ _______ _____ _____    ______ ____
ROOT
ATOM      1  N   UNL     1      -2.401  -2.843  -0.124  0.00  0.00    -0.260 N 
ATOM      2  C   UNL     1      -1.242  -2.410   0.286  0.00  0.00    +0.225 A 
ATOM      3  C   UNL     1      -0.038  -3.269   0.218  0.00  0.00    +0.099 A 
ATOM      4  C   UNL     1       1.179  -2.639   0.120  0.00  0.00    +0.030 A 
ATOM      5  C   UNL     1       1.185  -1.171   0.090  0.00  0.00    +0.022 A 
ATOM      6  C   UNL     1       2.339  -0.469  -0.276  0.00  0.00    +0.012 A 
ATOM      7  C   UNL     1       2.321   0.908  -0.302  0.00  0.00    +0.004 A 
ATOM      8  C   UNL     1       1.169   1.602   0.032  0.00  0.00    +0.049 A 
ATOM      9  C   UNL     1       0.019   0.921   0.399  0.00  0.00    +0.163 A 
ATOM     10  C   UNL     1       0.018  -0.468   0.431  0.00  0.00    +0.179 A 
ATOM     11  O   UNL     1      -1.100  -1.150   0.792  0.00  0.00    -0.434 OA
ATOM     12  H   UNL     1      -2.481  -3.829  -0.606  0.00  0.00    +0.189 HD
ENDROOT
BRANCH   3  13
ATOM     13  C   UNL     1      -0.140  -4.738   0.254  0.00  0.00    +0.253 C 
ATOM     14  O   UNL     1      -1.233  -5.272   0.238  0.00  0.00    -0.270 OA
ATOM     15  N   UNL     1       0.977  -5.490   0.305  0.00  0.00    -0.281 N 
ATOM     16  H   UNL     1       1.961  -5.008   0.401  0.00  0.00    +0.155 HD
BRANCH  15  17
ATOM     17  C   UNL     1       0.885  -6.884   0.234  0.00  0.00    +0.037 A 
ATOM     18  C   UNL     1      -0.254  -7.481  -0.292  0.00  0.00    +0.023 A 
ATOM     19  C   UNL     1      -0.342  -8.857  -0.360  0.00  0.00    +0.002 A 
ATOM     20  C   UNL     1       0.703  -9.641   0.096  0.00  0.00    +0.004 A 
ATOM     21  C   UNL     1       1.837  -9.050   0.620  0.00  0.00    -0.046 A 
ATOM     22  C   UNL     1       1.934  -7.674   0.686  0.00  0.00    -0.026 A 
ATOM     23  C   UNL     1       3.173  -7.031   1.252  0.00  0.00    +0.046 C 
ATOM     24  C   UNL     1       2.972  -9.909   1.115  0.00  0.00    +0.044 C 
ENDBRANCH  15  17
ENDBRANCH   3  13
BRANCH   1  25
ATOM     25  N   UNL     1      -3.545  -2.053   0.048  0.00  0.00    -0.157 N 
ATOM     26  H   UNL     1      -3.465  -1.155   0.406  0.00  0.00    +0.194 HD
BRANCH  25  27
ATOM     27  S   UNL     1      -5.034  -2.652  -0.359  0.00  0.00    +0.085 S 
ATOM     28  O   UNL     1      -5.988  -1.681   0.050  0.00  0.00    -0.149 OA
ATOM     29  O   UNL     1      -4.936  -3.104  -1.702  0.00  0.00    -0.149 OA
BRANCH  27  34
ATOM     30  C   UNL     1      -5.980  -7.543   3.045  0.00  0.00    +0.044 C 
ATOM     31  C   UNL     1      -5.745  -6.321   2.194  0.00  0.00    -0.050 A 
ATOM     32  C   UNL     1      -6.041  -5.066   2.691  0.00  0.00    +0.005 A 
ATOM     33  C   UNL     1      -5.824  -3.945   1.911  0.00  0.00    +0.029 A 
ATOM     34  C   UNL     1      -5.311  -4.080   0.635  0.00  0.00    +0.110 A 
ATOM     35  C   UNL     1      -5.019  -5.336   0.136  0.00  0.00    +0.029 A 
ATOM     36  C   UNL     1      -5.232  -6.456   0.918  0.00  0.00    +0.005 A 
ENDBRANCH  27  34
ENDBRANCH  25  27
ENDBRANCH   1  25
BRANCH   9  37
ATOM     37  O   UNL     1      -1.108   1.611   0.720  0.00  0.00    -0.491 OA
ATOM     38  C   UNL     1      -1.034   3.037   0.664  0.00  0.00    +0.277 C 
ENDBRANCH   9  37
TORSDOF 6
