REMARK  Name = ZINC35545159
REMARK  8 active torsions:
REMARK  status: ('A' for Active; 'I' for Inactive)
REMARK    1  A    between atoms: C_1  and  C_2
REMARK    2  A    between atoms: C_2  and  C_3
REMARK    3  A    between atoms: C_3  and  C_5
REMARK    4  A    between atoms: C_3  and  N_6
REMARK    5  A    between atoms: C_7  and  C_9
REMARK    6  A    between atoms: C_14  and  C_33
REMARK    7  A    between atoms: N_22  and  C_25
REMARK    8  A    between atoms: C_30  and  C_31
REMARK                            x       y       z     vdW  Elec       q    Type
REMARK                         _______ _______ _______ _____ _____    ______ ____
ROOT
ATOM      1  C   UNL     1      -0.234   0.422  -4.849  0.00  0.00    +0.101 C 
ATOM      2  C   UNL     1      -0.895   1.778  -4.605  0.00  0.00    +0.051 C 
ATOM      3  C   UNL     1      -1.617   2.196  -5.860  0.00  0.00    -0.025 A 
ATOM      4  C   UNL     1      -2.737   3.002  -5.767  0.00  0.00    +0.017 A 
ATOM      5  C   UNL     1      -3.413   3.382  -6.911  0.00  0.00    +0.055 A 
ATOM      6  C   UNL     1      -2.971   2.957  -8.151  0.00  0.00    +0.014 A 
ATOM      7  C   UNL     1      -1.851   2.156  -8.249  0.00  0.00    +0.024 A 
ATOM      8  C   UNL     1      -1.166   1.776  -7.098  0.00  0.00    +0.033 A 
ATOM      9  N   UNL     1      -0.015   0.981  -7.233  0.00  0.00    -0.323 N 
ATOM     10  C   UNL     1       0.699   0.508  -6.060  0.00  0.00    +0.103 C 
ATOM     11  C   UNL     1       1.351  -0.851  -6.259  0.00  0.00    +0.128 C 
ATOM     12  N   UNL     1       1.797  -1.073  -7.620  0.00  0.00    -0.326 N 
ATOM     13  C   UNL     1       1.014  -0.667  -8.776  0.00  0.00    +0.124 C 
ATOM     14  C   UNL     1       0.439   0.718  -8.598  0.00  0.00    +0.124 C 
ENDROOT
BRANCH  12  15
ATOM     15  C   UNL     1       3.022  -1.696  -7.829  0.00  0.00    +0.047 A 
ATOM     16  C   UNL     1       3.091  -3.078  -7.944  0.00  0.00    +0.024 A 
ATOM     17  C   UNL     1       4.308  -3.695  -8.151  0.00  0.00    +0.002 A 
ATOM     18  C   UNL     1       5.469  -2.943  -8.245  0.00  0.00    +0.001 A 
ATOM     19  C   UNL     1       5.420  -1.571  -8.133  0.00  0.00    +0.021 A 
ATOM     20  C   UNL     1       4.195  -0.931  -7.930  0.00  0.00    +0.073 A 
BRANCH  20  21
ATOM     21  C   UNL     1       4.136   0.495  -7.819  0.00  0.00    +0.101 C 
ATOM     22  N   UNL     1       4.090   1.627  -7.731  0.00  0.00    -0.191 NA
ENDBRANCH  20  21
ENDBRANCH  12  15
BRANCH   1  24
ATOM     23  N   UNL     1      -0.055  -0.114  -2.441  0.00  0.00    -0.312 N 
ATOM     24  C   UNL     1       0.561   0.028  -3.631  0.00  0.00    +0.218 C 
ATOM     25  O   UNL     1       1.755  -0.162  -3.722  0.00  0.00    -0.275 OA
ATOM     26  H   UNL     1      -1.010   0.038  -2.368  0.00  0.00    +0.149 HD
BRANCH  23  27
ATOM     27  C   UNL     1       0.718  -0.497  -1.257  0.00  0.00    +0.070 C 
ATOM     28  C   UNL     1       0.849  -2.021  -1.205  0.00  0.00    +0.028 C 
BRANCH  27  30
ATOM     29  C   UNL     1      -0.019   1.526   0.010  0.00  0.00    +0.005 C 
ATOM     30  C   UNL     1       0.002  -0.004   0.002  0.00  0.00    +0.018 C 
ENDBRANCH  27  30
ENDBRANCH  23  27
ENDBRANCH   1  24
BRANCH   5  31
ATOM     31  C   UNL     1      -4.633   4.261  -6.808  0.00  0.00    +0.417 C 
ATOM     32  F   UNL     1      -4.247   5.604  -6.871  0.00  0.00    -0.166 F 
ATOM     33  F   UNL     1      -5.504   3.975  -7.865  0.00  0.00    -0.166 F 
ATOM     34  F   UNL     1      -5.281   4.018  -5.592  0.00  0.00    -0.166 F 
ENDBRANCH   5  31
TORSDOF 6
