REMARK  Name = ZINC13092537
REMARK  12 active torsions:
REMARK  status: ('A' for Active; 'I' for Inactive)
REMARK    1  A    between atoms: C_1  and  C_2
REMARK    2  A    between atoms: C_2  and  O_3
REMARK    3  A    between atoms: O_3  and  C_4
REMARK    4  A    between atoms: C_6  and  C_17
REMARK    5  A    between atoms: C_9  and  O_10
REMARK    6  A    between atoms: O_10  and  C_11
REMARK    7  A    between atoms: C_11  and  C_12
REMARK    8  A    between atoms: N_21  and  C_25
REMARK    9  A    between atoms: C_25  and  C_26
REMARK   10  A    between atoms: C_26  and  C_27
REMARK   11  A    between atoms: C_27  and  C_28
REMARK   12  A    between atoms: C_28  and  C_29
REMARK                            x       y       z     vdW  Elec       q    Type
REMARK                         _______ _______ _______ _____ _____    ______ ____
ROOT
ATOM      1  C   UNL     1       2.298   1.416   0.434  0.00  0.00    +0.162 A 
ATOM      2  C   UNL     1       2.350   0.037   0.377  0.00  0.00    +0.057 A 
ATOM      3  C   UNL     1       1.200  -0.689   0.041  0.00  0.00    -0.020 A 
ATOM      4  C   UNL     1       0.006  -0.012  -0.234  0.00  0.00    +0.012 A 
ATOM      5  C   UNL     1      -0.036   1.363  -0.174  0.00  0.00    +0.050 A 
ATOM      6  C   UNL     1       1.105   2.082   0.159  0.00  0.00    +0.162 A 
ENDROOT
BRANCH   3   7
ATOM      7  C   UNL     1       1.248  -2.155  -0.022  0.00  0.00    +0.028 C 
ATOM      8  C   UNL     1       0.189  -2.848  -0.513  0.00  0.00    +0.077 C 
ATOM      9  C   UNL     1      -0.052  -4.304  -0.539  0.00  0.00    +0.258 C 
ATOM     10  O   UNL     1       0.752  -5.094  -0.081  0.00  0.00    -0.269 OA
ATOM     11  N   UNL     1      -1.189  -4.707  -1.083  0.00  0.00    -0.255 N 
ATOM     12  C   UNL     1      -2.074  -3.829  -1.597  0.00  0.00    +0.121 C 
ATOM     13  S   UNL     1      -3.581  -4.152  -2.343  0.00  0.00    -0.027 S 
ATOM     14  S   UNL     1      -1.294  -2.248  -1.312  0.00  0.00    -0.061 S 
BRANCH  11  15
ATOM     15  C   UNL     1      -1.490  -6.140  -1.134  0.00  0.00    +0.115 C 
BRANCH  15  16
ATOM     16  C   UNL     1      -0.940  -6.731  -2.434  0.00  0.00    +0.020 C 
BRANCH  16  17
ATOM     17  C   UNL     1      -1.255  -8.227  -2.487  0.00  0.00    +0.013 C 
BRANCH  17  18
ATOM     18  C   UNL     1      -0.705  -8.818  -3.787  0.00  0.00    +0.125 C 
BRANCH  18  19
ATOM     19  C   UNL     1      -1.015 -10.292  -3.839  0.00  0.00    +0.356 C 
ATOM     20  O   UNL     1      -1.614 -10.816  -2.930  0.00  0.00    -0.246 OA
ATOM     21  O   UNL     1      -0.626 -11.022  -4.896  0.00  0.00    -0.246 OA
ENDBRANCH  18  19
ENDBRANCH  17  18
ENDBRANCH  16  17
ENDBRANCH  15  16
ENDBRANCH  11  15
ENDBRANCH   3   7
BRANCH   1  22
ATOM     22  O   UNL     1       3.412   2.125   0.760  0.00  0.00    -0.489 OA
BRANCH  22  24
ATOM     23  C   UNL     1       5.739   2.339   1.377  0.00  0.00    +0.048 C 
ATOM     24  C   UNL     1       4.600   1.378   1.031  0.00  0.00    +0.226 C 
ENDBRANCH  22  24
ENDBRANCH   1  22
BRANCH   6  25
ATOM     25  O   UNL     1       1.058   3.439   0.216  0.00  0.00    -0.483 OA
BRANCH  25  26
ATOM     26  C   UNL     1      -0.197   4.057  -0.078  0.00  0.00    +0.271 C 
BRANCH  26  27
ATOM     27  C   UNL     1      -0.058   5.553   0.035  0.00  0.00    +0.027 A 
ATOM     28  C   UNL     1       0.285   6.453  -0.919  0.00  0.00    +0.014 A 
ATOM     29  C   UNL     1       0.350   7.793  -0.585  0.00  0.00    +0.008 A 
ATOM     30  C   UNL     1       0.068   8.167   0.687  0.00  0.00    +0.045 A 
ATOM     31  S   UNL     1      -0.310   6.602   1.457  0.00  0.00    -0.098 S 
ENDBRANCH  26  27
ENDBRANCH  25  26
ENDBRANCH   6  25
TORSDOF 11
