REMARK  Name = ZINC28056223
REMARK  2 active torsions:
REMARK  status: ('A' for Active; 'I' for Inactive)
REMARK    1  A    between atoms: C_9  and  C_17
REMARK    2  A    between atoms: C_24  and  C_27
REMARK                            x       y       z     vdW  Elec       q    Type
REMARK                         _______ _______ _______ _____ _____    ______ ____
ROOT
ATOM      1  C   UNL     1       1.247  -4.974   0.445  0.00  0.00    +0.001 A 
ATOM      2  C   UNL     1       1.169  -4.687  -0.907  0.00  0.00    +0.004 A 
ATOM      3  C   UNL     1       0.360  -3.660  -1.361  0.00  0.00    +0.046 A 
ATOM      4  C   UNL     1      -0.375  -2.915  -0.459  0.00  0.00    +0.131 A 
ATOM      5  C   UNL     1      -0.299  -3.207   0.909  0.00  0.00    +0.038 A 
ATOM      6  C   UNL     1       0.516  -4.239   1.358  0.00  0.00    +0.013 A 
ATOM      7  C   UNL     1      -1.110  -2.395   1.848  0.00  0.00    +0.050 C 
ATOM      8  C   UNL     1      -1.595  -1.227   1.421  0.00  0.00    +0.025 C 
ATOM      9  C   UNL     1      -2.436  -0.333   2.299  0.00  0.00    +0.174 C 
ATOM     10  N   UNL     1      -2.862  -1.056   3.488  0.00  0.00    -0.201 N 
ATOM     11  C   UNL     1      -2.339  -2.248   3.878  0.00  0.00    +0.240 A 
ATOM     12  N   UNL     1      -2.940  -2.595   4.979  0.00  0.00    -0.092 NA
ATOM     13  N   UNL     1      -3.814  -1.707   5.309  0.00  0.00    -0.021 NA
ATOM     14  N   UNL     1      -3.824  -0.742   4.447  0.00  0.00    -0.042 NA
ATOM     15  N   UNL     1      -1.348  -2.876   3.141  0.00  0.00    -0.282 N 
ATOM     16  C   UNL     1      -1.293  -0.775   0.010  0.00  0.00    +0.234 C 
ATOM     17  O   UNL     1      -1.177  -1.898  -0.863  0.00  0.00    -0.479 OA
ATOM     18  H   UNL     1      -0.759  -3.719   3.531  0.00  0.00    +0.155 HD
ENDROOT
BRANCH   9  19
ATOM     19  C   UNL     1      -1.622   0.868   2.709  0.00  0.00    -0.016 A 
ATOM     20  C   UNL     1      -0.461   0.699   3.440  0.00  0.00    +0.006 A 
ATOM     21  C   UNL     1       0.289   1.799   3.813  0.00  0.00    +0.003 A 
ATOM     22  C   UNL     1      -0.128   3.070   3.464  0.00  0.00    +0.038 A 
ATOM     23  C   UNL     1      -1.294   3.240   2.737  0.00  0.00    +0.124 A 
ATOM     24  C   UNL     1      -2.041   2.137   2.360  0.00  0.00    +0.044 A 
ATOM     25  F   UNL     1      -1.702   4.482   2.397  0.00  0.00    -0.205 F 
ENDBRANCH   9  19
BRANCH  16  26
ATOM     26  C   UNL     1       0.002  -0.004   0.002  0.00  0.00    -0.000 A 
ATOM     27  C   UNL     1       1.206  -0.674   0.122  0.00  0.00    +0.008 A 
ATOM     28  C   UNL     1       2.394   0.032   0.114  0.00  0.00    +0.003 A 
ATOM     29  C   UNL     1       2.381   1.408  -0.013  0.00  0.00    +0.038 A 
ATOM     30  C   UNL     1       1.176   2.080  -0.133  0.00  0.00    +0.124 A 
ATOM     31  C   UNL     1      -0.014   1.372  -0.125  0.00  0.00    +0.046 A 
ATOM     32  F   UNL     1       1.161   3.425  -0.257  0.00  0.00    -0.205 F 
ENDBRANCH  16  26
TORSDOF 2
