REMARK  Name = ZINC09498454
REMARK  8 active torsions:
REMARK  status: ('A' for Active; 'I' for Inactive)
REMARK    1  A    between atoms: C_4  and  C_7
REMARK    2  A    between atoms: C_7  and  C_8
REMARK    3  A    between atoms: C_7  and  N_61
REMARK    4  A    between atoms: C_14  and  C_15
REMARK    5  A    between atoms: C_14  and  N_61
REMARK    6  A    between atoms: N_17  and  C_18
REMARK    7  A    between atoms: C_20  and  S_25
REMARK    8  A    between atoms: S_25  and  N_28
REMARK                            x       y       z     vdW  Elec       q    Type
REMARK                         _______ _______ _______ _____ _____    ______ ____
ROOT
ATOM      1  C   UNL     1       6.585   1.326  -2.116  0.00  0.00    +0.200 C 
ATOM      2  O   UNL     1       6.200   1.599  -0.998  0.00  0.00    -0.278 OA
ATOM      3  N   UNL     1       6.216   0.164  -2.691  0.00  0.00    -0.286 N 
ATOM      4  H   UNL     1       6.587  -0.091  -3.550  0.00  0.00    +0.155 HD
ENDROOT
BRANCH   3   5
ATOM      5  C   UNL     1       5.299  -0.675  -2.048  0.00  0.00    +0.054 A 
ATOM      6  C   UNL     1       4.394  -0.147  -1.136  0.00  0.00    +0.053 A 
ATOM      7  C   UNL     1       3.490  -0.978  -0.503  0.00  0.00    +0.107 A 
ATOM      8  C   UNL     1       3.487  -2.334  -0.772  0.00  0.00    +0.030 A 
ATOM      9  C   UNL     1       4.383  -2.862  -1.684  0.00  0.00    +0.024 A 
ATOM     10  C   UNL     1       5.290  -2.037  -2.321  0.00  0.00    +0.062 A 
ATOM     11 CL   UNL     1       6.419  -2.702  -3.461  0.00  0.00    -0.082 Cl
BRANCH   7  12
ATOM     12  S   UNL     1       2.342  -0.309   0.654  0.00  0.00    +0.061 S 
ATOM     13  O   UNL     1       2.912   0.898   1.141  0.00  0.00    -0.153 OA
ATOM     14  O   UNL     1       1.965  -1.375   1.515  0.00  0.00    -0.153 OA
BRANCH  12  15
ATOM     15  N   UNL     1       0.984   0.118  -0.193  0.00  0.00    -0.177 NA
ATOM     16  C   UNL     1      -0.110  -0.843  -0.386  0.00  0.00    +0.109 C 
ATOM     17  C   UNL     1      -0.418  -0.945  -1.884  0.00  0.00    +0.017 C 
ATOM     18  C   UNL     1      -0.703   0.452  -2.438  0.00  0.00    +0.003 C 
ATOM     19  C   UNL     1       0.533   1.337  -2.259  0.00  0.00    +0.017 C 
ATOM     20  C   UNL     1       0.852   1.464  -0.765  0.00  0.00    +0.109 C 
ENDBRANCH  12  15
ENDBRANCH   7  12
ENDBRANCH   3   5
BRANCH   1  21
ATOM     21  C   UNL     1       7.474   2.287  -2.862  0.00  0.00    +0.016 C 
BRANCH  21  22
ATOM     22  N   UNL     1       7.724   3.470  -2.017  0.00  0.00    +0.392 N 
ATOM     23  H   UNL     1       6.830   3.923  -1.795  0.00  0.00    -0.084 HD
ATOM     24  H   UNL     1       8.183   3.174  -1.147  0.00  0.00    -0.084 HD
BRANCH  22  25
ATOM     25  C   UNL     1       8.594   4.429  -2.723  0.00  0.00    -0.009 C 
BRANCH  25  29
ATOM     26  C   UNL     1       7.910   8.349  -1.168  0.00  0.00    +0.000 A 
ATOM     27  C   UNL     1       8.097   8.166  -2.526  0.00  0.00    +0.000 A 
ATOM     28  C   UNL     1       8.319   6.898  -3.029  0.00  0.00    +0.002 A 
ATOM     29  C   UNL     1       8.353   5.812  -2.174  0.00  0.00    -0.057 A 
ATOM     30  C   UNL     1       8.161   5.994  -0.818  0.00  0.00    +0.002 A 
ATOM     31  C   UNL     1       7.944   7.263  -0.314  0.00  0.00    +0.000 A 
ENDBRANCH  25  29
BRANCH  25  32
ATOM     32  C   UNL     1      10.037   4.050  -2.511  0.00  0.00    -0.057 A 
ATOM     33  C   UNL     1      10.460   3.601  -1.274  0.00  0.00    +0.002 A 
ATOM     34  C   UNL     1      11.783   3.248  -1.082  0.00  0.00    +0.000 A 
ATOM     35  C   UNL     1      12.685   3.354  -2.124  0.00  0.00    +0.000 A 
ATOM     36  C   UNL     1      12.263   3.808  -3.360  0.00  0.00    +0.000 A 
ATOM     37  C   UNL     1      10.940   4.156  -3.554  0.00  0.00    +0.002 A 
ENDBRANCH  25  32
ENDBRANCH  22  25
ENDBRANCH  21  22
ENDBRANCH   1  21
TORSDOF 8
