REMARK  Name = ZINC00698392
REMARK  11 active torsions:
REMARK  status: ('A' for Active; 'I' for Inactive)
REMARK    1  A    between atoms: C_1  and  C_2
REMARK    2  A    between atoms: C_2  and  C_3
REMARK    3  A    between atoms: C_4  and  C_31
REMARK    4  A    between atoms: C_5  and  N_10
REMARK    5  A    between atoms: C_7  and  C_9
REMARK    6  A    between atoms: N_13  and  S_16
REMARK    7  A    between atoms: S_16  and  C_19
REMARK    8  A    between atoms: C_19  and  C_20
REMARK    9  A    between atoms: C_25  and  C_26
REMARK   10  A    between atoms: C_25  and  C_27
REMARK   11  A    between atoms: C_31  and  C_32
REMARK                            x       y       z     vdW  Elec       q    Type
REMARK                         _______ _______ _______ _____ _____    ______ ____
ROOT
ATOM      1  N   UNL     1       8.631   1.329  -1.085  0.00  0.00    -0.312 N 
ATOM      2  C   UNL     1       7.317   1.976  -1.203  0.00  0.00    +0.123 C 
ATOM      3  C   UNL     1       7.058   2.830   0.043  0.00  0.00    +0.128 C 
ATOM      4  N   UNL     1       7.230   1.984   1.233  0.00  0.00    -0.178 NA
ATOM      5  C   UNL     1       8.469   1.201   1.357  0.00  0.00    +0.128 C 
ATOM      6  C   UNL     1       8.670   0.407   0.057  0.00  0.00    +0.123 C 
ENDROOT
BRANCH   1   9
ATOM      7  C   UNL     1      10.291   0.493  -4.238  0.00  0.00    +0.050 A 
ATOM      8  C   UNL     1       9.985   1.180  -3.079  0.00  0.00    +0.018 A 
ATOM      9  C   UNL     1       8.972   0.680  -2.260  0.00  0.00    +0.129 A 
ATOM     10  N   UNL     1       8.335  -0.428  -2.629  0.00  0.00    -0.217 NA
ATOM     11  C   UNL     1       8.656  -1.048  -3.746  0.00  0.00    +0.128 A 
ATOM     12  N   UNL     1       9.612  -0.604  -4.538  0.00  0.00    -0.237 NA
ATOM     13  C   UNL     1       7.911  -2.301  -4.129  0.00  0.00    +0.088 C 
BRANCH   7  15
ATOM     14  C   UNL     1      10.770   1.866  -6.247  0.00  0.00    +0.010 C 
ATOM     15  C   UNL     1      11.382   0.989  -5.153  0.00  0.00    +0.052 C 
ENDBRANCH   7  15
BRANCH   8  16
ATOM     16  C   UNL     1      10.731   2.436  -2.706  0.00  0.00    +0.075 C 
BRANCH  16  17
ATOM     17  C   UNL     1      11.904   2.081  -1.829  0.00  0.00    -0.040 A 
ATOM     18  C   UNL     1      11.721   1.901  -0.470  0.00  0.00    +0.004 A 
ATOM     19  C   UNL     1      12.795   1.571   0.335  0.00  0.00    +0.003 A 
ATOM     20  C   UNL     1      14.055   1.431  -0.215  0.00  0.00    +0.038 A 
ATOM     21  C   UNL     1      14.240   1.616  -1.575  0.00  0.00    +0.124 A 
ATOM     22  C   UNL     1      13.162   1.942  -2.381  0.00  0.00    +0.042 A 
ATOM     23  F   UNL     1      15.471   1.480  -2.114  0.00  0.00    -0.205 F 
ENDBRANCH  16  17
ENDBRANCH   8  16
ENDBRANCH   1   9
BRANCH   4  24
ATOM     24  S   UNL     1       6.062   1.919   2.406  0.00  0.00    +0.033 S 
ATOM     25  O   UNL     1       5.382   3.163   2.309  0.00  0.00    -0.158 OA
ATOM     26  O   UNL     1       6.759   1.565   3.592  0.00  0.00    -0.158 OA
BRANCH  24  27
ATOM     27  C   UNL     1       4.966   0.566   1.898  0.00  0.00    +0.200 C 
BRANCH  27  28
ATOM     28  C   UNL     1       3.837   0.414   2.919  0.00  0.00    +0.055 C 
ATOM     29  C   UNL     1       2.893   1.645   3.078  0.00  0.00    +0.017 C 
ATOM     30  C   UNL     1       1.611   1.071   3.725  0.00  0.00    +0.005 C 
ATOM     31  C   UNL     1       1.910  -0.449   3.901  0.00  0.00    +0.003 C 
ATOM     32  C   UNL     1       2.791  -0.720   2.630  0.00  0.00    -0.018 C 
ATOM     33  C   UNL     1       3.428  -2.111   2.656  0.00  0.00    +0.012 C 
ATOM     34  C   UNL     1       2.019  -0.475   1.332  0.00  0.00    +0.012 C 
ATOM     35  C   UNL     1       3.004  -0.501   5.012  0.00  0.00    +0.079 C 
ATOM     36  C   UNL     1       4.256   0.061   4.353  0.00  0.00    +0.142 C 
ATOM     37  O   UNL     1       5.347   0.200   4.853  0.00  0.00    -0.297 OA
ENDBRANCH  27  28
ENDBRANCH  24  27
ENDBRANCH   4  24
TORSDOF 7
