REMARK  Name = ZINC63908138
REMARK  10 active torsions:
REMARK  status: ('A' for Active; 'I' for Inactive)
REMARK    1  A    between atoms: C_1  and  N_2
REMARK    2  A    between atoms: N_2  and  C_3
REMARK    3  A    between atoms: N_2  and  S_25
REMARK    4  A    between atoms: C_6  and  O_9
REMARK    5  A    between atoms: O_9  and  C_10
REMARK    6  A    between atoms: C_10  and  C_11
REMARK    7  A    between atoms: N_13  and  C_14
REMARK    8  A    between atoms: C_14  and  C_15
REMARK    9  A    between atoms: C_15  and  C_16
REMARK   10  A    between atoms: S_25  and  C_28
REMARK                            x       y       z     vdW  Elec       q    Type
REMARK                         _______ _______ _______ _____ _____    ______ ____
ROOT
ATOM      1  O   UNL     1       0.087  -2.793   4.774  0.00  0.00    -0.483 OA
ENDROOT
BRANCH   1   5
ATOM      2  C   UNL     1       0.023  -0.710   1.210  0.00  0.00    +0.051 A 
ATOM      3  C   UNL     1       0.554  -1.992   1.256  0.00  0.00    +0.028 A 
ATOM      4  C   UNL     1       0.575  -2.688   2.449  0.00  0.00    +0.047 A 
ATOM      5  C   UNL     1       0.066  -2.107   3.600  0.00  0.00    +0.121 A 
ATOM      6  C   UNL     1      -0.466  -0.827   3.555  0.00  0.00    +0.047 A 
ATOM      7  C   UNL     1      -0.482  -0.127   2.365  0.00  0.00    +0.028 A 
BRANCH   2   9
ATOM      8  C   UNL     1      -0.018   1.461   0.010  0.00  0.00    +0.157 C 
ATOM      9  N   UNL     1       0.002  -0.004   0.002  0.00  0.00    -0.206 N 
BRANCH   9  10
ATOM     10  S   UNL     1      -0.000  -0.824  -1.437  0.00  0.00    +0.081 S 
ATOM     11  O   UNL     1      -0.531  -2.115  -1.167  0.00  0.00    -0.149 OA
ATOM     12  O   UNL     1      -0.572   0.049  -2.401  0.00  0.00    -0.149 OA
BRANCH  10  13
ATOM     13  C   UNL     1       1.682  -1.059  -1.905  0.00  0.00    +0.146 A 
ATOM     14  C   UNL     1       2.513  -2.091  -1.615  0.00  0.00    +0.036 A 
ATOM     15  C   UNL     1       3.808  -2.063  -2.096  0.00  0.00    +0.010 A 
ATOM     16  C   UNL     1       4.210  -1.006  -2.843  0.00  0.00    +0.047 A 
ATOM     17  S   UNL     1       2.732  -0.005  -2.891  0.00  0.00    -0.077 S 
ENDBRANCH  10  13
ENDBRANCH   9  10
ENDBRANCH   2   9
ENDBRANCH   1   5
BRANCH   1  18
ATOM     18  C   UNL     1      -0.455  -2.134   5.921  0.00  0.00    +0.324 C 
BRANCH  18  19
ATOM     19  C   UNL     1      -0.346  -3.041   7.120  0.00  0.00    +0.251 C 
ATOM     20  O   UNL     1       0.146  -4.143   7.004  0.00  0.00    -0.272 OA
ATOM     21  N   UNL     1      -0.797  -2.626   8.321  0.00  0.00    -0.312 N 
ATOM     22  H   UNL     1      -1.190  -1.745   8.413  0.00  0.00    +0.149 HD
BRANCH  21  23
ATOM     23  C   UNL     1      -0.691  -3.508   9.486  0.00  0.00    +0.108 C 
BRANCH  23  24
ATOM     24  C   UNL     1      -1.271  -2.802  10.713  0.00  0.00    +0.052 C 
BRANCH  24  25
ATOM     25  C   UNL     1      -1.162  -3.709  11.912  0.00  0.00    -0.040 C 
ATOM     26  C   UNL     1      -0.176  -3.718  12.838  0.00  0.00    -0.001 A 
ATOM     27  C   UNL     1       1.044  -2.918  13.000  0.00  0.00    +0.010 A 
ATOM     28  C   UNL     1       1.856  -3.166  14.052  0.00  0.00    +0.001 A 
ATOM     29  C   UNL     1       1.563  -4.165  14.991  0.00  0.00    +0.002 A 
ATOM     30  C   UNL     1       0.461  -4.941  14.909  0.00  0.00    +0.026 A 
ATOM     31  C   UNL     1      -0.464  -4.767  13.843  0.00  0.00    +0.043 A 
ATOM     32  N   UNL     1      -1.584  -5.382  13.549  0.00  0.00    -0.380 N 
ATOM     33  C   UNL     1      -2.137  -4.788  12.327  0.00  0.00    +0.144 C 
ATOM     34  H   UNL     1      -1.982  -6.106  14.058  0.00  0.00    +0.160 HD
ENDBRANCH  24  25
ENDBRANCH  23  24
ENDBRANCH  21  23
ENDBRANCH  18  19
ENDBRANCH   1  18
TORSDOF 9
