REMARK  Name = ZINC05346335
REMARK  5 active torsions:
REMARK  status: ('A' for Active; 'I' for Inactive)
REMARK    1  A    between atoms: C_1  and  C_2
REMARK    2  A    between atoms: C_9  and  C_14
REMARK    3  A    between atoms: C_12  and  C_13
REMARK    4  A    between atoms: N_16  and  C_17
REMARK    5  A    between atoms: C_18  and  C_26
REMARK                            x       y       z     vdW  Elec       q    Type
REMARK                         _______ _______ _______ _____ _____    ______ ____
ROOT
ATOM      1  C   UNL     1      -1.187   1.624   0.017  0.00  0.00    +0.284 C 
ATOM      2  O   UNL     1      -1.204   2.839   0.023  0.00  0.00    -0.266 OA
ATOM      3  N   UNL     1      -0.011   0.966   0.007  0.00  0.00    -0.273 N 
ATOM      4  H   UNL     1       0.002  -0.004   0.002  0.00  0.00    +0.156 HD
ENDROOT
BRANCH   1  13
ATOM      5  C   UNL     1      -4.411  -4.919  -0.007  0.00  0.00    +0.044 C 
ATOM      6  C   UNL     1      -4.537  -3.418   0.003  0.00  0.00    -0.044 A 
ATOM      7  C   UNL     1      -5.797  -2.835   0.012  0.00  0.00    +0.004 A 
ATOM      8  C   UNL     1      -5.930  -1.474   0.020  0.00  0.00    +0.015 A 
ATOM      9  C   UNL     1      -4.791  -0.669   0.020  0.00  0.00    +0.064 A 
ATOM     10  C   UNL     1      -4.891   0.803   0.029  0.00  0.00    +0.193 A 
ATOM     11  O   UNL     1      -5.970   1.369   0.037  0.00  0.00    -0.287 OA
ATOM     12  C   UNL     1      -3.627   1.554   0.028  0.00  0.00    +0.103 A 
ATOM     13  C   UNL     1      -2.460   0.866   0.018  0.00  0.00    +0.194 A 
ATOM     14  O   UNL     1      -2.412  -0.474   0.005  0.00  0.00    -0.450 OA
ATOM     15  C   UNL     1      -3.512  -1.252   0.011  0.00  0.00    +0.143 A 
ATOM     16  C   UNL     1      -3.400  -2.639   0.002  0.00  0.00    -0.005 A 
ATOM     17  C   UNL     1      -2.040  -3.287  -0.008  0.00  0.00    +0.048 C 
ENDBRANCH   1  13
BRANCH   3  18
ATOM     18  C   UNL     1       1.178   1.674  -0.000  0.00  0.00    +0.085 A 
ATOM     19  C   UNL     1       2.476   1.181  -0.010  0.00  0.00    +0.068 A 
ATOM     20  C   UNL     1       3.561   2.147  -0.021  0.00  0.00    -0.023 A 
ATOM     21  C   UNL     1       3.178   3.443  -0.009  0.00  0.00    -0.004 A 
ATOM     22  S   UNL     1       1.409   3.392   0.007  0.00  0.00    -0.077 S 
ATOM     23  C   UNL     1       4.068   4.647  -0.011  0.00  0.00    +0.043 C 
ATOM     24  C   UNL     1       5.491   4.198   0.351  0.00  0.00    +0.005 C 
ATOM     25  C   UNL     1       5.853   2.975  -0.496  0.00  0.00    +0.005 C 
ATOM     26  C   UNL     1       5.036   1.765  -0.038  0.00  0.00    +0.037 C 
BRANCH  19  27
ATOM     27  C   UNL     1       2.742  -0.261  -0.012  0.00  0.00    +0.244 C 
ATOM     28  O   UNL     1       2.845  -0.859  -1.067  0.00  0.00    -0.270 OA
ATOM     29  N   UNL     1       2.872  -0.924   1.154  0.00  0.00    -0.325 N 
ATOM     30  H   UNL     1       2.789  -0.448   1.995  0.00  0.00    +0.145 HD
ATOM     31  H   UNL     1       3.047  -1.878   1.152  0.00  0.00    +0.145 HD
ENDBRANCH  19  27
ENDBRANCH   3  18
TORSDOF 3
