REMARK  Name = ZINC09238975
REMARK  8 active torsions:
REMARK  status: ('A' for Active; 'I' for Inactive)
REMARK    1  A    between atoms: C_1  and  C_2
REMARK    2  A    between atoms: C_2  and  O_3
REMARK    3  A    between atoms: O_3  and  C_4
REMARK    4  A    between atoms: C_7  and  C_10
REMARK    5  A    between atoms: C_12  and  C_22
REMARK    6  A    between atoms: C_18  and  C_21
REMARK    7  A    between atoms: N_24  and  C_25
REMARK    8  A    between atoms: C_28  and  C_32
REMARK                            x       y       z     vdW  Elec       q    Type
REMARK                         _______ _______ _______ _____ _____    ______ ____
ROOT
ATOM      1  C   UNL     1      -0.805   3.515   0.524  0.00  0.00    +0.140 C 
ATOM      2  C   UNL     1       0.261   4.205  -0.337  0.00  0.00    +0.166 C 
ATOM      3  S   UNL     1       1.863   3.430   0.032  0.00  0.00    -0.069 S 
ATOM      4  C   UNL     1       1.331   1.748   0.010  0.00  0.00    +0.209 A 
ATOM      5  N   UNL     1       2.065   0.670  -0.013  0.00  0.00    -0.121 NA
ATOM      6  N   UNL     1       1.303  -0.368  -0.007  0.00  0.00    -0.132 NA
ATOM      7  C   UNL     1       0.050  -0.006   0.015  0.00  0.00    +0.148 A 
ATOM      8  N   UNL     1       0.021   1.359   0.020  0.00  0.00    -0.225 N 
ATOM      9  N   UNL     1      -1.071   2.165   0.023  0.00  0.00    -0.272 N 
ATOM     10  C   UNL     1      -1.145  -0.925   0.034  0.00  0.00    +0.090 C 
ATOM     11  H   UNL     1      -1.501   2.196  -0.889  0.00  0.00    +0.167 HD
ENDROOT
BRANCH   1  15
ATOM     12  C   UNL     1      -4.413   5.801   0.409  0.00  0.00    +0.121 A 
ATOM     13  C   UNL     1      -3.558   5.908   1.496  0.00  0.00    +0.046 A 
ATOM     14  C   UNL     1      -2.392   5.168   1.531  0.00  0.00    +0.009 A 
ATOM     15  C   UNL     1      -2.078   4.321   0.484  0.00  0.00    -0.024 A 
ATOM     16  C   UNL     1      -2.926   4.217  -0.603  0.00  0.00    +0.009 A 
ATOM     17  C   UNL     1      -4.096   4.951  -0.640  0.00  0.00    +0.046 A 
BRANCH  12  18
ATOM     18  O   UNL     1      -5.561   6.529   0.373  0.00  0.00    -0.492 OA
BRANCH  18  20
ATOM     19  C   UNL     1      -7.629   7.262  -0.640  0.00  0.00    +0.048 C 
ATOM     20  C   UNL     1      -6.394   6.369  -0.777  0.00  0.00    +0.225 C 
ENDBRANCH  18  20
ENDBRANCH  12  18
ENDBRANCH   1  15
BRANCH   2  21
ATOM     21  C   UNL     1       0.315   5.674  -0.002  0.00  0.00    +0.233 C 
ATOM     22  O   UNL     1       0.098   6.046   1.132  0.00  0.00    -0.274 OA
ATOM     23  N   UNL     1       0.604   6.574  -0.963  0.00  0.00    -0.284 N 
ATOM     24  H   UNL     1       0.840   6.272  -1.854  0.00  0.00    +0.155 HD
BRANCH  23  25
ATOM     25  C   UNL     1       0.562   7.943  -0.675  0.00  0.00    +0.047 A 
ATOM     26  C   UNL     1       0.939   8.402   0.580  0.00  0.00    +0.024 A 
ATOM     27  C   UNL     1       0.897   9.753   0.861  0.00  0.00    +0.005 A 
ATOM     28  C   UNL     1       0.479  10.650  -0.106  0.00  0.00    -0.049 A 
ATOM     29  C   UNL     1       0.103  10.197  -1.357  0.00  0.00    +0.020 A 
ATOM     30  C   UNL     1       0.148   8.846  -1.647  0.00  0.00    +0.039 A 
ATOM     31 BR   UNL     1      -0.358   8.228  -3.360  0.00  0.00    -0.048 Br
ATOM     32  C   UNL     1       0.435  12.124   0.205  0.00  0.00    +0.044 C 
ENDBRANCH  23  25
ENDBRANCH   2  21
TORSDOF 5
