REMARK  Name = ZINC33037200
REMARK  7 active torsions:
REMARK  status: ('A' for Active; 'I' for Inactive)
REMARK    1  A    between atoms: C_1  and  C_2
REMARK    2  A    between atoms: C_5  and  C_8
REMARK    3  A    between atoms: C_9  and  C_37
REMARK    4  A    between atoms: N_11  and  C_17
REMARK    5  A    between atoms: C_12  and  N_13
REMARK    6  A    between atoms: C_14  and  C_16
REMARK    7  A    between atoms: C_20  and  C_23
REMARK                            x       y       z     vdW  Elec       q    Type
REMARK                         _______ _______ _______ _____ _____    ______ ____
ROOT
ATOM      1  C   UNL     1      -4.081   4.056  -1.226  0.00  0.00    +0.067 A 
ATOM      2  C   UNL     1      -3.645   2.765  -1.504  0.00  0.00    +0.028 A 
ATOM      3  C   UNL     1      -2.372   2.555  -1.987  0.00  0.00    +0.015 A 
ATOM      4  C   UNL     1      -1.519   3.641  -2.197  0.00  0.00    +0.037 A 
ATOM      5  C   UNL     1      -1.958   4.936  -1.911  0.00  0.00    +0.015 A 
ATOM      6  C   UNL     1      -3.234   5.139  -1.434  0.00  0.00    +0.028 A 
ENDROOT
BRANCH   4   7
ATOM      7  C   UNL     1      -0.154   3.420  -2.714  0.00  0.00    +0.247 C 
ATOM      8  O   UNL     1       0.445   2.400  -2.433  0.00  0.00    -0.270 OA
ATOM      9  N   UNL     1       0.426   4.347  -3.502  0.00  0.00    -0.295 N 
ATOM     10  C   UNL     1       1.827   4.206  -3.928  0.00  0.00    +0.127 C 
ATOM     11  C   UNL     1       1.886   4.370  -5.455  0.00  0.00    +0.125 C 
ATOM     12  N   UNL     1       1.248   5.639  -5.830  0.00  0.00    -0.314 N 
ATOM     13  C   UNL     1      -0.177   5.645  -5.476  0.00  0.00    +0.125 C 
ATOM     14  C   UNL     1      -0.322   5.529  -3.954  0.00  0.00    +0.127 C 
ATOM     15  C   UNL     1       1.426   5.906  -7.183  0.00  0.00    +0.099 A 
ATOM     16  C   UNL     1       2.711   5.944  -7.715  0.00  0.00    +0.042 A 
ATOM     17  C   UNL     1       2.873   6.210  -9.063  0.00  0.00    +0.005 A 
ATOM     18  C   UNL     1       1.740   6.429  -9.836  0.00  0.00    +0.018 A 
ATOM     19  C   UNL     1       0.495   6.376  -9.242  0.00  0.00    +0.084 A 
ATOM     20  N   UNL     1       0.370   6.115  -7.955  0.00  0.00    -0.350 N 
ATOM     21  H   UNL     1      -0.642   6.073  -7.526  0.00  0.00    +0.166 HD
ENDBRANCH   4   7
BRANCH   1  25
ATOM     22  C   UNL     1      -7.093   5.038   0.411  0.00  0.00    +0.045 A 
ATOM     23  C   UNL     1      -7.551   4.050  -0.481  0.00  0.00    +0.070 A 
ATOM     24  N   UNL     1      -6.530   3.601  -1.161  0.00  0.00    -0.169 NA
ATOM     25  N   UNL     1      -5.373   4.265  -0.736  0.00  0.00    -0.218 N 
ATOM     26  C   UNL     1      -5.726   5.154   0.232  0.00  0.00    +0.137 A 
ATOM     27  C   UNL     1      -8.979   3.593  -0.632  0.00  0.00    +0.068 C 
BRANCH  22  32
ATOM     28  C   UNL     1     -10.314   8.044   4.120  0.00  0.00    +0.044 C 
ATOM     29  C   UNL     1      -9.471   7.257   3.150  0.00  0.00    -0.050 A 
ATOM     30  C   UNL     1      -9.662   7.412   1.788  0.00  0.00    +0.004 A 
ATOM     31  C   UNL     1      -8.893   6.694   0.895  0.00  0.00    +0.009 A 
ATOM     32  C   UNL     1      -7.922   5.813   1.367  0.00  0.00    -0.013 A 
ATOM     33  C   UNL     1      -7.737   5.657   2.739  0.00  0.00    +0.009 A 
ATOM     34  C   UNL     1      -8.508   6.383   3.623  0.00  0.00    +0.004 A 
ENDBRANCH  22  32
BRANCH  26  35
ATOM     35  N   UNL     1      -4.873   6.016   0.913  0.00  0.00    -0.270 N 
ATOM     36  C   UNL     1      -3.949   5.520   1.760  0.00  0.00    +0.215 C 
ATOM     37  O   UNL     1      -3.796   4.320   1.855  0.00  0.00    -0.276 OA
ATOM     38  C   UNL     1      -3.107   6.455   2.589  0.00  0.00    +0.109 C 
ATOM     39  H   UNL     1      -4.952   7.102   0.761  0.00  0.00    +0.156 HD
ENDBRANCH  26  35
ENDBRANCH   1  25
TORSDOF 4
