REMARK  Name = ZINC13470775
REMARK  3 active torsions:
REMARK  status: ('A' for Active; 'I' for Inactive)
REMARK    1  A    between atoms: C_1  and  C_2
REMARK    2  A    between atoms: C_2  and  C_19
REMARK    3  A    between atoms: N_7  and  C_12
REMARK                            x       y       z     vdW  Elec       q    Type
REMARK                         _______ _______ _______ _____ _____    ______ ____
ROOT
ATOM      1  C   UNL     1      -0.110   1.225   0.148  0.00  0.00    +0.040 C 
ATOM      2  C   UNL     1      -0.111  -0.267  -0.193  0.00  0.00    +0.092 C 
ATOM      3  C   UNL     1       0.817  -0.560  -1.385  0.00  0.00    +0.209 C 
ATOM      4  N   UNL     1       1.132   0.649  -2.156  0.00  0.00    -0.303 N 
ATOM      5  C   UNL     1       2.471   0.621  -2.352  0.00  0.00    +0.156 C 
ATOM      6  N   UNL     1       3.052  -0.349  -1.614  0.00  0.00    -0.196 N 
ATOM      7  N   UNL     1       2.104  -0.833  -0.684  0.00  0.00    -0.202 N 
ATOM      8  C   UNL     1       1.802  -1.302   0.527  0.00  0.00    +0.152 C 
ATOM      9  N   UNL     1       0.526  -1.057   0.885  0.00  0.00    -0.313 N 
ATOM     10  S   UNL     1       2.920  -2.130   1.525  0.00  0.00    -0.017 S 
ATOM     11  S   UNL     1       3.318   1.679  -3.398  0.00  0.00    -0.017 S 
ATOM     12  H   UNL     1       0.509   1.327  -2.463  0.00  0.00    +0.150 HD
ATOM     13  H   UNL     1       0.099  -1.348   1.706  0.00  0.00    +0.149 HD
ENDROOT
BRANCH   2  14
ATOM     14  C   UNL     1      -1.511  -0.755  -0.465  0.00  0.00    -0.021 A 
ATOM     15  C   UNL     1      -2.012  -0.732  -1.753  0.00  0.00    +0.007 A 
ATOM     16  C   UNL     1      -3.296  -1.179  -2.003  0.00  0.00    +0.020 A 
ATOM     17  C   UNL     1      -4.079  -1.650  -0.964  0.00  0.00    +0.041 A 
ATOM     18  C   UNL     1      -3.577  -1.672   0.325  0.00  0.00    +0.020 A 
ATOM     19  C   UNL     1      -2.291  -1.230   0.573  0.00  0.00    +0.007 A 
ATOM     20 CL   UNL     1      -5.691  -2.211  -1.277  0.00  0.00    -0.084 Cl
ENDBRANCH   2  14
BRANCH   6  21
ATOM     21  C   UNL     1       4.364  -0.813  -1.752  0.00  0.00    +0.055 A 
ATOM     22  C   UNL     1       4.859  -1.138  -3.009  0.00  0.00    +0.025 A 
ATOM     23  C   UNL     1       6.155  -1.595  -3.142  0.00  0.00    +0.002 A 
ATOM     24  C   UNL     1       6.961  -1.729  -2.026  0.00  0.00    +0.000 A 
ATOM     25  C   UNL     1       6.472  -1.406  -0.774  0.00  0.00    +0.002 A 
ATOM     26  C   UNL     1       5.178  -0.943  -0.634  0.00  0.00    +0.025 A 
ENDBRANCH   6  21
TORSDOF 2
