REMARK  Name = ZINC39618840
REMARK  9 active torsions:
REMARK  status: ('A' for Active; 'I' for Inactive)
REMARK    1  A    between atoms: C_1  and  C_2
REMARK    2  A    between atoms: C_2  and  C_3
REMARK    3  A    between atoms: C_2  and  C_4
REMARK    4  A    between atoms: C_2  and  C_5
REMARK    5  A    between atoms: C_10  and  N_11
REMARK    6  A    between atoms: C_12  and  C_14
REMARK    7  A    between atoms: C_14  and  S_15
REMARK    8  A    between atoms: S_15  and  C_16
REMARK    9  A    between atoms: N_26  and  C_27
REMARK                            x       y       z     vdW  Elec       q    Type
REMARK                         _______ _______ _______ _____ _____    ______ ____
ROOT
ATOM      1  C   UNL     1      -1.259  -7.738   0.072  0.00  0.00    +0.177 A 
ATOM      2  N   UNL     1      -1.808  -7.215   1.141  0.00  0.00    -0.223 NA
ATOM      3  C   UNL     1      -2.484  -7.971   2.029  0.00  0.00    +0.079 A 
ATOM      4  C   UNL     1      -3.070  -7.413   3.169  0.00  0.00    +0.028 A 
ATOM      5  C   UNL     1      -3.747  -8.216   4.043  0.00  0.00    +0.002 A 
ATOM      6  C   UNL     1      -3.863  -9.582   3.817  0.00  0.00    +0.001 A 
ATOM      7  C   UNL     1      -3.300 -10.157   2.711  0.00  0.00    +0.015 A 
ATOM      8  C   UNL     1      -2.604  -9.361   1.802  0.00  0.00    +0.065 A 
ATOM      9  C   UNL     1      -1.980  -9.924   0.597  0.00  0.00    +0.267 A 
ATOM     10  O   UNL     1      -2.050 -11.114   0.347  0.00  0.00    -0.267 OA
ATOM     11  N   UNL     1      -1.331  -9.070  -0.228  0.00  0.00    -0.253 N 
ENDROOT
BRANCH  11  12
ATOM     12  C   UNL     1      -0.723  -9.555  -1.394  0.00  0.00    +0.087 A 
ATOM     13  C   UNL     1       0.593  -9.994  -1.362  0.00  0.00    +0.029 A 
ATOM     14  C   UNL     1       1.190 -10.472  -2.513  0.00  0.00    +0.002 A 
ATOM     15  C   UNL     1       0.477 -10.514  -3.697  0.00  0.00    +0.003 A 
ATOM     16  C   UNL     1      -0.835 -10.079  -3.734  0.00  0.00    +0.040 A 
ATOM     17  C   UNL     1      -1.440  -9.604  -2.585  0.00  0.00    +0.147 A 
ATOM     18  F   UNL     1      -2.723  -9.183  -2.620  0.00  0.00    -0.203 F 
ENDBRANCH  11  12
BRANCH   1  19
ATOM     19  S   UNL     1      -0.394  -6.673  -1.034  0.00  0.00    -0.078 S 
BRANCH  19  20
ATOM     20  C   UNL     1      -0.542  -5.034  -0.271  0.00  0.00    +0.173 C 
BRANCH  20  22
ATOM     21  N   UNL     1       0.187  -2.720  -0.756  0.00  0.00    -0.285 N 
ATOM     22  C   UNL     1       0.165  -4.016  -1.128  0.00  0.00    +0.227 C 
ATOM     23  O   UNL     1       0.714  -4.362  -2.153  0.00  0.00    -0.275 OA
ATOM     24  H   UNL     1      -0.218  -2.450   0.083  0.00  0.00    +0.155 HD
BRANCH  21  30
ATOM     25  C   UNL     1       0.408  -0.434  -1.501  0.00  0.00    -0.021 A 
ATOM     26  C   UNL     1       1.011   0.507  -2.312  0.00  0.00    +0.006 A 
ATOM     27  C   UNL     1       1.993   0.123  -3.207  0.00  0.00    +0.000 A 
ATOM     28  C   UNL     1       2.374  -1.204  -3.292  0.00  0.00    +0.002 A 
ATOM     29  C   UNL     1       1.775  -2.149  -2.484  0.00  0.00    +0.023 A 
ATOM     30  C   UNL     1       0.792  -1.766  -1.581  0.00  0.00    +0.037 A 
BRANCH  25  32
ATOM     31  C   UNL     1      -1.018   1.455  -0.760  0.00  0.00    +0.015 C 
ATOM     32  C   UNL     1      -0.662  -0.014  -0.526  0.00  0.00    -0.011 C 
ATOM     33  C   UNL     1      -0.148  -0.193   0.904  0.00  0.00    +0.015 C 
ATOM     34  C   UNL     1      -1.907  -0.879  -0.732  0.00  0.00    +0.015 C 
ENDBRANCH  25  32
ENDBRANCH  21  30
ENDBRANCH  20  22
ENDBRANCH  19  20
ENDBRANCH   1  19
TORSDOF 6
