REMARK  Name = ZINC00853932
REMARK  9 active torsions:
REMARK  status: ('A' for Active; 'I' for Inactive)
REMARK    1  A    between atoms: C_1  and  C_2
REMARK    2  A    between atoms: C_3  and  C_24
REMARK    3  A    between atoms: C_4  and  C_10
REMARK    4  A    between atoms: C_13  and  O_16
REMARK    5  A    between atoms: O_16  and  C_17
REMARK    6  A    between atoms: C_17  and  C_18
REMARK    7  A    between atoms: C_24  and  O_26
REMARK    8  A    between atoms: O_26  and  C_27
REMARK    9  A    between atoms: C_27  and  C_28
REMARK                            x       y       z     vdW  Elec       q    Type
REMARK                         _______ _______ _______ _____ _____    ______ ____
ROOT
ATOM      1  C   UNL     1      -2.485   0.770   0.018  0.00  0.00    +0.061 C 
ATOM      2  C   UNL     1      -1.224   1.594   0.017  0.00  0.00    +0.021 C 
ATOM      3  C   UNL     1      -1.310   2.942   0.030  0.00  0.00    +0.078 C 
ATOM      4  C   UNL     1      -0.018   3.732   0.022  0.00  0.00    +0.143 C 
ATOM      5  N   UNL     1       1.236   2.959   0.006  0.00  0.00    -0.288 N 
ATOM      6  C   UNL     1       1.161   1.614  -0.000  0.00  0.00    +0.304 C 
ATOM      7  O   UNL     1       2.190   0.967  -0.013  0.00  0.00    -0.252 OA
ATOM      8  N   UNL     1      -0.011   0.966   0.007  0.00  0.00    -0.273 N 
ATOM      9  H   UNL     1       2.096   3.408   0.000  0.00  0.00    +0.151 HD
ATOM     10  H   UNL     1       0.002  -0.004   0.002  0.00  0.00    +0.156 HD
ENDROOT
BRANCH   4  11
ATOM     11  C   UNL     1      -0.028   4.627  -1.190  0.00  0.00    -0.022 A 
ATOM     12  C   UNL     1       0.446   4.154  -2.401  0.00  0.00    +0.009 A 
ATOM     13  C   UNL     1       0.432   4.971  -3.515  0.00  0.00    +0.046 A 
ATOM     14  C   UNL     1      -0.046   6.269  -3.416  0.00  0.00    +0.121 A 
ATOM     15  C   UNL     1      -0.515   6.743  -2.199  0.00  0.00    +0.046 A 
ATOM     16  C   UNL     1      -0.505   5.920  -1.089  0.00  0.00    +0.009 A 
BRANCH  14  17
ATOM     17  O   UNL     1      -0.055   7.076  -4.510  0.00  0.00    -0.487 OA
BRANCH  17  18
ATOM     18  C   UNL     1       0.443   6.522  -5.729  0.00  0.00    +0.264 C 
BRANCH  18  19
ATOM     19  C   UNL     1       0.354   7.555  -6.823  0.00  0.00    -0.010 A 
ATOM     20  C   UNL     1      -0.784   7.640  -7.603  0.00  0.00    +0.007 A 
ATOM     21  C   UNL     1      -0.867   8.591  -8.603  0.00  0.00    +0.000 A 
ATOM     22  C   UNL     1       0.192   9.449  -8.830  0.00  0.00    +0.000 A 
ATOM     23  C   UNL     1       1.333   9.360  -8.054  0.00  0.00    +0.000 A 
ATOM     24  C   UNL     1       1.414   8.413  -7.050  0.00  0.00    +0.007 A 
ENDBRANCH  18  19
ENDBRANCH  17  18
ENDBRANCH  14  17
ENDBRANCH   4  11
BRANCH   3  25
ATOM     25  C   UNL     1      -2.566   3.593   0.046  0.00  0.00    +0.339 C 
ATOM     26  O   UNL     1      -3.591   2.938   0.052  0.00  0.00    -0.245 OA
BRANCH  25  27
ATOM     27  O   UNL     1      -2.626   4.941   0.054  0.00  0.00    -0.459 OA
BRANCH  27  28
ATOM     28  C   UNL     1      -3.927   5.533   0.069  0.00  0.00    +0.264 C 
BRANCH  28  29
ATOM     29  C   UNL     1      -3.794   7.057   0.076  0.00  0.00    +0.156 C 
ATOM     30  C   UNL     1      -5.190   7.703   0.209  0.00  0.00    +0.037 C 
ATOM     31  C   UNL     1      -5.081   8.922  -0.747  0.00  0.00    +0.031 C 
ATOM     32  C   UNL     1      -4.161   8.347  -1.853  0.00  0.00    +0.160 C 
ATOM     33  O   UNL     1      -3.228   7.501  -1.162  0.00  0.00    -0.373 OA
ENDBRANCH  28  29
ENDBRANCH  27  28
ENDBRANCH  25  27
ENDBRANCH   3  25
TORSDOF 8
