REMARK  Name = ZINC04261105
REMARK  9 active torsions:
REMARK  status: ('A' for Active; 'I' for Inactive)
REMARK    1  A    between atoms: C_1  and  C_2
REMARK    2  A    between atoms: C_2  and  O_3
REMARK    3  A    between atoms: O_3  and  C_4
REMARK    4  A    between atoms: C_4  and  C_6
REMARK    5  A    between atoms: C_10  and  N_11
REMARK    6  A    between atoms: C_12  and  C_14
REMARK    7  A    between atoms: N_16  and  N_17
REMARK    8  A    between atoms: C_18  and  C_19
REMARK    9  A    between atoms: C_28  and  C_32
REMARK                            x       y       z     vdW  Elec       q    Type
REMARK                         _______ _______ _______ _____ _____    ______ ____
ROOT
ATOM      1  N   UNL     1       4.591   8.478   0.002  0.00  0.00    -0.271 N 
ATOM      2  C   UNL     1       3.430   7.795   0.010  0.00  0.00    +0.305 C 
ATOM      3  O   UNL     1       2.373   8.393   0.023  0.00  0.00    -0.265 OA
ATOM      4  H   UNL     1       5.548   7.936  -0.009  0.00  0.00    +0.156 HD
ENDROOT
BRANCH   1   9
ATOM      5  C   UNL     1       5.660  10.735   0.004  0.00  0.00    +0.091 A 
ATOM      6  C   UNL     1       5.373  12.159   0.013  0.00  0.00    -0.021 A 
ATOM      7  C   UNL     1       4.061  12.481   0.026  0.00  0.00    -0.004 A 
ATOM      8  S   UNL     1       3.213  10.927   0.020  0.00  0.00    -0.077 S 
ATOM      9  C   UNL     1       4.579   9.862   0.009  0.00  0.00    +0.087 A 
ATOM     10  C   UNL     1       3.469  13.857   0.039  0.00  0.00    +0.046 C 
ATOM     11  C   UNL     1       4.574  14.855   0.413  0.00  0.00    -0.009 C 
ATOM     12  C   UNL     1       5.814  14.560  -0.437  0.00  0.00    +0.008 C 
ATOM     13  C   UNL     1       6.447  13.240   0.007  0.00  0.00    +0.037 C 
ATOM     14  C   UNL     1       4.090  16.281   0.141  0.00  0.00    +0.008 C 
BRANCH   5  15
ATOM     15  C   UNL     1       7.038  10.238  -0.011  0.00  0.00    +0.342 C 
ATOM     16  O   UNL     1       7.600  10.036  -1.071  0.00  0.00    -0.245 OA
BRANCH  15  17
ATOM     17  O   UNL     1       7.683  10.003   1.150  0.00  0.00    -0.461 OA
BRANCH  17  19
ATOM     18  C   UNL     1       9.610   9.307   2.466  0.00  0.00    +0.048 C 
ATOM     19  C   UNL     1       9.047   9.512   1.059  0.00  0.00    +0.229 C 
ENDBRANCH  17  19
ENDBRANCH  15  17
ENDBRANCH   5  15
ENDBRANCH   1   9
BRANCH   2  20
ATOM     20  C   UNL     1       3.442   6.304   0.002  0.00  0.00    +0.318 C 
ATOM     21  O   UNL     1       4.499   5.706  -0.011  0.00  0.00    -0.263 OA
ATOM     22  N   UNL     1       2.281   5.620   0.009  0.00  0.00    -0.199 N 
ATOM     23  H   UNL     1       1.324   6.162   0.021  0.00  0.00    +0.178 HD
BRANCH  22  24
ATOM     24  N   UNL     1       2.293   4.219   0.002  0.00  0.00    -0.187 NA
ATOM     25  C   UNL     1       1.173   3.560   0.009  0.00  0.00    +0.139 C 
BRANCH  25  26
ATOM     26  C   UNL     1       1.186   2.087   0.002  0.00  0.00    +0.013 A 
ATOM     27  C   UNL     1      -0.017   1.374   0.010  0.00  0.00    +0.012 A 
ATOM     28  C   UNL     1       0.002  -0.004   0.002  0.00  0.00    +0.021 A 
ATOM     29  C   UNL     1       1.209  -0.684  -0.013  0.00  0.00    +0.042 A 
ATOM     30  C   UNL     1       2.405   0.014  -0.020  0.00  0.00    +0.040 A 
ATOM     31  C   UNL     1       2.401   1.395  -0.013  0.00  0.00    +0.051 A 
ATOM     32 CL   UNL     1       3.901   2.269  -0.024  0.00  0.00    -0.083 Cl
ATOM     33 CL   UNL     1       1.222  -2.420  -0.022  0.00  0.00    -0.083 Cl
ENDBRANCH  25  26
ENDBRANCH  22  24
ENDBRANCH   2  20
TORSDOF 7
