REMARK  Name = ZINC59472838
REMARK  8 active torsions:
REMARK  status: ('A' for Active; 'I' for Inactive)
REMARK    1  A    between atoms: C_1  and  C_2
REMARK    2  A    between atoms: C_5  and  N_9
REMARK    3  A    between atoms: N_9  and  C_10
REMARK    4  A    between atoms: N_9  and  S_24
REMARK    5  A    between atoms: C_10  and  C_11
REMARK    6  A    between atoms: N_13  and  N_14
REMARK    7  A    between atoms: C_15  and  C_16
REMARK    8  A    between atoms: S_24  and  C_27
REMARK                            x       y       z     vdW  Elec       q    Type
REMARK                         _______ _______ _______ _____ _____    ______ ____
ROOT
ATOM      1  N   UNL     1       0.059  -4.168  -0.022  0.00  0.00    -0.194 N 
ENDROOT
BRANCH   1   6
ATOM      2  C   UNL     1      -0.981   1.395  -0.393  0.00  0.00    +0.045 C 
ATOM      3  C   UNL     1      -0.705  -0.083  -0.294  0.00  0.00    -0.032 A 
ATOM      4  C   UNL     1      -1.243  -0.950  -1.228  0.00  0.00    +0.006 A 
ATOM      5  C   UNL     1      -0.991  -2.305  -1.141  0.00  0.00    +0.025 A 
ATOM      6  C   UNL     1      -0.197  -2.798  -0.113  0.00  0.00    +0.053 A 
ATOM      7  C   UNL     1       0.343  -1.926   0.823  0.00  0.00    +0.045 A 
ATOM      8  C   UNL     1       0.091  -0.570   0.728  0.00  0.00    +0.046 A 
ATOM      9 CL   UNL     1       0.770   0.522   1.894  0.00  0.00    -0.083 Cl
ENDBRANCH   1   6
BRANCH   1  10
ATOM     10  S   UNL     1      -0.414  -5.011   1.323  0.00  0.00    +0.075 S 
ATOM     11  O   UNL     1       0.406  -6.170   1.385  0.00  0.00    -0.150 OA
ATOM     12  O   UNL     1      -0.486  -4.071   2.386  0.00  0.00    -0.150 OA
BRANCH  10  13
ATOM     13  C   UNL     1      -2.059  -5.573   1.035  0.00  0.00    +0.109 A 
ATOM     14  C   UNL     1      -3.133  -4.782   1.398  0.00  0.00    +0.029 A 
ATOM     15  C   UNL     1      -4.423  -5.223   1.171  0.00  0.00    +0.002 A 
ATOM     16  C   UNL     1      -4.639  -6.455   0.582  0.00  0.00    +0.000 A 
ATOM     17  C   UNL     1      -3.565  -7.245   0.218  0.00  0.00    +0.002 A 
ATOM     18  C   UNL     1      -2.275  -6.802   0.440  0.00  0.00    +0.029 A 
ENDBRANCH  10  13
ENDBRANCH   1  10
BRANCH   1  19
ATOM     19  C   UNL     1       0.744  -4.860  -1.116  0.00  0.00    +0.228 C 
BRANCH  19  20
ATOM     20  C   UNL     1       2.235  -4.717  -0.945  0.00  0.00    +0.251 C 
ATOM     21  O   UNL     1       2.680  -4.099  -0.002  0.00  0.00    -0.272 OA
ATOM     22  N   UNL     1       3.072  -5.277  -1.840  0.00  0.00    -0.206 N 
ATOM     23  H   UNL     1       2.716  -5.772  -2.595  0.00  0.00    +0.177 HD
BRANCH  22  24
ATOM     24  N   UNL     1       4.458  -5.145  -1.681  0.00  0.00    -0.188 NA
ATOM     25  C   UNL     1       5.265  -5.684  -2.543  0.00  0.00    +0.138 C 
BRANCH  25  26
ATOM     26  C   UNL     1       6.723  -5.544  -2.375  0.00  0.00    -0.004 A 
ATOM     27  C   UNL     1       7.240  -4.837  -1.286  0.00  0.00    +0.011 A 
ATOM     28  C   UNL     1       8.604  -4.710  -1.134  0.00  0.00    +0.022 A 
ATOM     29  C   UNL     1       9.463  -5.282  -2.058  0.00  0.00    +0.059 A 
ATOM     30  C   UNL     1       8.958  -5.984  -3.141  0.00  0.00    +0.060 A 
ATOM     31  C   UNL     1       7.594  -6.123  -3.301  0.00  0.00    +0.031 A 
ATOM     32 CL   UNL     1      10.043  -6.696  -4.295  0.00  0.00    -0.082 Cl
ATOM     33 CL   UNL     1      11.180  -5.117  -1.860  0.00  0.00    -0.082 Cl
ENDBRANCH  25  26
ENDBRANCH  22  24
ENDBRANCH  19  20
ENDBRANCH   1  19
TORSDOF 7
