REMARK  Name = ZINC67608624
REMARK  4 active torsions:
REMARK  status: ('A' for Active; 'I' for Inactive)
REMARK    1  A    between atoms: C_1  and  C_2
REMARK    2  A    between atoms: C_4  and  C_7
REMARK    3  A    between atoms: C_7  and  N_8
REMARK    4  A    between atoms: N_11  and  C_12
REMARK                            x       y       z     vdW  Elec       q    Type
REMARK                         _______ _______ _______ _____ _____    ______ ____
ROOT
ATOM      1  N   UNL     1      -1.691  -3.832  -1.387  0.00  0.00    -0.294 N 
ATOM      2  C   UNL     1      -2.442  -4.923  -1.635  0.00  0.00    +0.300 C 
ATOM      3  O   UNL     1      -2.961  -5.526  -0.715  0.00  0.00    -0.253 OA
ATOM      4  N   UNL     1      -2.619  -5.346  -2.902  0.00  0.00    -0.294 N 
ATOM      5  H   UNL     1      -1.278  -3.351  -2.121  0.00  0.00    +0.151 HD
ATOM      6  H   UNL     1      -2.205  -4.865  -3.636  0.00  0.00    +0.151 HD
ENDROOT
BRANCH   4   7
ATOM      7  C   UNL     1      -3.435  -6.533  -3.171  0.00  0.00    +0.037 C 
ATOM      8  C   UNL     1      -2.827  -7.742  -2.459  0.00  0.00    +0.029 C 
ATOM      9  C   UNL     1      -3.680  -8.981  -2.740  0.00  0.00    -0.008 C 
ATOM     10  C   UNL     1      -3.718  -9.243  -4.247  0.00  0.00    +0.007 C 
ATOM     11  C   UNL     1      -4.325  -8.033  -4.960  0.00  0.00    -0.008 C 
ATOM     12  C   UNL     1      -3.473  -6.794  -4.678  0.00  0.00    +0.029 C 
ATOM     13  C   UNL     1      -5.748  -7.801  -4.446  0.00  0.00    +0.007 C 
ATOM     14  C   UNL     1      -5.710  -7.539  -2.939  0.00  0.00    -0.008 C 
ATOM     15  C   UNL     1      -5.102  -8.749  -2.227  0.00  0.00    +0.007 C 
ATOM     16  C   UNL     1      -4.857  -6.300  -2.658  0.00  0.00    +0.029 C 
ENDBRANCH   4   7
BRANCH   1  17
ATOM     17  C   UNL     1      -1.500  -3.372  -0.010  0.00  0.00    +0.164 C 
BRANCH  17  21
ATOM     18  C   UNL     1      -0.018   1.503   0.010  0.00  0.00    +0.089 C 
ATOM     19  C   UNL     1       0.002  -0.004   0.002  0.00  0.00    +0.135 A 
ATOM     20  C   UNL     1      -1.077  -0.810   0.003  0.00  0.00    +0.072 A 
ATOM     21  C   UNL     1      -0.627  -2.143  -0.007  0.00  0.00    +0.101 A 
ATOM     22  N   UNL     1       0.676  -2.130  -0.013  0.00  0.00    -0.081 NA
ATOM     23  O   UNL     1       1.098  -0.778  -0.013  0.00  0.00    -0.360 OA
ENDBRANCH  17  21
ENDBRANCH   1  17
TORSDOF 3
