REMARK  Name = ZINC21446856
REMARK  12 active torsions:
REMARK  status: ('A' for Active; 'I' for Inactive)
REMARK    1  A    between atoms: C_1  and  C_2
REMARK    2  A    between atoms: N_4  and  C_5
REMARK    3  A    between atoms: C_5  and  C_7
REMARK    4  A    between atoms: C_5  and  C_30
REMARK    5  A    between atoms: C_7  and  C_8
REMARK    6  A    between atoms: N_10  and  C_11
REMARK    7  A    between atoms: C_13  and  S_18
REMARK    8  A    between atoms: C_16  and  O_17
REMARK    9  A    between atoms: S_18  and  N_21
REMARK   10  A    between atoms: N_21  and  C_22
REMARK   11  A    between atoms: C_27  and  O_28
REMARK   12  A    between atoms: O_28  and  C_29
REMARK                            x       y       z     vdW  Elec       q    Type
REMARK                         _______ _______ _______ _____ _____    ______ ____
ROOT
ATOM      1  C   UNL     1       2.151   3.296   3.547  0.00  0.00    +0.077 A 
ATOM      2  C   UNL     1       2.085   2.442   2.456  0.00  0.00    +0.055 A 
ATOM      3  C   UNL     1       1.486   2.864   1.284  0.00  0.00    +0.110 A 
ATOM      4  C   UNL     1       0.955   4.137   1.195  0.00  0.00    +0.032 A 
ATOM      5  C   UNL     1       1.012   4.992   2.280  0.00  0.00    +0.049 A 
ATOM      6  C   UNL     1       1.611   4.577   3.458  0.00  0.00    +0.138 A 
ENDROOT
BRANCH   1   9
ATOM      7  C   UNL     1       3.819   2.042   4.692  0.00  0.00    +0.219 C 
ATOM      8  O   UNL     1       4.200   1.601   3.629  0.00  0.00    -0.275 OA
ATOM      9  N   UNL     1       2.758   2.871   4.737  0.00  0.00    -0.282 N 
ATOM     10  H   UNL     1       2.368   3.214   5.706  0.00  0.00    +0.155 HD
BRANCH   7  11
ATOM     11  C   UNL     1       4.533   1.663   5.965  0.00  0.00    +0.123 C 
BRANCH  11  12
ATOM     12  C   UNL     1       5.692   0.720   5.638  0.00  0.00    +0.118 C 
BRANCH  12  16
ATOM     13  C   UNL     1       5.381  -2.593   3.744  0.00  0.00    +0.109 C 
ATOM     14  C   UNL     1       5.926  -1.300   4.295  0.00  0.00    +0.210 C 
ATOM     15  O   UNL     1       7.052  -0.948   4.014  0.00  0.00    -0.276 OA
ATOM     16  N   UNL     1       5.162  -0.537   5.101  0.00  0.00    -0.308 N 
ATOM     17  H   UNL     1       4.141  -0.857   5.357  0.00  0.00    +0.149 HD
ENDBRANCH  12  16
BRANCH  12  18
ATOM     18  C   UNL     1       6.480   0.438   6.891  0.00  0.00    +0.010 A 
ATOM     19  C   UNL     1       7.650   0.984   7.304  0.00  0.00    +0.013 A 
ATOM     20  C   UNL     1       8.194   0.571   8.506  0.00  0.00    +0.008 A 
ATOM     21  C   UNL     1       7.547  -0.373   9.231  0.00  0.00    +0.045 A 
ATOM     22  S   UNL     1       6.118  -0.705   8.214  0.00  0.00    -0.100 S 
ENDBRANCH  12  18
ENDBRANCH  11  12
ENDBRANCH   7  11
ENDBRANCH   1   9
BRANCH   3  23
ATOM     23  S   UNL     1       1.404   1.778  -0.101  0.00  0.00    +0.073 S 
ATOM     24  O   UNL     1       2.460   0.839   0.056  0.00  0.00    -0.150 OA
ATOM     25  O   UNL     1       1.279   2.599  -1.254  0.00  0.00    -0.150 OA
BRANCH  23  26
ATOM     26  N   UNL     1      -0.010   0.925   0.028  0.00  0.00    -0.213 N 
ATOM     27  H   UNL     1       0.015  -0.172   0.110  0.00  0.00    +0.174 HD
BRANCH  26  28
ATOM     28  C   UNL     1      -1.236   1.600   0.033  0.00  0.00    +0.090 A 
ATOM     29  C   UNL     1      -1.408   2.735  -0.745  0.00  0.00    +0.028 A 
ATOM     30  C   UNL     1      -2.622   3.397  -0.743  0.00  0.00    +0.002 A 
ATOM     31  C   UNL     1      -3.662   2.937   0.042  0.00  0.00    +0.004 A 
ATOM     32  C   UNL     1      -3.496   1.808   0.825  0.00  0.00    +0.047 A 
ATOM     33  C   UNL     1      -2.285   1.137   0.824  0.00  0.00    +0.142 A 
BRANCH  33  34
ATOM     34  O   UNL     1      -2.120   0.028   1.594  0.00  0.00    -0.493 OA
ATOM     35  C   UNL     1      -3.239  -0.389   2.379  0.00  0.00    +0.277 C 
ENDBRANCH  33  34
ENDBRANCH  26  28
ENDBRANCH  23  26
ENDBRANCH   3  23
BRANCH   6  36
ATOM     36  O   UNL     1       1.673   5.419   4.524  0.00  0.00    -0.505 OA
ATOM     37  H   UNL     1       1.246   6.430   4.452  0.00  0.00    +0.292 HD
ENDBRANCH   6  36
TORSDOF 10
