REMARK  Name = ZINC08789262
REMARK  7 active torsions:
REMARK  status: ('A' for Active; 'I' for Inactive)
REMARK    1  A    between atoms: C_1  and  C_2
REMARK    2  A    between atoms: C_6  and  O_8
REMARK    3  A    between atoms: O_8  and  C_9
REMARK    4  A    between atoms: C_9  and  C_11
REMARK    5  A    between atoms: C_9  and  C_12
REMARK    6  A    between atoms: C_17  and  O_32
REMARK    7  A    between atoms: C_24  and  C_26
REMARK                            x       y       z     vdW  Elec       q    Type
REMARK                         _______ _______ _______ _____ _____    ______ ____
ROOT
ATOM      1  C   UNL     1      -1.012   6.492   1.979  0.00  0.00    +0.257 C 
ATOM      2  O   UNL     1       0.113   6.704   2.379  0.00  0.00    -0.272 OA
ATOM      3  N   UNL     1      -1.203   5.830   0.821  0.00  0.00    -0.291 N 
ATOM      4  C   UNL     1      -2.559   5.576   0.328  0.00  0.00    +0.111 C 
ATOM      5  C   UNL     1      -2.668   6.103  -1.106  0.00  0.00    +0.054 C 
ATOM      6  C   UNL     1      -1.561   5.482  -1.962  0.00  0.00    +0.072 C 
ATOM      7  C   UNL     1      -1.690   5.982  -3.402  0.00  0.00    +0.035 C 
ATOM      8  C   UNL     1      -0.580   5.376  -4.263  0.00  0.00    +0.003 C 
ATOM      9  C   UNL     1       0.782   5.792  -3.701  0.00  0.00    +0.001 C 
ATOM     10  C   UNL     1       0.916   5.282  -2.265  0.00  0.00    +0.008 C 
ATOM     11  C   UNL     1      -0.195   5.884  -1.402  0.00  0.00    +0.046 C 
ATOM     12  C   UNL     1      -0.058   5.357   0.031  0.00  0.00    +0.112 C 
ENDROOT
BRANCH  12  13
ATOM     13  C   UNL     1      -0.043   3.851   0.015  0.00  0.00    -0.027 A 
ATOM     14  C   UNL     1       0.990   3.176  -0.608  0.00  0.00    +0.005 A 
ATOM     15  C   UNL     1       1.005   1.794  -0.622  0.00  0.00    +0.000 A 
ATOM     16  C   UNL     1      -0.013   1.086  -0.011  0.00  0.00    +0.000 A 
ATOM     17  C   UNL     1      -1.049   1.760   0.608  0.00  0.00    +0.000 A 
ATOM     18  C   UNL     1      -1.062   3.143   0.625  0.00  0.00    +0.005 A 
ENDBRANCH  12  13
BRANCH   1  19
ATOM     19  C   UNL     1      -2.197   6.970   2.778  0.00  0.00    +0.256 C 
ATOM     20  C   UNL     1      -2.993   5.764   3.281  0.00  0.00    +0.062 C 
BRANCH  19  21
ATOM     21  O   UNL     1      -1.742   7.739   3.893  0.00  0.00    -0.479 OA
BRANCH  21  27
ATOM     22  C   UNL     1      -6.188   9.742   3.918  0.00  0.00    +0.044 C 
ATOM     23  C   UNL     1      -4.780   9.668   4.449  0.00  0.00    -0.043 A 
ATOM     24  C   UNL     1      -4.381  10.533   5.449  0.00  0.00    +0.050 A 
ATOM     25  C   UNL     1      -3.086  10.473   5.944  0.00  0.00    +0.143 A 
ATOM     26  C   UNL     1      -2.188   9.528   5.420  0.00  0.00    +0.063 A 
ATOM     27  C   UNL     1      -2.603   8.654   4.404  0.00  0.00    +0.133 A 
ATOM     28  C   UNL     1      -3.899   8.738   3.924  0.00  0.00    +0.050 A 
ATOM     29  C   UNL     1      -0.820   9.469   5.949  0.00  0.00    -0.023 A 
ATOM     30  C   UNL     1      -0.470  10.338   6.922  0.00  0.00    +0.041 A 
ATOM     31  C   UNL     1      -1.430  11.263   7.403  0.00  0.00    +0.341 A 
ATOM     32  O   UNL     1      -1.108  12.040   8.284  0.00  0.00    -0.245 OA
ATOM     33  O   UNL     1      -2.679  11.310   6.921  0.00  0.00    -0.422 OA
ATOM     34  C   UNL     1       0.911  10.375   7.520  0.00  0.00    +0.042 C 
ATOM     35  C   UNL     1       1.660   9.077   7.229  0.00  0.00    +0.005 C 
ATOM     36  C   UNL     1       1.569   8.794   5.724  0.00  0.00    +0.005 C 
ATOM     37  C   UNL     1       0.122   8.438   5.390  0.00  0.00    +0.036 C 
ENDBRANCH  21  27
ENDBRANCH  19  21
ENDBRANCH   1  19
BRANCH   6  38
ATOM     38  O   UNL     1      -1.683   4.058  -1.943  0.00  0.00    -0.388 OA
ATOM     39  H   UNL     1      -2.527   3.732  -2.285  0.00  0.00    +0.210 HD
ENDBRANCH   6  38
TORSDOF 5
