REMARK  Name = ZINC59117874
REMARK  4 active torsions:
REMARK  status: ('A' for Active; 'I' for Inactive)
REMARK    1  A    between atoms: C_6  and  C_7
REMARK    2  A    between atoms: C_7  and  C_12
REMARK    3  A    between atoms: N_14  and  C_15
REMARK    4  A    between atoms: C_15  and  C_16
REMARK                            x       y       z     vdW  Elec       q    Type
REMARK                         _______ _______ _______ _____ _____    ______ ____
ROOT
ATOM      1  C   UNL     1      -1.449  -1.990   0.919  0.00  0.00    +0.224 C 
ATOM      2  O   UNL     1      -2.255  -1.833   1.812  0.00  0.00    -0.275 OA
ATOM      3  N   UNL     1      -0.423  -2.848   1.080  0.00  0.00    -0.310 N 
ATOM      4  H   UNL     1       0.264  -2.916   0.399  0.00  0.00    +0.149 HD
ENDROOT
BRANCH   1   5
ATOM      5  C   UNL     1      -1.596  -1.224  -0.371  0.00  0.00    +0.072 C 
ATOM      6  C   UNL     1      -1.609  -2.199  -1.567  0.00  0.00    +0.021 C 
ATOM      7  C   UNL     1      -3.114  -2.432  -1.850  0.00  0.00    +0.001 C 
ATOM      8  C   UNL     1      -3.729  -1.032  -1.602  0.00  0.00    +0.001 C 
ATOM      9  C   UNL     1      -2.944  -0.482  -0.394  0.00  0.00    +0.021 C 
BRANCH   5  15
ATOM     10  C   UNL     1      -0.320   0.475  -1.693  0.00  0.00    +0.008 A 
ATOM     11  C   UNL     1       0.718   1.377  -1.833  0.00  0.00    +0.050 A 
ATOM     12  C   UNL     1       1.620   1.564  -0.796  0.00  0.00    +0.162 A 
ATOM     13  C   UNL     1       1.475   0.846   0.385  0.00  0.00    +0.162 A 
ATOM     14  C   UNL     1       0.431  -0.058   0.518  0.00  0.00    +0.054 A 
ATOM     15  C   UNL     1      -0.463  -0.241  -0.519  0.00  0.00    -0.029 A 
ATOM     16  O   UNL     1       2.344   1.020   1.418  0.00  0.00    -0.485 OA
ATOM     17  C   UNL     1       3.589   1.656   1.110  0.00  0.00    +0.270 C 
ATOM     18  C   UNL     1       3.299   2.889   0.243  0.00  0.00    +0.270 C 
ATOM     19  O   UNL     1       2.640   2.452  -0.950  0.00  0.00    -0.485 OA
ENDBRANCH   5  15
ENDBRANCH   1   5
BRANCH   3  20
ATOM     20  C   UNL     1      -0.345  -3.679   2.284  0.00  0.00    +0.141 C 
BRANCH  20  21
ATOM     21  C   UNL     1       0.887  -4.544   2.219  0.00  0.00    -0.014 A 
ATOM     22  C   UNL     1       0.831  -5.802   1.633  0.00  0.00    +0.010 A 
ATOM     23  C   UNL     1       1.985  -6.563   1.593  0.00  0.00    +0.042 A 
ATOM     24  C   UNL     1       3.156  -6.047   2.139  0.00  0.00    +0.099 A 
ATOM     25  N   UNL     1       3.168  -4.843   2.690  0.00  0.00    -0.349 N 
ATOM     26  C   UNL     1       2.084  -4.092   2.736  0.00  0.00    +0.089 A 
ATOM     27  N   UNL     1       4.322  -6.802   2.107  0.00  0.00    -0.317 N 
ATOM     28  C   UNL     1       4.327  -8.038   1.357  0.00  0.00    +0.106 C 
ATOM     29  C   UNL     1       3.876  -9.203   2.273  0.00  0.00    +0.019 C 
ATOM     30  C   UNL     1       4.922  -9.510   3.261  0.00  0.00    +0.002 C 
ATOM     31  C   UNL     1       5.230  -8.369   4.226  0.00  0.00    +0.002 C 
ATOM     32  C   UNL     1       6.233  -7.436   3.593  0.00  0.00    +0.019 C 
ATOM     33  C   UNL     1       5.507  -6.306   2.835  0.00  0.00    +0.106 C 
ATOM     34  H   UNL     1       3.996  -4.503   3.065  0.00  0.00    +0.167 HD
ENDBRANCH  20  21
ENDBRANCH   3  20
TORSDOF 4
