REMARK  Name = ZINC09477510
REMARK  6 active torsions:
REMARK  status: ('A' for Active; 'I' for Inactive)
REMARK    1  A    between atoms: C_8  and  C_29
REMARK    2  A    between atoms: C_11  and  C_12
REMARK    3  A    between atoms: C_11  and  N_52
REMARK    4  A    between atoms: N_14  and  C_15
REMARK    5  A    between atoms: C_15  and  C_17
REMARK    6  A    between atoms: C_15  and  C_24
REMARK                            x       y       z     vdW  Elec       q    Type
REMARK                         _______ _______ _______ _____ _____    ______ ____
ROOT
ATOM      1  C   UNL     1       3.940   2.123  -2.701  0.00  0.00    +0.020 C 
ENDROOT
BRANCH   1  11
ATOM      2  C   UNL     1       2.291   1.549  -8.886  0.00  0.00    +0.000 A 
ATOM      3  C   UNL     1       1.208   2.040  -8.180  0.00  0.00    +0.000 A 
ATOM      4  C   UNL     1       1.293   2.194  -6.811  0.00  0.00    +0.002 A 
ATOM      5  C   UNL     1       2.459   1.859  -6.139  0.00  0.00    -0.061 A 
ATOM      6  C   UNL     1       3.539   1.372  -6.843  0.00  0.00    -0.047 A 
ATOM      7  C   UNL     1       3.452   1.216  -8.219  0.00  0.00    +0.004 A 
ATOM      8  C   UNL     1       4.830   1.005  -6.158  0.00  0.00    +0.029 C 
ATOM      9  C   UNL     1       4.597   0.849  -4.655  0.00  0.00    +0.024 C 
ATOM     10  C   UNL     1       2.502   2.041  -4.644  0.00  0.00    -0.041 C 
ATOM     11  N   UNL     1       3.899   2.061  -4.179  0.00  0.00    +0.396 N 
ATOM     12  H   UNL     1       4.368   2.890  -4.562  0.00  0.00    -0.080 HD
BRANCH   9  13
ATOM     13  C   UNL     1       5.922   0.723  -3.948  0.00  0.00    +0.197 C 
ATOM     14  O   UNL     1       6.537   1.718  -3.629  0.00  0.00    -0.278 OA
ATOM     15  N   UNL     1       6.423  -0.497  -3.670  0.00  0.00    -0.331 N 
ATOM     16  H   UNL     1       5.932  -1.293  -3.925  0.00  0.00    +0.145 HD
ATOM     17  H   UNL     1       7.276  -0.578  -3.215  0.00  0.00    +0.145 HD
ENDBRANCH   9  13
ENDBRANCH   1  11
BRANCH   1  18
ATOM     18  C   UNL     1       3.324   0.882  -2.108  0.00  0.00    +0.197 C 
ATOM     19  O   UNL     1       2.885   0.016  -2.835  0.00  0.00    -0.278 OA
ATOM     20  N   UNL     1       3.261   0.735  -0.769  0.00  0.00    -0.306 N 
ATOM     21  H   UNL     1       3.612   1.427  -0.188  0.00  0.00    +0.150 HD
BRANCH  20  22
ATOM     22  C   UNL     1       2.662  -0.472  -0.193  0.00  0.00    +0.140 C 
BRANCH  22  23
ATOM     23  C   UNL     1       3.228  -0.705   1.184  0.00  0.00    -0.022 A 
ATOM     24  C   UNL     1       3.447   0.366   2.031  0.00  0.00    +0.008 A 
ATOM     25  C   UNL     1       3.961   0.153   3.296  0.00  0.00    +0.038 A 
ATOM     26  C   UNL     1       4.267  -1.132   3.711  0.00  0.00    +0.123 A 
ATOM     27  C   UNL     1       4.051  -2.203   2.860  0.00  0.00    +0.038 A 
ATOM     28  C   UNL     1       3.532  -1.988   1.598  0.00  0.00    +0.008 A 
ATOM     29  F   UNL     1       4.775  -1.341   4.945  0.00  0.00    -0.205 F 
ENDBRANCH  22  23
BRANCH  22  30
ATOM     30  C   UNL     1       1.168  -0.295  -0.099  0.00  0.00    +0.014 A 
ATOM     31  C   UNL     1       0.185  -1.195  -0.347  0.00  0.00    +0.013 A 
ATOM     32  C   UNL     1      -1.133  -0.805  -0.199  0.00  0.00    +0.008 A 
ATOM     33  C   UNL     1      -1.403   0.461   0.202  0.00  0.00    +0.045 A 
ATOM     34  S   UNL     1       0.234   1.153   0.369  0.00  0.00    -0.099 S 
ENDBRANCH  22  30
ENDBRANCH  20  22
ENDBRANCH   1  18
TORSDOF 6
