REMARK  Name = ZINC39529460
REMARK  8 active torsions:
REMARK  status: ('A' for Active; 'I' for Inactive)
REMARK    1  A    between atoms: C_1  and  C_2
REMARK    2  A    between atoms: C_2  and  C_3
REMARK    3  A    between atoms: C_2  and  C_4
REMARK    4  A    between atoms: C_4  and  C_5
REMARK    5  A    between atoms: C_10  and  N_11
REMARK    6  A    between atoms: C_15  and  S_18
REMARK    7  A    between atoms: S_18  and  O_21
REMARK    8  A    between atoms: O_21  and  C_22
REMARK                            x       y       z     vdW  Elec       q    Type
REMARK                         _______ _______ _______ _____ _____    ______ ____
ROOT
ATOM      1  N   UNL     1      -1.625  -2.490   2.373  0.00  0.00    -0.331 N 
ATOM      2  C   UNL     1      -0.985  -3.795   2.601  0.00  0.00    +0.086 C 
ATOM      3  C   UNL     1      -0.371  -4.272   1.280  0.00  0.00    -0.061 C 
ATOM      4  N   UNL     1      -1.404  -4.278   0.236  0.00  0.00    +0.398 N 
ATOM      5  C   UNL     1      -1.867  -2.908  -0.017  0.00  0.00    +0.133 C 
ATOM      6  C   UNL     1      -2.559  -2.364   1.243  0.00  0.00    +0.115 C 
ATOM      7  H   UNL     1      -1.019  -4.663  -0.614  0.00  0.00    -0.083 HD
ATOM      8  H   UNL     1      -2.182  -4.845   0.537  0.00  0.00    -0.083 HD
ENDROOT
BRANCH   1  14
ATOM      9  C   UNL     1      -0.316  -0.535   2.910  0.00  0.00    -0.025 A 
ATOM     10  C   UNL     1      -0.059   0.542   3.735  0.00  0.00    +0.020 A 
ATOM     11  C   UNL     1      -0.833   0.754   4.862  0.00  0.00    +0.018 A 
ATOM     12  C   UNL     1      -1.869  -0.113   5.165  0.00  0.00    +0.017 A 
ATOM     13  C   UNL     1      -2.131  -1.192   4.344  0.00  0.00    +0.024 A 
ATOM     14  C   UNL     1      -1.358  -1.403   3.209  0.00  0.00    +0.033 A 
ATOM     15 BR   UNL     1      -0.477   2.229   5.989  0.00  0.00    -0.050 Br
BRANCH   9  16
ATOM     16  C   UNL     1       0.529  -0.764   1.684  0.00  0.00    +0.040 C 
BRANCH  16  18
ATOM     17  C   UNL     1      -0.203   1.388   0.647  0.00  0.00    +0.007 C 
ATOM     18  C   UNL     1      -0.152  -0.131   0.469  0.00  0.00    -0.013 C 
ATOM     19  C   UNL     1       0.640  -0.470  -0.795  0.00  0.00    +0.007 C 
ENDBRANCH  16  18
ENDBRANCH   9  16
ENDBRANCH   1  14
BRANCH   5  20
ATOM     20  S   UNL     1      -3.044  -2.912  -1.397  0.00  0.00    +0.109 S 
ATOM     21  O   UNL     1      -4.149  -3.752  -1.095  0.00  0.00    -0.138 OA
ATOM     22  O   UNL     1      -3.249  -1.587  -1.869  0.00  0.00    -0.138 OA
BRANCH  20  23
ATOM     23  O   UNL     1      -2.315  -3.620  -2.530  0.00  0.00    -0.347 OA
BRANCH  23  24
ATOM     24  C   UNL     1      -1.371  -2.857  -3.142  0.00  0.00    +0.156 A 
ATOM     25  C   UNL     1      -1.737  -1.972  -4.145  0.00  0.00    +0.048 A 
ATOM     26  C   UNL     1      -0.776  -1.198  -4.766  0.00  0.00    +0.004 A 
ATOM     27  C   UNL     1       0.550  -1.305  -4.388  0.00  0.00    +0.000 A 
ATOM     28  C   UNL     1       0.917  -2.187  -3.389  0.00  0.00    +0.004 A 
ATOM     29  C   UNL     1      -0.042  -2.959  -2.761  0.00  0.00    +0.048 A 
ENDBRANCH  23  24
ENDBRANCH  20  23
ENDBRANCH   5  20
TORSDOF 6
