REMARK  Name = ZINC44483345
REMARK  5 active torsions:
REMARK  status: ('A' for Active; 'I' for Inactive)
REMARK    1  A    between atoms: C_1  and  C_2
REMARK    2  A    between atoms: C_5  and  N_9
REMARK    3  A    between atoms: C_6  and  N_8
REMARK    4  A    between atoms: C_10  and  C_12
REMARK    5  A    between atoms: C_17  and  O_18
REMARK                            x       y       z     vdW  Elec       q    Type
REMARK                         _______ _______ _______ _____ _____    ______ ____
ROOT
ATOM      1  N   UNL     1       0.058  -4.176  -0.035  0.00  0.00    -0.280 N 
ATOM      2  C   UNL     1      -0.041  -4.840  -1.203  0.00  0.00    +0.252 C 
ATOM      3  O   UNL     1      -0.054  -4.226  -2.252  0.00  0.00    -0.270 OA
ATOM      4  H   UNL     1       0.150  -4.667   0.797  0.00  0.00    +0.155 HD
ENDROOT
BRANCH   1   9
ATOM      5  C   UNL     1      -0.067   1.502   0.016  0.00  0.00    +0.044 C 
ATOM      6  C   UNL     1      -0.032  -0.005   0.006  0.00  0.00    -0.049 A 
ATOM      7  C   UNL     1      -0.622  -0.701  -1.033  0.00  0.00    +0.005 A 
ATOM      8  C   UNL     1      -0.593  -2.083  -1.049  0.00  0.00    +0.025 A 
ATOM      9  C   UNL     1       0.028  -2.775  -0.021  0.00  0.00    +0.055 A 
ATOM     10  C   UNL     1       0.624  -2.073   1.027  0.00  0.00    +0.046 A 
ATOM     11  C   UNL     1       0.595  -0.686   1.032  0.00  0.00    +0.028 A 
BRANCH  10  12
ATOM     12  N   UNL     1       1.252  -2.766   2.068  0.00  0.00    -0.357 N 
ATOM     13  H   UNL     1       1.275  -3.735   2.061  0.00  0.00    +0.142 HD
ATOM     14  H   UNL     1       1.666  -2.276   2.796  0.00  0.00    +0.142 HD
ENDBRANCH  10  12
ENDBRANCH   1   9
BRANCH   2  15
ATOM     15  C   UNL     1      -0.132  -6.312  -1.208  0.00  0.00    +0.078 A 
ATOM     16  C   UNL     1      -0.123  -7.021  -0.004  0.00  0.00    +0.018 A 
ATOM     17  C   UNL     1      -0.209  -8.396  -0.015  0.00  0.00    +0.016 A 
ATOM     18  C   UNL     1      -0.305  -9.081  -1.217  0.00  0.00    +0.021 A 
ATOM     19  C   UNL     1      -0.315  -8.392  -2.415  0.00  0.00    +0.061 A 
ATOM     20  C   UNL     1      -0.235  -7.008  -2.421  0.00  0.00    +0.130 A 
ATOM     21 BR   UNL     1      -0.421 -10.968  -1.218  0.00  0.00    -0.050 Br
BRANCH  20  22
ATOM     22  O   UNL     1      -0.251  -6.329  -3.596  0.00  0.00    -0.506 OA
ATOM     23  H   UNL     1       0.626  -6.187  -3.980  0.00  0.00    +0.292 HD
ENDBRANCH  20  22
ENDBRANCH   2  15
TORSDOF 4
