REMARK  Name = ZINC12866846
REMARK  8 active torsions:
REMARK  status: ('A' for Active; 'I' for Inactive)
REMARK    1  A    between atoms: C_1  and  C_2
REMARK    2  A    between atoms: C_15  and  C_17
REMARK    3  A    between atoms: C_17  and  N_55
REMARK    4  A    between atoms: C_18  and  N_55
REMARK    5  A    between atoms: C_19  and  C_21
REMARK    6  A    between atoms: C_19  and  C_22
REMARK    7  A    between atoms: C_19  and  N_55
REMARK    8  A    between atoms: N_24  and  C_25
REMARK                            x       y       z     vdW  Elec       q    Type
REMARK                         _______ _______ _______ _____ _____    ______ ____
ROOT
ATOM      1  C   UNL     1       0.209   3.877  -2.134  0.00  0.00    +0.020 C 
ENDROOT
BRANCH   1  15
ATOM      2  C   UNL     1       0.090   5.157   2.315  0.00  0.00    +0.029 C 
ATOM      3  C   UNL     1       1.282   5.002   1.369  0.00  0.00    +0.087 C 
ATOM      4  C   UNL     1       2.441   4.340   2.115  0.00  0.00    +0.118 C 
ATOM      5  C   UNL     1       3.459   3.819   1.135  0.00  0.00    +0.219 C 
ATOM      6  O   UNL     1       4.501   4.418   0.975  0.00  0.00    -0.275 OA
ATOM      7  N   UNL     1       3.217   2.691   0.434  0.00  0.00    -0.284 N 
ATOM      8  C   UNL     1       1.981   2.043   0.534  0.00  0.00    +0.055 A 
ATOM      9  C   UNL     1       1.910   0.678   0.755  0.00  0.00    +0.025 A 
ATOM     10  C   UNL     1       0.677   0.054   0.821  0.00  0.00    +0.002 A 
ATOM     11  C   UNL     1      -0.484   0.788   0.661  0.00  0.00    +0.002 A 
ATOM     12  C   UNL     1      -0.422   2.153   0.446  0.00  0.00    +0.025 A 
ATOM     13  C   UNL     1       0.808   2.787   0.392  0.00  0.00    +0.058 A 
ATOM     14  N   UNL     1       0.890   4.175   0.226  0.00  0.00    -0.268 N 
ATOM     15  C   UNL     1       0.612   4.740  -0.966  0.00  0.00    +0.204 C 
ATOM     16  O   UNL     1       0.685   5.944  -1.098  0.00  0.00    -0.277 OA
ATOM     17  H   UNL     1       3.906   2.327  -0.144  0.00  0.00    +0.155 HD
ENDBRANCH   1  15
BRANCH   1  19
ATOM     18  C   UNL     1       1.201   5.371  -3.761  0.00  0.00    -0.094 C 
ATOM     19  N   UNL     1      -0.057   4.746  -3.300  0.00  0.00    +0.391 N 
ATOM     20  H   UNL     1      -0.714   5.484  -3.022  0.00  0.00    -0.080 HD
BRANCH  19  21
ATOM     21  C   UNL     1      -0.657   3.954  -4.393  0.00  0.00    +0.017 C 
ATOM     22  C   UNL     1       0.162   2.688  -4.652  0.00  0.00    -0.004 C 
BRANCH  21  23
ATOM     23  C   UNL     1      -2.061   3.572  -4.001  0.00  0.00    +0.203 C 
ATOM     24  O   UNL     1      -2.501   3.906  -2.921  0.00  0.00    -0.277 OA
ATOM     25  N   UNL     1      -2.828   2.858  -4.849  0.00  0.00    -0.284 N 
ATOM     26  H   UNL     1      -2.504   2.654  -5.740  0.00  0.00    +0.155 HD
BRANCH  25  27
ATOM     27  C   UNL     1      -4.092   2.413  -4.445  0.00  0.00    +0.072 A 
ATOM     28  C   UNL     1      -4.854   3.180  -3.574  0.00  0.00    +0.064 A 
ATOM     29  C   UNL     1      -6.103   2.737  -3.176  0.00  0.00    +0.125 A 
ATOM     30  C   UNL     1      -6.593   1.529  -3.646  0.00  0.00    +0.041 A 
ATOM     31  C   UNL     1      -5.836   0.763  -4.513  0.00  0.00    +0.043 A 
ATOM     32  C   UNL     1      -4.589   1.204  -4.919  0.00  0.00    +0.145 A 
ATOM     33  F   UNL     1      -3.853   0.457  -5.771  0.00  0.00    -0.204 F 
ATOM     34  F   UNL     1      -6.845   3.482  -2.328  0.00  0.00    -0.205 F 
ENDBRANCH  25  27
ENDBRANCH  21  23
ENDBRANCH  19  21
ENDBRANCH   1  19
TORSDOF 5
