REMARK  Name = ZINC09065760
REMARK  4 active torsions:
REMARK  status: ('A' for Active; 'I' for Inactive)
REMARK    1  A    between atoms: C_15  and  C_17
REMARK    2  A    between atoms: N_19  and  C_20
REMARK    3  A    between atoms: N_29  and  C_32
REMARK    4  A    between atoms: C_35  and  N_38
REMARK                            x       y       z     vdW  Elec       q    Type
REMARK                         _______ _______ _______ _____ _____    ______ ____
ROOT
ATOM      1  C   UNL     1       1.067   8.962   0.634  0.00  0.00    +0.001 A 
ATOM      2  C   UNL     1       0.717   8.540   1.904  0.00  0.00    +0.000 A 
ATOM      3  C   UNL     1      -0.365   7.695   2.085  0.00  0.00    +0.006 A 
ATOM      4  C   UNL     1      -1.097   7.271   0.998  0.00  0.00    -0.021 A 
ATOM      5  C   UNL     1      -0.744   7.681  -0.290  0.00  0.00    -0.019 A 
ATOM      6  C   UNL     1       0.345   8.540  -0.463  0.00  0.00    +0.008 A 
ATOM      7  C   UNL     1      -1.489   7.197  -1.469  0.00  0.00    +0.022 C 
ATOM      8  C   UNL     1      -2.305   6.144  -1.335  0.00  0.00    +0.054 C 
ATOM      9  C   UNL     1      -2.292   6.362   1.189  0.00  0.00    +0.100 C 
ATOM     10  C   UNL     1      -2.091   5.317   2.208  0.00  0.00    +0.113 C 
ATOM     11  C   UNL     1      -3.037   4.160   1.705  0.00  0.00    +0.118 C 
ATOM     12  C   UNL     1      -2.570   4.140   0.252  0.00  0.00    +0.156 C 
ATOM     13  C   UNL     1      -2.574   3.118   2.674  0.00  0.00    +0.232 C 
ATOM     14  O   UNL     1      -2.490   1.925   2.478  0.00  0.00    -0.274 OA
ATOM     15  N   UNL     1      -2.265   3.785   3.826  0.00  0.00    -0.210 N 
ATOM     16  C   UNL     1      -2.159   5.135   3.637  0.00  0.00    +0.232 C 
ATOM     17  O   UNL     1      -2.129   5.994   4.492  0.00  0.00    -0.274 OA
ATOM     18  N   UNL     1      -2.751   5.618   0.028  0.00  0.00    -0.383 NA
ATOM     19  H   UNL     1      -3.768   5.760   0.024  0.00  0.00    +0.127 HD
ENDROOT
BRANCH  15  20
ATOM     20  C   UNL     1      -2.090   3.155   5.066  0.00  0.00    +0.044 A 
ATOM     21  C   UNL     1      -1.770   3.905   6.189  0.00  0.00    +0.026 A 
ATOM     22  C   UNL     1      -1.603   3.281   7.410  0.00  0.00    +0.034 A 
ATOM     23  C   UNL     1      -1.743   1.910   7.512  0.00  0.00    +0.126 A 
ATOM     24  C   UNL     1      -2.057   1.159   6.394  0.00  0.00    +0.034 A 
ATOM     25  C   UNL     1      -2.230   1.778   5.171  0.00  0.00    +0.026 A 
BRANCH  23  26
ATOM     26  N   UNL     1      -1.558   1.244   8.821  0.00  0.00    +0.056 N 
ATOM     27  O   UNL     1      -1.682   0.035   8.912  0.00  0.00    -0.126 OA
ATOM     28  O   UNL     1      -1.282   1.904   9.807  0.00  0.00    -0.126 OA
ENDBRANCH  23  26
ENDBRANCH  15  20
BRANCH  12  29
ATOM     29  C   UNL     1      -1.256   3.412   0.128  0.00  0.00    +0.237 C 
ATOM     30  O   UNL     1      -0.216   4.035   0.127  0.00  0.00    -0.273 OA
ATOM     31  N   UNL     1      -1.238   2.069   0.019  0.00  0.00    -0.284 N 
ATOM     32  H   UNL     1      -2.070   1.577  -0.057  0.00  0.00    +0.155 HD
BRANCH  31  33
ATOM     33  C   UNL     1      -0.017   1.384   0.015  0.00  0.00    +0.034 A 
ATOM     34  C   UNL     1       0.126   0.222  -0.731  0.00  0.00    +0.025 A 
ATOM     35  C   UNL     1       1.330  -0.455  -0.729  0.00  0.00    +0.022 A 
ATOM     36  C   UNL     1       2.393   0.024   0.017  0.00  0.00    +0.041 A 
ATOM     37  C   UNL     1       2.253   1.181   0.763  0.00  0.00    +0.022 A 
ATOM     38  C   UNL     1       1.051   1.862   0.763  0.00  0.00    +0.025 A 
ATOM     39 CL   UNL     1       3.905  -0.830   0.018  0.00  0.00    -0.084 Cl
ENDBRANCH  31  33
ENDBRANCH  12  29
TORSDOF 4
