REMARK  Name = ZINC13499138
REMARK  11 active torsions:
REMARK  status: ('A' for Active; 'I' for Inactive)
REMARK    1  A    between atoms: C_1  and  C_2
REMARK    2  A    between atoms: C_7  and  C_15
REMARK    3  A    between atoms: C_13  and  C_14
REMARK    4  A    between atoms: C_15  and  N_78
REMARK    5  A    between atoms: C_16  and  N_78
REMARK    6  A    between atoms: C_22  and  C_24
REMARK    7  A    between atoms: C_22  and  C_35
REMARK    8  A    between atoms: C_22  and  N_78
REMARK    9  A    between atoms: N_28  and  C_29
REMARK   10  A    between atoms: C_35  and  C_36
REMARK   11  A    between atoms: C_35  and  C_37
REMARK                            x       y       z     vdW  Elec       q    Type
REMARK                         _______ _______ _______ _____ _____    ______ ____
ROOT
ATOM      1  N   UNL     1       0.916  -1.952   1.215  0.00  0.00    +0.391 N 
ATOM      2  H   UNL     1       1.364  -2.086   0.301  0.00  0.00    -0.080 HD
ENDROOT
BRANCH   1   3
ATOM      3  C   UNL     1       0.902  -0.509   1.536  0.00  0.00    -0.067 C 
ATOM      4  C   UNL     1       2.327   0.036   1.424  0.00  0.00    -0.015 C 
ATOM      5  C   UNL     1       2.325   1.534   1.732  0.00  0.00    -0.002 C 
ATOM      6  C   UNL     1       1.802   1.763   3.151  0.00  0.00    -0.000 C 
ATOM      7  C   UNL     1       0.377   1.217   3.264  0.00  0.00    -0.002 C 
ATOM      8  C   UNL     1       0.379  -0.281   2.956  0.00  0.00    -0.015 C 
ENDBRANCH   1   3
BRANCH   1   9
ATOM      9  C   UNL     1      -0.467  -2.469   1.152  0.00  0.00    -0.036 C 
BRANCH   9  16
ATOM     10  C   UNL     1      -3.354  -1.263  -6.185  0.00  0.00    +0.044 C 
ATOM     11  C   UNL     1      -2.738  -1.698  -4.881  0.00  0.00    -0.046 A 
ATOM     12  C   UNL     1      -2.130  -2.943  -4.789  0.00  0.00    +0.004 A 
ATOM     13  C   UNL     1      -1.566  -3.357  -3.616  0.00  0.00    +0.010 A 
ATOM     14  C   UNL     1      -1.600  -2.519  -2.497  0.00  0.00    -0.001 A 
ATOM     15  C   UNL     1      -1.006  -2.930  -1.224  0.00  0.00    +0.017 A 
ATOM     16  C   UNL     1      -1.070  -2.076  -0.172  0.00  0.00    +0.001 A 
ATOM     17  C   UNL     1      -1.703  -0.823  -0.313  0.00  0.00    +0.251 A 
ATOM     18  O   UNL     1      -1.754  -0.072   0.646  0.00  0.00    -0.268 OA
ATOM     19  N   UNL     1      -2.247  -0.434  -1.479  0.00  0.00    -0.322 N 
ATOM     20  H   UNL     1      -2.671   0.436  -1.542  0.00  0.00    +0.169 HD
ATOM     21  C   UNL     1      -2.215  -1.256  -2.585  0.00  0.00    +0.052 A 
ATOM     22  C   UNL     1      -2.783  -0.856  -3.791  0.00  0.00    -0.024 A 
ATOM     23  C   UNL     1      -3.445   0.493  -3.905  0.00  0.00    +0.046 C 
ENDBRANCH   9  16
ENDBRANCH   1   9
BRANCH   1  24
ATOM     24  C   UNL     1       1.685  -2.690   2.239  0.00  0.00    +0.006 C 
BRANCH  24  25
ATOM     25  C   UNL     1       0.875  -2.840   3.501  0.00  0.00    +0.139 A 
ATOM     26  N   UNL     1      -0.390  -3.171   3.584  0.00  0.00    -0.115 NA
ATOM     27  N   UNL     1      -0.714  -3.195   4.831  0.00  0.00    -0.023 NA
ATOM     28  N   UNL     1       0.309  -2.880   5.545  0.00  0.00    -0.044 NA
ATOM     29  N   UNL     1       1.309  -2.653   4.761  0.00  0.00    -0.228 N 
BRANCH  29  30
ATOM     30  C   UNL     1       2.663  -2.266   5.167  0.00  0.00    +0.111 C 
ATOM     31  C   UNL     1       3.255  -3.352   6.067  0.00  0.00    +0.027 C 
ATOM     32  C   UNL     1       4.669  -2.948   6.491  0.00  0.00    +0.002 C 
ATOM     33  C   UNL     1       4.613  -1.625   7.257  0.00  0.00    +0.000 C 
ATOM     34  C   UNL     1       4.020  -0.539   6.357  0.00  0.00    +0.002 C 
ATOM     35  C   UNL     1       2.606  -0.943   5.934  0.00  0.00    +0.027 C 
ENDBRANCH  29  30
ENDBRANCH  24  25
BRANCH  24  36
ATOM     36  C   UNL     1       2.032  -4.075   1.688  0.00  0.00    -0.024 C 
ATOM     37  C   UNL     1       2.937  -3.925   0.464  0.00  0.00    +0.006 C 
ATOM     38  C   UNL     1       2.760  -4.884   2.764  0.00  0.00    +0.006 C 
ENDBRANCH  24  36
ENDBRANCH   1  24
TORSDOF 7
