REMARK  Name = ZINC00918842
REMARK  11 active torsions:
REMARK  status: ('A' for Active; 'I' for Inactive)
REMARK    1  A    between atoms: C_1  and  O_2
REMARK    2  A    between atoms: O_2  and  C_3
REMARK    3  A    between atoms: C_7  and  C_17
REMARK    4  A    between atoms: C_14  and  O_15
REMARK    5  A    between atoms: O_15  and  C_16
REMARK    6  A    between atoms: C_17  and  N_18
REMARK    7  A    between atoms: N_18  and  C_19
REMARK    8  A    between atoms: N_18  and  S_27
REMARK    9  A    between atoms: C_19  and  C_20
REMARK   10  A    between atoms: S_27  and  C_30
REMARK   11  A    between atoms: C_34  and  C_36
REMARK                            x       y       z     vdW  Elec       q    Type
REMARK                         _______ _______ _______ _____ _____    ______ ____
ROOT
ATOM      1  N   UNL     1      -5.491   3.943  -1.330  0.00  0.00    -0.168 NA
ENDROOT
BRANCH   1   2
ATOM      2  S   UNL     1      -5.221   5.336  -2.185  0.00  0.00    +0.061 S 
ATOM      3  O   UNL     1      -6.311   5.477  -3.086  0.00  0.00    -0.153 OA
ATOM      4  O   UNL     1      -4.884   6.337  -1.234  0.00  0.00    -0.153 OA
BRANCH   2   5
ATOM      5  C   UNL     1      -3.784   5.072  -3.170  0.00  0.00    +0.106 A 
ATOM      6  C   UNL     1      -2.535   5.387  -2.668  0.00  0.00    +0.028 A 
ATOM      7  C   UNL     1      -1.407   5.176  -3.439  0.00  0.00    +0.002 A 
ATOM      8  C   UNL     1      -1.530   4.659  -4.716  0.00  0.00    +0.012 A 
ATOM      9  C   UNL     1      -2.779   4.348  -5.219  0.00  0.00    +0.057 A 
ATOM     10  C   UNL     1      -3.906   4.555  -4.446  0.00  0.00    +0.041 A 
BRANCH   9  11
ATOM     11  C   UNL     1      -2.912   3.785  -6.610  0.00  0.00    +0.417 C 
ATOM     12  F   UNL     1      -3.061   4.832  -7.525  0.00  0.00    -0.166 F 
ATOM     13  F   UNL     1      -1.766   3.048  -6.927  0.00  0.00    -0.166 F 
ATOM     14  F   UNL     1      -4.034   2.950  -6.670  0.00  0.00    -0.166 F 
ENDBRANCH   9  11
ENDBRANCH   2   5
ENDBRANCH   1   2
BRANCH   1  15
ATOM     15  C   UNL     1      -4.997   3.819   0.043  0.00  0.00    +0.150 C 
BRANCH  15  20
ATOM     16  C   UNL     1       1.168   3.183   0.007  0.00  0.00    +0.162 A 
ATOM     17  C   UNL     1      -0.025   3.871   0.022  0.00  0.00    +0.059 A 
ATOM     18  C   UNL     1      -1.234   3.163   0.030  0.00  0.00    +0.003 A 
ATOM     19  C   UNL     1      -2.517   3.863   0.046  0.00  0.00    +0.020 A 
ATOM     20  C   UNL     1      -3.658   3.128   0.035  0.00  0.00    +0.033 A 
ATOM     21  C   UNL     1      -3.595   1.720   0.027  0.00  0.00    +0.254 A 
ATOM     22  O   UNL     1      -4.632   1.078   0.029  0.00  0.00    -0.268 OA
ATOM     23  N   UNL     1      -2.421   1.066   0.019  0.00  0.00    -0.322 N 
ATOM     24  H   UNL     1      -2.413   0.066   0.014  0.00  0.00    +0.169 HD
ATOM     25  C   UNL     1      -1.224   1.755   0.017  0.00  0.00    +0.053 A 
ATOM     26  C   UNL     1      -0.013   1.076   0.008  0.00  0.00    +0.075 A 
ATOM     27  C   UNL     1       1.175   1.784   0.000  0.00  0.00    +0.163 A 
BRANCH  16  29
ATOM     28  C   UNL     1       2.266   5.293   0.006  0.00  0.00    +0.277 C 
ATOM     29  O   UNL     1       2.344   3.866  -0.001  0.00  0.00    -0.491 OA
ENDBRANCH  16  29
BRANCH  27  30
ATOM     30  O   UNL     1       2.358   1.116  -0.014  0.00  0.00    -0.491 OA
ATOM     31  C   UNL     1       2.296  -0.311  -0.021  0.00  0.00    +0.277 C 
ENDBRANCH  27  30
ENDBRANCH  15  20
ENDBRANCH   1  15
BRANCH   1  32
ATOM     32  C   UNL     1      -6.225   2.835  -1.948  0.00  0.00    +0.145 C 
BRANCH  32  33
ATOM     33  C   UNL     1      -7.681   2.924  -1.569  0.00  0.00    -0.031 A 
ATOM     34  C   UNL     1      -8.139   2.283  -0.433  0.00  0.00    +0.008 A 
ATOM     35  C   UNL     1      -9.473   2.367  -0.083  0.00  0.00    +0.038 A 
ATOM     36  C   UNL     1     -10.353   3.086  -0.875  0.00  0.00    +0.123 A 
ATOM     37  C   UNL     1      -9.893   3.723  -2.015  0.00  0.00    +0.038 A 
ATOM     38  C   UNL     1      -8.558   3.642  -2.361  0.00  0.00    +0.008 A 
ATOM     39  F   UNL     1     -11.658   3.165  -0.536  0.00  0.00    -0.205 F 
ENDBRANCH  32  33
ENDBRANCH   1  32
TORSDOF 9
