REMARK  Name = ZINC13063772
REMARK  13 active torsions:
REMARK  status: ('A' for Active; 'I' for Inactive)
REMARK    1  A    between atoms: C_1  and  C_2
REMARK    2  A    between atoms: C_2  and  C_3
REMARK    3  A    between atoms: C_3  and  C_5
REMARK    4  A    between atoms: C_3  and  N_68
REMARK    5  A    between atoms: N_9  and  C_10
REMARK    6  A    between atoms: C_10  and  C_11
REMARK    7  A    between atoms: C_10  and  C_12
REMARK    8  A    between atoms: C_10  and  C_13
REMARK    9  A    between atoms: C_14  and  C_15
REMARK   10  A    between atoms: C_14  and  N_68
REMARK   11  A    between atoms: C_24  and  C_25
REMARK   12  A    between atoms: C_24  and  N_68
REMARK   13  A    between atoms: C_30  and  C_37
REMARK                            x       y       z     vdW  Elec       q    Type
REMARK                         _______ _______ _______ _____ _____    ______ ____
ROOT
ATOM      1  N   UNL     1      -0.093   1.901  -1.322  0.00  0.00    +0.392 N 
ATOM      2  H   UNL     1      -1.057   1.626  -1.098  0.00  0.00    -0.080 HD
ENDROOT
BRANCH   1   3
ATOM      3  C   UNL     1       0.699   1.935  -0.074  0.00  0.00    +0.003 C 
BRANCH   3   4
ATOM      4  C   UNL     1       0.165   0.880   0.862  0.00  0.00    +0.139 A 
ATOM      5  N   UNL     1      -0.279  -0.307   0.530  0.00  0.00    -0.115 NA
ATOM      6  N   UNL     1      -0.645  -0.910   1.609  0.00  0.00    -0.023 NA
ATOM      7  N   UNL     1      -0.445  -0.138   2.619  0.00  0.00    -0.043 NA
ATOM      8  N   UNL     1       0.059   0.973   2.200  0.00  0.00    -0.226 N 
BRANCH   8   9
ATOM      9  C   UNL     1       0.440   2.122   3.026  0.00  0.00    +0.059 C 
ATOM     10  C   UNL     1      -0.470   3.308   2.701  0.00  0.00    +0.036 C 
ATOM     11  C   UNL     1       0.295   1.758   4.505  0.00  0.00    +0.036 C 
ATOM     12  C   UNL     1       1.894   2.500   2.734  0.00  0.00    +0.036 C 
ENDBRANCH   8   9
ENDBRANCH   3   4
BRANCH   3  14
ATOM     13  C   UNL     1       2.732   2.761  -1.268  0.00  0.00    +0.002 C 
ATOM     14  C   UNL     1       2.173   1.655  -0.370  0.00  0.00    -0.011 C 
ENDBRANCH   3  14
ENDBRANCH   1   3
BRANCH   1  15
ATOM     15  C   UNL     1       0.483   0.913  -2.258  0.00  0.00    -0.041 C 
BRANCH  15  16
ATOM     16  C   UNL     1      -0.080  -0.446  -1.930  0.00  0.00    -0.060 A 
ATOM     17  C   UNL     1       0.649  -1.323  -1.148  0.00  0.00    +0.005 A 
ATOM     18  C   UNL     1       0.135  -2.569  -0.839  0.00  0.00    +0.050 A 
ATOM     19  C   UNL     1      -1.108  -2.945  -1.322  0.00  0.00    +0.166 A 
ATOM     20  C   UNL     1      -1.839  -2.063  -2.114  0.00  0.00    +0.166 A 
ATOM     21  C   UNL     1      -1.321  -0.815  -2.415  0.00  0.00    +0.051 A 
ATOM     22  O   UNL     1      -3.017  -2.662  -2.460  0.00  0.00    -0.453 OA
ATOM     23  C   UNL     1      -2.821  -4.067  -2.214  0.00  0.00    +0.466 C 
ATOM     24  O   UNL     1      -1.827  -4.096  -1.173  0.00  0.00    -0.453 OA
ENDBRANCH  15  16
ENDBRANCH   1  15
BRANCH   1  25
ATOM     25  C   UNL     1      -0.108   3.240  -1.947  0.00  0.00    -0.036 C 
BRANCH  25  26
ATOM     26  C   UNL     1      -1.099   4.105  -1.210  0.00  0.00    +0.001 A 
ATOM     27  C   UNL     1      -0.667   4.962  -0.253  0.00  0.00    +0.017 A 
ATOM     28  C   UNL     1      -1.655   5.787   0.444  0.00  0.00    -0.001 A 
ATOM     29  C   UNL     1      -1.270   6.690   1.441  0.00  0.00    +0.010 A 
ATOM     30  C   UNL     1      -2.217   7.446   2.072  0.00  0.00    +0.004 A 
ATOM     31  C   UNL     1      -3.558   7.328   1.732  0.00  0.00    -0.048 A 
ATOM     32  C   UNL     1      -3.960   6.446   0.753  0.00  0.00    +0.029 A 
ATOM     33  C   UNL     1      -3.014   5.664   0.097  0.00  0.00    +0.049 A 
ATOM     34  N   UNL     1      -3.388   4.774  -0.887  0.00  0.00    -0.322 N 
ATOM     35  H   UNL     1      -4.325   4.691  -1.125  0.00  0.00    +0.169 HD
ATOM     36  C   UNL     1      -2.473   4.024  -1.525  0.00  0.00    +0.251 A 
ATOM     37  O   UNL     1      -2.839   3.250  -2.393  0.00  0.00    -0.268 OA
ATOM     38  C   UNL     1      -4.584   8.173   2.442  0.00  0.00    +0.044 C 
ENDBRANCH  25  26
ENDBRANCH   1  25
TORSDOF 8
