REMARK  Name = ZINC36725716
REMARK  4 active torsions:
REMARK  status: ('A' for Active; 'I' for Inactive)
REMARK    1  A    between atoms: C_6  and  S_7
REMARK    2  A    between atoms: S_7  and  N_10
REMARK    3  A    between atoms: C_16  and  C_18
REMARK    4  A    between atoms: C_23  and  O_24
REMARK                            x       y       z     vdW  Elec       q    Type
REMARK                         _______ _______ _______ _____ _____    ______ ____
ROOT
ATOM      1  N   UNL     1      -1.473  -0.733  -1.619  0.00  0.00    -0.174 NA
ATOM      2  C   UNL     1      -2.328   0.228  -2.330  0.00  0.00    +0.128 C 
ATOM      3  C   UNL     1      -1.732   0.479  -3.721  0.00  0.00    +0.125 C 
ATOM      4  N   UNL     1      -1.448  -0.818  -4.351  0.00  0.00    -0.295 N 
ATOM      5  C   UNL     1      -0.593  -1.779  -3.640  0.00  0.00    +0.125 C 
ATOM      6  C   UNL     1      -1.185  -2.028  -2.252  0.00  0.00    +0.128 C 
ATOM      7  C   UNL     1      -1.963  -1.121  -5.559  0.00  0.00    +0.250 C 
ATOM      8  O   UNL     1      -1.661  -2.165  -6.104  0.00  0.00    -0.270 OA
ENDROOT
BRANCH   7   9
ATOM      9  C   UNL     1      -2.894  -0.186  -6.220  0.00  0.00    +0.079 A 
ATOM     10  C   UNL     1      -2.521   1.144  -6.431  0.00  0.00    +0.032 A 
ATOM     11  C   UNL     1      -3.395   2.013  -7.049  0.00  0.00    +0.019 A 
ATOM     12  C   UNL     1      -4.643   1.573  -7.463  0.00  0.00    +0.019 A 
ATOM     13  C   UNL     1      -5.023   0.261  -7.260  0.00  0.00    +0.047 A 
ATOM     14  C   UNL     1      -4.154  -0.628  -6.645  0.00  0.00    +0.129 A 
ATOM     15 BR   UNL     1      -2.890   3.813  -7.333  0.00  0.00    -0.050 Br
BRANCH  14  16
ATOM     16  O   UNL     1      -4.524  -1.919  -6.451  0.00  0.00    -0.506 OA
ATOM     17  H   UNL     1      -4.972  -2.076  -5.609  0.00  0.00    +0.292 HD
ENDBRANCH  14  16
ENDBRANCH   7   9
BRANCH   1  18
ATOM     18  S   UNL     1      -0.840  -0.361  -0.135  0.00  0.00    +0.061 S 
ATOM     19  O   UNL     1      -0.563  -1.597   0.510  0.00  0.00    -0.153 OA
ATOM     20  O   UNL     1      -1.693   0.622   0.436  0.00  0.00    -0.153 OA
BRANCH  18  26
ATOM     21  C   UNL     1       0.779   1.794  -0.557  0.00  0.00    +0.032 A 
ATOM     22  C   UNL     1       1.997   2.412  -0.776  0.00  0.00    +0.051 A 
ATOM     23  C   UNL     1       3.156   1.655  -0.852  0.00  0.00    +0.162 A 
ATOM     24  C   UNL     1       3.091   0.274  -0.704  0.00  0.00    +0.164 A 
ATOM     25  C   UNL     1       1.867  -0.339  -0.485  0.00  0.00    +0.078 A 
ATOM     26  C   UNL     1       0.714   0.421  -0.413  0.00  0.00    +0.109 A 
ATOM     27  O   UNL     1       4.218  -0.487  -0.767  0.00  0.00    -0.485 OA
ATOM     28  C   UNL     1       5.372   0.121  -1.357  0.00  0.00    +0.270 C 
ATOM     29  C   UNL     1       5.529   1.529  -0.768  0.00  0.00    +0.270 C 
ATOM     30  O   UNL     1       4.346   2.277  -1.073  0.00  0.00    -0.485 OA
ENDBRANCH  18  26
ENDBRANCH   1  18
TORSDOF 4
