REMARK  Name = ZINC39124240
REMARK  4 active torsions:
REMARK  status: ('A' for Active; 'I' for Inactive)
REMARK    1  A    between atoms: C_1  and  C_2
REMARK    2  A    between atoms: C_2  and  C_17
REMARK    3  A    between atoms: C_8  and  N_13
REMARK    4  A    between atoms: N_13  and  C_14
REMARK                            x       y       z     vdW  Elec       q    Type
REMARK                         _______ _______ _______ _____ _____    ______ ____
ROOT
ATOM      1  C   UNL     1      -0.019   1.526   0.010  0.00  0.00    +0.065 C 
ATOM      2  C   UNL     1       0.002  -0.004   0.002  0.00  0.00    +0.180 C 
ATOM      3  C   UNL     1      -1.413  -0.525   0.009  0.00  0.00    +0.261 C 
ATOM      4  O   UNL     1      -2.306   0.131  -0.484  0.00  0.00    -0.271 OA
ATOM      5  N   UNL     1      -1.681  -1.726   0.565  0.00  0.00    -0.279 N 
ATOM      6  C   UNL     1      -0.637  -2.449   1.159  0.00  0.00    +0.077 A 
ATOM      7  C   UNL     1      -0.786  -3.795   1.450  0.00  0.00    +0.050 A 
ATOM      8  C   UNL     1       0.260  -4.493   2.040  0.00  0.00    +0.029 A 
ATOM      9  C   UNL     1       1.451  -3.842   2.335  0.00  0.00    +0.026 A 
ATOM     10  C   UNL     1       1.599  -2.498   2.044  0.00  0.00    +0.049 A 
ATOM     11  C   UNL     1       0.560  -1.799   1.456  0.00  0.00    +0.143 A 
ATOM     12  O   UNL     1       0.694  -0.477   1.161  0.00  0.00    -0.475 OA
ATOM     13  C   UNL     1       0.720  -0.497  -1.256  0.00  0.00    +0.065 C 
ATOM     14  H   UNL     1      -2.583  -2.083   0.555  0.00  0.00    +0.155 HD
ENDROOT
BRANCH   8  15
ATOM     15  N   UNL     1       0.114  -5.852   2.336  0.00  0.00    -0.341 N 
ATOM     16  H   UNL     1      -0.717  -6.307   2.130  0.00  0.00    +0.146 HD
BRANCH  15  17
ATOM     17  C   UNL     1       1.218  -6.589   2.958  0.00  0.00    +0.070 C 
ATOM     18  C   UNL     1       1.535  -7.982   2.410  0.00  0.00    +0.024 C 
ATOM     19  C   UNL     1       0.864  -7.832   3.777  0.00  0.00    +0.024 C 
ENDBRANCH  15  17
ENDBRANCH   8  15
TORSDOF 2
