REMARK  Name = ZINC11589918
REMARK  12 active torsions:
REMARK  status: ('A' for Active; 'I' for Inactive)
REMARK    1  A    between atoms: C_1  and  C_2
REMARK    2  A    between atoms: C_2  and  C_3
REMARK    3  A    between atoms: C_3  and  C_4
REMARK    4  A    between atoms: C_4  and  N_5
REMARK    5  A    between atoms: C_13  and  C_16
REMARK    6  A    between atoms: C_16  and  C_17
REMARK    7  A    between atoms: C_17  and  C_18
REMARK    8  A    between atoms: C_18  and  O_20
REMARK    9  A    between atoms: O_20  and  C_21
REMARK   10  A    between atoms: C_21  and  C_22
REMARK   11  A    between atoms: N_24  and  C_25
REMARK   12  A    between atoms: C_26  and  C_33
REMARK                            x       y       z     vdW  Elec       q    Type
REMARK                         _______ _______ _______ _____ _____    ______ ____
ROOT
ATOM      1  C   UNL     1       1.395   2.047  -0.000  0.00  0.00    +0.308 C 
ATOM      2  O   UNL     1       2.324   1.275  -0.013  0.00  0.00    -0.251 OA
ENDROOT
BRANCH   1   3
ATOM      3  C   UNL     1      -0.019   1.526   0.010  0.00  0.00    +0.127 C 
BRANCH   3   4
ATOM      4  C   UNL     1       0.002  -0.004   0.002  0.00  0.00    +0.072 C 
BRANCH   4  13
ATOM      5  N   UNL     1      -2.930  -2.425   0.017  0.00  0.00    -0.305 N 
ATOM      6  C   UNL     1      -3.964  -1.510   0.031  0.00  0.00    +0.070 A 
ATOM      7  C   UNL     1      -5.287  -1.944   0.041  0.00  0.00    +0.028 A 
ATOM      8  C   UNL     1      -6.310  -1.023   0.056  0.00  0.00    +0.002 A 
ATOM      9  C   UNL     1      -6.034   0.339   0.061  0.00  0.00    +0.002 A 
ATOM     10  C   UNL     1      -4.746   0.787   0.052  0.00  0.00    +0.030 A 
ATOM     11  C   UNL     1      -3.684  -0.131   0.036  0.00  0.00    +0.088 A 
ATOM     12  N   UNL     1      -2.411   0.309   0.027  0.00  0.00    -0.245 NA
ATOM     13  C   UNL     1      -1.412  -0.526   0.013  0.00  0.00    +0.107 A 
ATOM     14  C   UNL     1      -1.657  -1.972   0.001  0.00  0.00    +0.273 A 
ATOM     15  O   UNL     1      -0.725  -2.755  -0.017  0.00  0.00    -0.266 OA
BRANCH   5  16
ATOM     16  C   UNL     1      -3.209  -3.863   0.011  0.00  0.00    +0.125 C 
BRANCH  16  17
ATOM     17  C   UNL     1      -3.318  -4.356  -1.433  0.00  0.00    +0.021 C 
BRANCH  17  19
ATOM     18  C   UNL     1      -3.719  -6.350  -2.883  0.00  0.00    +0.004 C 
ATOM     19  C   UNL     1      -3.609  -5.858  -1.439  0.00  0.00    -0.002 C 
ENDBRANCH  17  19
ENDBRANCH  16  17
ENDBRANCH   5  16
ENDBRANCH   4  13
ENDBRANCH   3   4
ENDBRANCH   1   3
BRANCH   1  20
ATOM     20  O   UNL     1       1.623   3.370   0.005  0.00  0.00    -0.455 OA
BRANCH  20  21
ATOM     21  C   UNL     1       3.009   3.801  -0.006  0.00  0.00    +0.328 C 
BRANCH  21  22
ATOM     22  C   UNL     1       3.068   5.307   0.001  0.00  0.00    +0.255 C 
ATOM     23  O   UNL     1       2.042   5.953   0.015  0.00  0.00    -0.272 OA
ATOM     24  N   UNL     1       4.260   5.935  -0.007  0.00  0.00    -0.277 N 
ATOM     25  H   UNL     1       5.080   5.418  -0.017  0.00  0.00    +0.155 HD
BRANCH  24  26
ATOM     26  C   UNL     1       4.314   7.320   0.000  0.00  0.00    +0.084 A 
ATOM     27  C   UNL     1       5.431   8.138  -0.001  0.00  0.00    +0.068 A 
ATOM     28  C   UNL     1       5.212   9.584   0.004  0.00  0.00    -0.023 A 
ATOM     29  C   UNL     1       3.922   9.966   0.018  0.00  0.00    -0.004 A 
ATOM     30  S   UNL     1       3.001   8.448   0.019  0.00  0.00    -0.077 S 
ATOM     31  C   UNL     1       3.778  11.464   0.025  0.00  0.00    +0.043 C 
ATOM     32  C   UNL     1       5.159  11.990  -0.424  0.00  0.00    +0.010 C 
ATOM     33  C   UNL     1       6.088  10.837   0.004  0.00  0.00    +0.037 C 
BRANCH  27  34
ATOM     34  C   UNL     1       6.785   7.575  -0.009  0.00  0.00    +0.244 C 
ATOM     35  O   UNL     1       7.342   7.347  -1.067  0.00  0.00    -0.270 OA
ATOM     36  N   UNL     1       7.412   7.309   1.154  0.00  0.00    -0.325 N 
ATOM     37  H   UNL     1       6.967   7.491   1.997  0.00  0.00    +0.145 HD
ATOM     38  H   UNL     1       8.307   6.937   1.148  0.00  0.00    +0.145 HD
ENDBRANCH  27  34
ENDBRANCH  24  26
ENDBRANCH  21  22
ENDBRANCH  20  21
ENDBRANCH   1  20
TORSDOF 11
