REMARK  Name = ZINC22290987
REMARK  8 active torsions:
REMARK  status: ('A' for Active; 'I' for Inactive)
REMARK    1  A    between atoms: C_1  and  C_2
REMARK    2  A    between atoms: C_7  and  C_9
REMARK    3  A    between atoms: C_7  and  C_10
REMARK    4  A    between atoms: N_13  and  C_17
REMARK    5  A    between atoms: C_17  and  C_18
REMARK    6  A    between atoms: C_23  and  C_26
REMARK    7  A    between atoms: C_26  and  N_27
REMARK    8  A    between atoms: C_30  and  C_33
REMARK                            x       y       z     vdW  Elec       q    Type
REMARK                         _______ _______ _______ _____ _____    ______ ____
ROOT
ATOM      1  C   UNL     1      -2.295  -3.328  -4.359  0.00  0.00    +0.237 C 
ATOM      2  O   UNL     1      -1.953  -2.188  -4.591  0.00  0.00    -0.274 OA
ATOM      3  N   UNL     1      -3.321  -3.876  -5.040  0.00  0.00    -0.263 N 
ATOM      4  C   UNL     1      -3.988  -3.133  -6.008  0.00  0.00    +0.165 A 
ATOM      5  N   UNL     1      -5.004  -3.496  -6.760  0.00  0.00    -0.231 NA
ATOM      6  C   UNL     1      -5.531  -2.666  -7.641  0.00  0.00    +0.034 A 
ATOM      7  C   UNL     1      -4.977  -1.432  -7.733  0.00  0.00    +0.070 A 
ATOM      8  S   UNL     1      -3.695  -1.549  -6.496  0.00  0.00    -0.060 S 
ATOM      9  H   UNL     1      -3.595  -4.788  -4.855  0.00  0.00    +0.157 HD
ENDROOT
BRANCH   1  10
ATOM     10  C   UNL     1      -1.572  -4.133  -3.310  0.00  0.00    +0.214 C 
BRANCH  10  22
ATOM     11  C   UNL     1      -0.019   1.528   0.010  0.00  0.00    +0.007 C 
ATOM     12  C   UNL     1       0.002  -0.004   0.002  0.00  0.00    -0.011 C 
ATOM     13  C   UNL     1       0.727  -0.492  -1.254  0.00  0.00    +0.038 C 
ATOM     14  C   UNL     1       0.711  -2.014  -1.298  0.00  0.00    +0.113 C 
ATOM     15  C   UNL     1       1.263  -2.646  -0.036  0.00  0.00    +0.041 C 
ATOM     16  C   UNL     1       0.787  -2.030   1.268  0.00  0.00    -0.032 C 
ATOM     17  C   UNL     1       0.763  -0.507   1.227  0.00  0.00    +0.009 C 
ATOM     18  C   UNL     1       1.769  -2.455   2.382  0.00  0.00    +0.011 C 
ATOM     19  C   UNL     1      -0.596  -2.567   1.648  0.00  0.00    +0.011 C 
ATOM     20  C   UNL     1      -0.666  -2.529  -1.638  0.00  0.00    +0.247 C 
ATOM     21  O   UNL     1      -1.717  -2.280  -1.086  0.00  0.00    -0.273 OA
ATOM     22  N   UNL     1      -0.505  -3.321  -2.720  0.00  0.00    -0.215 N 
ATOM     23  C   UNL     1       0.748  -3.270  -3.183  0.00  0.00    +0.310 C 
ATOM     24  O   UNL     1       1.136  -3.886  -4.157  0.00  0.00    -0.252 OA
ATOM     25  N   UNL     1       1.531  -2.463  -2.446  0.00  0.00    -0.285 N 
ATOM     26  H   UNL     1       2.451  -2.215  -2.619  0.00  0.00    +0.151 HD
ENDBRANCH  10  22
ENDBRANCH   1  10
BRANCH   6  27
ATOM     27  C   UNL     1      -6.695  -3.073  -8.508  0.00  0.00    -0.022 C 
BRANCH  27  28
ATOM     28  N   UNL     1      -6.198  -3.779  -9.696  0.00  0.00    +0.383 N 
ATOM     29  C   UNL     1      -5.552  -5.031  -9.286  0.00  0.00    -0.078 C 
ATOM     30  C   UNL     1      -4.961  -5.731 -10.512  0.00  0.00    -0.016 C 
ATOM     31  C   UNL     1      -6.083  -6.036 -11.508  0.00  0.00    -0.018 C 
ATOM     32  C   UNL     1      -6.797  -4.731 -11.873  0.00  0.00    -0.016 C 
ATOM     33  C   UNL     1      -7.320  -4.069 -10.597  0.00  0.00    -0.078 C 
ATOM     34  C   UNL     1      -5.489  -6.664 -12.771  0.00  0.00    +0.007 C 
ATOM     35  H   UNL     1      -5.526  -3.197 -10.175  0.00  0.00    -0.081 HD
ENDBRANCH  27  28
ENDBRANCH   6  27
TORSDOF 4
