REMARK  Name = ZINC39946765
REMARK  7 active torsions:
REMARK  status: ('A' for Active; 'I' for Inactive)
REMARK    1  A    between atoms: C_2  and  C_3
REMARK    2  A    between atoms: C_3  and  N_4
REMARK    3  A    between atoms: C_13  and  S_14
REMARK    4  A    between atoms: S_14  and  C_15
REMARK    5  A    between atoms: C_15  and  C_17
REMARK    6  A    between atoms: C_15  and  C_23
REMARK    7  A    between atoms: C_23  and  C_25
REMARK                            x       y       z     vdW  Elec       q    Type
REMARK                         _______ _______ _______ _____ _____    ______ ____
ROOT
ATOM      1  C   UNL     1      -0.211  -5.176  -0.373  0.00  0.00    +0.155 C 
ENDROOT
BRANCH   1   2
ATOM      2  C   UNL     1      -1.333  -5.249   0.630  0.00  0.00    -0.027 A 
ATOM      3  C   UNL     1      -2.533  -4.611   0.374  0.00  0.00    +0.005 A 
ATOM      4  C   UNL     1      -3.562  -4.679   1.295  0.00  0.00    +0.000 A 
ATOM      5  C   UNL     1      -3.392  -5.385   2.471  0.00  0.00    +0.000 A 
ATOM      6  C   UNL     1      -2.193  -6.024   2.727  0.00  0.00    +0.000 A 
ATOM      7  C   UNL     1      -1.165  -5.960   1.804  0.00  0.00    +0.005 A 
ENDBRANCH   1   2
BRANCH   1   8
ATOM      8  C   UNL     1      -0.670  -5.763  -1.683  0.00  0.00    +0.179 C 
ATOM      9  O   UNL     1      -1.107  -5.038  -2.553  0.00  0.00    -0.291 OA
BRANCH   8  10
ATOM     10  C   UNL     1      -0.590  -7.155  -1.898  0.00  0.00    +0.025 C 
ATOM     11  C   UNL     1      -0.960  -7.848  -3.037  0.00  0.00    +0.006 A 
ATOM     12  C   UNL     1      -1.503  -7.440  -4.278  0.00  0.00    +0.010 A 
ATOM     13  C   UNL     1      -1.776  -8.354  -5.236  0.00  0.00    +0.001 A 
ATOM     14  C   UNL     1      -1.541  -9.727  -5.057  0.00  0.00    +0.002 A 
ATOM     15  C   UNL     1      -1.026 -10.220  -3.910  0.00  0.00    +0.026 A 
ATOM     16  C   UNL     1      -0.700  -9.292  -2.814  0.00  0.00    +0.043 A 
ATOM     17  N   UNL     1      -0.204  -9.489  -1.626  0.00  0.00    -0.380 N 
ATOM     18  C   UNL     1      -0.075  -8.202  -0.935  0.00  0.00    +0.152 C 
ATOM     19  H   UNL     1       0.045 -10.351  -1.258  0.00  0.00    +0.160 HD
ENDBRANCH   8  10
ENDBRANCH   1   8
BRANCH   1  20
ATOM     20  S   UNL     1       0.266  -3.443  -0.621  0.00  0.00    -0.071 S 
BRANCH  20  30
ATOM     21  N   UNL     1       1.367  -1.676   1.111  0.00  0.00    -0.283 N 
ATOM     22  C   UNL     1       1.860  -1.261   2.293  0.00  0.00    +0.263 A 
ATOM     23  O   UNL     1       2.262  -0.118   2.428  0.00  0.00    -0.267 OA
ATOM     24  C   UNL     1       1.907  -2.180   3.389  0.00  0.00    +0.076 A 
ATOM     25  C   UNL     1       2.399  -1.948   4.748  0.00  0.00    -0.023 A 
ATOM     26  C   UNL     1       2.335  -2.985   5.607  0.00  0.00    -0.004 A 
ATOM     27  S   UNL     1       1.627  -4.314   4.673  0.00  0.00    -0.073 S 
ATOM     28  C   UNL     1       1.419  -3.471   3.125  0.00  0.00    +0.117 A 
ATOM     29  N   UNL     1       0.944  -3.818   1.935  0.00  0.00    -0.216 NA
ATOM     30  C   UNL     1       0.908  -2.950   0.944  0.00  0.00    +0.174 A 
ATOM     31  C   UNL     1       2.772  -3.004   7.041  0.00  0.00    +0.043 C 
ATOM     32  C   UNL     1       3.652  -1.772   7.295  0.00  0.00    +0.005 C 
ATOM     33  C   UNL     1       2.949  -0.539   6.720  0.00  0.00    +0.005 C 
ATOM     34  C   UNL     1       2.962  -0.600   5.192  0.00  0.00    +0.037 C 
BRANCH  21  35
ATOM     35  C   UNL     1       1.317  -0.740  -0.015  0.00  0.00    +0.154 C 
BRANCH  35  37
ATOM     36  C   UNL     1      -0.016   1.306   0.009  0.00  0.00    +0.005 C 
ATOM     37  C   UNL     1       0.002  -0.004   0.002  0.00  0.00    -0.013 C 
ENDBRANCH  35  37
ENDBRANCH  21  35
ENDBRANCH  20  30
ENDBRANCH   1  20
TORSDOF 7
