REMARK  Name = ZINC63627317
REMARK  6 active torsions:
REMARK  status: ('A' for Active; 'I' for Inactive)
REMARK    1  A    between atoms: C_1  and  C_2
REMARK    2  A    between atoms: C_7  and  S_15
REMARK    3  A    between atoms: C_12  and  C_14
REMARK    4  A    between atoms: S_15  and  N_18
REMARK    5  A    between atoms: N_18  and  C_19
REMARK    6  A    between atoms: C_22  and  C_25
REMARK                            x       y       z     vdW  Elec       q    Type
REMARK                         _______ _______ _______ _____ _____    ______ ____
ROOT
ATOM      1  N   UNL     1       6.708  -2.402  -1.027  0.00  0.00    -0.216 N 
ATOM      2  H   UNL     1       6.811  -2.000  -1.903  0.00  0.00    +0.174 HD
ENDROOT
BRANCH   1   3
ATOM      3  C   UNL     1       7.585  -2.062   0.005  0.00  0.00    +0.048 A 
ATOM      4  C   UNL     1       7.093  -1.777   1.273  0.00  0.00    +0.025 A 
ATOM      5  C   UNL     1       7.964  -1.442   2.291  0.00  0.00    +0.008 A 
ATOM      6  C   UNL     1       9.324  -1.389   2.050  0.00  0.00    -0.021 A 
ATOM      7  C   UNL     1       9.818  -1.672   0.790  0.00  0.00    +0.008 A 
ATOM      8  C   UNL     1       8.953  -2.014  -0.232  0.00  0.00    +0.025 A 
BRANCH   6   9
ATOM      9  C   UNL     1      10.271  -1.022   3.163  0.00  0.00    +0.133 C 
ATOM     10  C   UNL     1      10.722   0.413   3.012  0.00  0.00    +0.012 C 
ATOM     11  C   UNL     1      12.065   0.370   2.862  0.00  0.00    -0.002 A 
ATOM     12  C   UNL     1      13.078   1.416   2.674  0.00  0.00    +0.029 A 
ATOM     13  C   UNL     1      14.377   1.056   2.550  0.00  0.00    +0.042 A 
ATOM     14  C   UNL     1      14.778  -0.287   2.598  0.00  0.00    +0.022 A 
ATOM     15  C   UNL     1      13.905  -1.302   2.768  0.00  0.00    +0.027 A 
ATOM     16  C   UNL     1      12.514  -1.039   2.909  0.00  0.00    +0.043 A 
ATOM     17  N   UNL     1      11.488  -1.838   3.082  0.00  0.00    -0.374 N 
ATOM     18 CL   UNL     1      15.579   2.290   2.327  0.00  0.00    -0.084 Cl
ATOM     19  H   UNL     1      11.526  -2.805   3.146  0.00  0.00    +0.161 HD
ENDBRANCH   6   9
ENDBRANCH   1   3
BRANCH   1  20
ATOM     20  S   UNL     1       5.492  -3.493  -0.754  0.00  0.00    +0.072 S 
ATOM     21  O   UNL     1       4.842  -3.697  -2.001  0.00  0.00    -0.150 OA
ATOM     22  O   UNL     1       4.797  -3.045   0.402  0.00  0.00    -0.150 OA
BRANCH  20  28
ATOM     23  C   UNL     1       9.425  -8.553   2.923  0.00  0.00    +0.029 C 
ATOM     24  C   UNL     1       7.999  -8.514   2.369  0.00  0.00    +0.083 C 
ATOM     25  C   UNL     1       7.338  -7.165   2.693  0.00  0.00    +0.059 C 
ATOM     26  C   UNL     1       7.025  -6.559   1.344  0.00  0.00    -0.022 A 
ATOM     27  C   UNL     1       6.430  -5.359   1.005  0.00  0.00    +0.034 A 
ATOM     28  C   UNL     1       6.251  -5.023  -0.324  0.00  0.00    +0.109 A 
ATOM     29  C   UNL     1       6.668  -5.893  -1.315  0.00  0.00    +0.030 A 
ATOM     30  C   UNL     1       7.262  -7.091  -0.982  0.00  0.00    +0.026 A 
ATOM     31  C   UNL     1       7.447  -7.437   0.358  0.00  0.00    +0.040 A 
ATOM     32  N   UNL     1       8.020  -8.591   0.905  0.00  0.00    -0.268 N 
ATOM     33  C   UNL     1       8.519  -9.621   0.193  0.00  0.00    +0.217 C 
ATOM     34  O   UNL     1       8.578  -9.550  -1.016  0.00  0.00    -0.276 OA
ATOM     35  C   UNL     1       9.004 -10.861   0.899  0.00  0.00    +0.109 C 
ENDBRANCH  20  28
ENDBRANCH   1  20
TORSDOF 4
