REMARK  Name = ZINC05456769
REMARK  8 active torsions:
REMARK  status: ('A' for Active; 'I' for Inactive)
REMARK    1  A    between atoms: C_2  and  C_3
REMARK    2  A    between atoms: C_3  and  C_4
REMARK    3  A    between atoms: C_8  and  C_11
REMARK    4  A    between atoms: C_9  and  O_10
REMARK    5  A    between atoms: N_12  and  N_13
REMARK    6  A    between atoms: C_14  and  C_16
REMARK    7  A    between atoms: C_21  and  C_22
REMARK    8  A    between atoms: C_21  and  N_55
REMARK                            x       y       z     vdW  Elec       q    Type
REMARK                         _______ _______ _______ _____ _____    ______ ____
ROOT
ATOM      1  N   UNL     1      -3.757   5.850   0.068  0.00  0.00    -0.207 N 
ATOM      2  C   UNL     1      -3.772   7.198   0.075  0.00  0.00    +0.235 C 
ATOM      3  O   UNL     1      -2.728   7.816   0.068  0.00  0.00    -0.274 OA
ATOM      4  H   UNL     1      -4.592   5.356   0.073  0.00  0.00    +0.177 HD
ENDROOT
BRANCH   2   5
ATOM      5  C   UNL     1      -5.085   7.937   0.091  0.00  0.00    +0.073 C 
ATOM      6  C   UNL     1      -5.893   7.572  -1.157  0.00  0.00    -0.006 C 
ATOM      7  C   UNL     1      -7.198   8.371  -1.166  0.00  0.00    -0.078 C 
ATOM      8  C   UNL     1      -6.159  10.191   0.051  0.00  0.00    -0.078 C 
ATOM      9  C   UNL     1      -4.823   9.446   0.096  0.00  0.00    -0.006 C 
ATOM     10  N   UNL     1      -6.877   9.814  -1.186  0.00  0.00    +0.382 N 
ATOM     11  H   UNL     1      -6.274  10.010  -1.994  0.00  0.00    -0.081 HD
BRANCH  10  12
ATOM     12  C   UNL     1      -8.118  10.606  -1.310  0.00  0.00    -0.043 C 
BRANCH  12  13
ATOM     13  C   UNL     1      -8.714  10.364  -2.673  0.00  0.00    -0.064 A 
ATOM     14  C   UNL     1      -8.346  11.164  -3.739  0.00  0.00    +0.003 A 
ATOM     15  C   UNL     1      -8.888  10.940  -4.990  0.00  0.00    +0.020 A 
ATOM     16  C   UNL     1      -9.806   9.921  -5.174  0.00  0.00    +0.041 A 
ATOM     17  C   UNL     1     -10.178   9.125  -4.106  0.00  0.00    +0.020 A 
ATOM     18  C   UNL     1      -9.631   9.347  -2.856  0.00  0.00    +0.003 A 
ATOM     19 CL   UNL     1     -10.492   9.643  -6.744  0.00  0.00    -0.084 Cl
ENDBRANCH  12  13
ENDBRANCH  10  12
ENDBRANCH   2   5
BRANCH   1  21
ATOM     20  C   UNL     1      -2.522   3.865   0.046  0.00  0.00    +0.142 C 
ATOM     21  N   UNL     1      -2.536   5.163   0.053  0.00  0.00    -0.188 NA
BRANCH  20  26
ATOM     22  C   UNL     1       1.172   3.164   0.008  0.00  0.00    -0.002 A 
ATOM     23  C   UNL     1       1.178   1.781   0.000  0.00  0.00    +0.007 A 
ATOM     24  C   UNL     1      -0.013   1.076   0.008  0.00  0.00    +0.001 A 
ATOM     25  C   UNL     1      -1.218   1.746   0.017  0.00  0.00    +0.013 A 
ATOM     26  C   UNL     1      -1.238   3.143   0.030  0.00  0.00    +0.036 A 
ATOM     27  C   UNL     1      -0.029   3.853   0.023  0.00  0.00    +0.129 A 
BRANCH  27  28
ATOM     28  O   UNL     1      -0.036   5.211   0.030  0.00  0.00    -0.506 OA
ATOM     29  H   UNL     1      -0.046   5.609  -0.851  0.00  0.00    +0.292 HD
ENDBRANCH  27  28
BRANCH  22  30
ATOM     30  C   UNL     1       2.474   3.922  -0.001  0.00  0.00    +0.065 C 
BRANCH  30  32
ATOM     31  C   UNL     1       4.031   3.920   1.880  0.00  0.00    +0.004 C 
ATOM     32  C   UNL     1       2.860   4.274   1.413  0.00  0.00    -0.030 C 
ENDBRANCH  30  32
ENDBRANCH  22  30
ENDBRANCH  20  26
ENDBRANCH   1  21
TORSDOF 8
