REMARK  Name = ZINC12858318
REMARK  12 active torsions:
REMARK  status: ('A' for Active; 'I' for Inactive)
REMARK    1  A    between atoms: C_1  and  C_2
REMARK    2  A    between atoms: C_2  and  C_33
REMARK    3  A    between atoms: C_3  and  C_4
REMARK    4  A    between atoms: C_4  and  C_5
REMARK    5  A    between atoms: C_5  and  C_6
REMARK    6  A    between atoms: C_10  and  C_13
REMARK    7  A    between atoms: C_13  and  C_16
REMARK    8  A    between atoms: N_14  and  O_15
REMARK    9  A    between atoms: C_16  and  C_17
REMARK   10  A    between atoms: C_24  and  O_25
REMARK   11  A    between atoms: O_25  and  C_26
REMARK   12  A    between atoms: C_32  and  N_68
REMARK                            x       y       z     vdW  Elec       q    Type
REMARK                         _______ _______ _______ _____ _____    ______ ____
ROOT
ATOM      1  C   UNL     1       1.587   5.746  -1.436  0.00  0.00    +0.048 C 
ENDROOT
BRANCH   1   2
ATOM      2  C   UNL     1       0.677   6.220  -0.301  0.00  0.00    -0.028 C 
ATOM      3  C   UNL     1      -0.640   5.493  -0.384  0.00  0.00    -0.012 A 
ATOM      4  C   UNL     1      -1.273   5.005   0.739  0.00  0.00    -0.040 A 
ATOM      5  C   UNL     1      -2.488   4.348   0.620  0.00  0.00    +0.053 A 
ATOM      6  C   UNL     1      -3.071   4.169  -0.624  0.00  0.00    +0.170 A 
ATOM      7  C   UNL     1      -2.437   4.662  -1.759  0.00  0.00    +0.208 A 
ATOM      8  C   UNL     1      -1.222   5.320  -1.636  0.00  0.00    +0.167 A 
ATOM      9  O   UNL     1      -3.204   4.367  -2.851  0.00  0.00    -0.449 OA
ATOM     10  C   UNL     1      -4.510   4.057  -2.330  0.00  0.00    +0.467 C 
ATOM     11  O   UNL     1      -4.241   3.574  -1.000  0.00  0.00    -0.452 OA
ATOM     12  C   UNL     1      -0.675   5.162   2.114  0.00  0.00    +0.017 C 
ATOM     13  C   UNL     1       0.406   6.242   2.093  0.00  0.00    -0.074 C 
ATOM     14  C   UNL     1       2.568   6.735   1.116  0.00  0.00    -0.095 C 
ATOM     15  N   UNL     1       1.333   5.932   0.985  0.00  0.00    +0.383 N 
ATOM     16  H   UNL     1       1.578   4.935   1.021  0.00  0.00    -0.081 HD
BRANCH   8  17
ATOM     17  O   UNL     1      -0.595   5.798  -2.745  0.00  0.00    -0.491 OA
ATOM     18  C   UNL     1      -0.965   7.106  -3.185  0.00  0.00    +0.277 C 
ENDBRANCH   8  17
ENDBRANCH   1   2
BRANCH   1  19
ATOM     19  C   UNL     1       2.850   6.569  -1.444  0.00  0.00    +0.082 C 
ATOM     20  N   UNL     1       3.994   6.001  -1.229  0.00  0.00    -0.092 NA
BRANCH  19  24
ATOM     21  C   UNL     1       2.753  10.683  -2.560  0.00  0.00    -0.007 C 
ATOM     22  C   UNL     1       3.703  10.306  -1.417  0.00  0.00    +0.008 C 
ATOM     23  C   UNL     1       4.041   8.818  -1.537  0.00  0.00    +0.037 C 
ATOM     24  C   UNL     1       2.783   8.014  -1.696  0.00  0.00    -0.027 C 
ATOM     25  C   UNL     1       1.626   8.528  -2.052  0.00  0.00    -0.021 C 
ATOM     26  C   UNL     1       1.410   9.989  -2.325  0.00  0.00    +0.031 C 
BRANCH  21  27
ATOM     27  C   UNL     1       2.551  12.200  -2.581  0.00  0.00    +0.008 C 
BRANCH  27  28
ATOM     28  C   UNL     1       1.704  12.584  -3.796  0.00  0.00    +0.027 C 
BRANCH  28  31
ATOM     29  C   UNL     1       2.424  14.070  -6.079  0.00  0.00    +0.038 C 
ATOM     30  C   UNL     1       1.839  14.769  -4.879  0.00  0.00    -0.080 C 
ATOM     31  C   UNL     1       1.505  14.078  -3.817  0.00  0.00    -0.028 C 
ATOM     32  C   UNL     1       1.640  16.262  -4.899  0.00  0.00    +0.038 C 
ENDBRANCH  28  31
ENDBRANCH  27  28
ENDBRANCH  21  27
ENDBRANCH  19  24
BRANCH  20  33
ATOM     33  O   UNL     1       4.073   4.593  -1.102  0.00  0.00    -0.409 OA
ATOM     34  H   UNL     1       4.953   4.267  -0.868  0.00  0.00    +0.328 HD
ENDBRANCH  20  33
ENDBRANCH   1  19
TORSDOF 8
