REMARK  Name = ZINC36029910
REMARK  9 active torsions:
REMARK  status: ('A' for Active; 'I' for Inactive)
REMARK    1  A    between atoms: C_1  and  C_2
REMARK    2  A    between atoms: C_2  and  C_3
REMARK    3  A    between atoms: C_2  and  C_4
REMARK    4  A    between atoms: C_4  and  C_5
REMARK    5  A    between atoms: N_9  and  C_30
REMARK    6  A    between atoms: N_14  and  S_17
REMARK    7  A    between atoms: S_17  and  C_20
REMARK    8  A    between atoms: C_24  and  C_26
REMARK    9  A    between atoms: C_30  and  C_31
REMARK                            x       y       z     vdW  Elec       q    Type
REMARK                         _______ _______ _______ _____ _____    ______ ____
ROOT
ATOM      1  C   UNL     1       1.563  -0.199  -2.514  0.00  0.00    +0.019 C 
ATOM      2  C   UNL     1       2.549  -1.004  -3.332  0.00  0.00    +0.201 C 
ATOM      3  O   UNL     1       2.569  -1.082  -4.542  0.00  0.00    -0.277 OA
ATOM      4  N   UNL     1       3.402  -1.621  -2.488  0.00  0.00    -0.309 N 
ATOM      5  C   UNL     1       3.051  -1.286  -1.106  0.00  0.00    +0.006 C 
ATOM      6  N   UNL     1       2.184  -0.087  -1.172  0.00  0.00    +0.401 N 
ATOM      7  C   UNL     1       4.311  -0.967  -0.302  0.00  0.00    +0.023 C 
ATOM      8  C   UNL     1       5.219  -2.201  -0.272  0.00  0.00    +0.109 C 
ATOM      9  N   UNL     1       4.446  -3.345   0.230  0.00  0.00    -0.177 NA
ATOM     10  C   UNL     1       3.179  -3.686  -0.431  0.00  0.00    +0.109 C 
ATOM     11  C   UNL     1       2.287  -2.440  -0.460  0.00  0.00    +0.023 C 
ATOM     12  H   UNL     1       2.734   0.756  -1.103  0.00  0.00    -0.082 HD
ATOM     13  H   UNL     1       1.480  -0.115  -0.450  0.00  0.00    -0.082 HD
ENDROOT
BRANCH   9  14
ATOM     14  S   UNL     1       4.992  -4.234   1.516  0.00  0.00    +0.061 S 
ATOM     15  O   UNL     1       4.391  -5.517   1.408  0.00  0.00    -0.153 OA
ATOM     16  O   UNL     1       6.401  -4.054   1.564  0.00  0.00    -0.153 OA
BRANCH  14  17
ATOM     17  C   UNL     1       4.340  -3.493   2.976  0.00  0.00    +0.106 A 
ATOM     18  C   UNL     1       5.048  -2.496   3.620  0.00  0.00    +0.028 A 
ATOM     19  C   UNL     1       4.536  -1.915   4.766  0.00  0.00    +0.002 A 
ATOM     20  C   UNL     1       3.316  -2.331   5.266  0.00  0.00    +0.012 A 
ATOM     21  C   UNL     1       2.608  -3.328   4.621  0.00  0.00    +0.057 A 
ATOM     22  C   UNL     1       3.118  -3.906   3.473  0.00  0.00    +0.041 A 
BRANCH  21  23
ATOM     23  C   UNL     1       1.279  -3.782   5.167  0.00  0.00    +0.417 C 
ATOM     24  F   UNL     1       0.976  -3.054   6.322  0.00  0.00    -0.166 F 
ATOM     25  F   UNL     1       0.284  -3.569   4.207  0.00  0.00    -0.166 F 
ATOM     26  F   UNL     1       1.343  -5.144   5.478  0.00  0.00    -0.166 F 
ENDBRANCH  21  23
ENDBRANCH  14  17
ENDBRANCH   9  14
BRANCH   1  27
ATOM     27  C   UNL     1       0.223  -0.932  -2.421  0.00  0.00    -0.004 C 
BRANCH  27  29
ATOM     28  C   UNL     1      -1.016   1.176  -1.912  0.00  0.00    +0.007 C 
ATOM     29  C   UNL     1      -0.676  -0.226  -1.404  0.00  0.00    -0.018 C 
ATOM     30  C   UNL     1      -1.965  -1.029  -1.220  0.00  0.00    +0.007 C 
ENDBRANCH  27  29
ENDBRANCH   1  27
BRANCH   4  31
ATOM     31  C   UNL     1       4.510  -2.491  -2.892  0.00  0.00    +0.141 C 
BRANCH  31  32
ATOM     32  C   UNL     1       5.662  -1.648  -3.373  0.00  0.00    -0.030 A 
ATOM     33  C   UNL     1       5.509  -0.837  -4.483  0.00  0.00    +0.008 A 
ATOM     34  C   UNL     1       6.565  -0.063  -4.925  0.00  0.00    +0.038 A 
ATOM     35  C   UNL     1       7.777  -0.099  -4.256  0.00  0.00    +0.123 A 
ATOM     36  C   UNL     1       7.929  -0.911  -3.145  0.00  0.00    +0.038 A 
ATOM     37  C   UNL     1       6.870  -1.681  -2.701  0.00  0.00    +0.008 A 
ATOM     38  F   UNL     1       8.810   0.657  -4.687  0.00  0.00    -0.205 F 
ENDBRANCH  31  32
ENDBRANCH   4  31
TORSDOF 7
