REMARK  Name = ZINC21324890
REMARK  12 active torsions:
REMARK  status: ('A' for Active; 'I' for Inactive)
REMARK    1  A    between atoms: C_1  and  C_2
REMARK    2  A    between atoms: C_2  and  C_3
REMARK    3  A    between atoms: C_3  and  C_5
REMARK    4  A    between atoms: C_3  and  C_6
REMARK    5  A    between atoms: C_9  and  N_12
REMARK    6  A    between atoms: C_13  and  C_15
REMARK    7  A    between atoms: C_15  and  S_16
REMARK    8  A    between atoms: S_16  and  C_17
REMARK    9  A    between atoms: N_21  and  N_22
REMARK   10  A    between atoms: N_23  and  N_24
REMARK   11  A    between atoms: C_25  and  C_26
REMARK   12  A    between atoms: C_25  and  C_27
REMARK                            x       y       z     vdW  Elec       q    Type
REMARK                         _______ _______ _______ _____ _____    ______ ____
ROOT
ATOM      1  C   UNL     1      -0.016   1.362   0.023  0.00  0.00    +0.210 A 
ATOM      2  N   UNL     1       1.226   1.784   0.022  0.00  0.00    -0.119 NA
ATOM      3  N   UNL     1       2.065   0.662   0.015  0.00  0.00    -0.109 NA
ATOM      4  C   UNL     1       1.309  -0.409   0.012  0.00  0.00    +0.254 A 
ATOM      5  N   UNL     1       0.003  -0.004   0.016  0.00  0.00    -0.211 N 
ATOM      6  N   UNL     1       1.755  -1.723   0.004  0.00  0.00    -0.204 N 
ATOM      7  H   UNL     1       1.030  -2.550   0.002  0.00  0.00    +0.178 HD
ENDROOT
BRANCH   5   8
ATOM      8  N   UNL     1      -1.091  -0.822   0.014  0.00  0.00    -0.294 N 
ATOM      9  H   UNL     1      -0.962  -1.914   0.009  0.00  0.00    +0.163 HD
ATOM     10  H   UNL     1      -2.102  -0.388   0.018  0.00  0.00    +0.163 HD
ENDBRANCH   5   8
BRANCH   6  11
ATOM     11  N   UNL     1       3.129  -1.996   0.000  0.00  0.00    -0.183 NA
ATOM     12  C   UNL     1       3.547  -3.226  -0.007  0.00  0.00    +0.081 C 
ATOM     13  C   UNL     1       2.554  -4.359  -0.010  0.00  0.00    +0.069 C 
BRANCH  12  14
ATOM     14  C   UNL     1       4.992  -3.513  -0.011  0.00  0.00    +0.086 A 
ATOM     15  C   UNL     1       5.909  -2.458  -0.014  0.00  0.00    +0.029 A 
ATOM     16  C   UNL     1       7.262  -2.744  -0.013  0.00  0.00    +0.004 A 
ATOM     17  C   UNL     1       7.658  -4.075  -0.020  0.00  0.00    +0.020 A 
ATOM     18  C   UNL     1       6.699  -5.070  -0.023  0.00  0.00    +0.111 A 
ATOM     19  N   UNL     1       5.415  -4.773  -0.018  0.00  0.00    -0.254 NA
ENDBRANCH  12  14
ENDBRANCH   6  11
BRANCH   1  20
ATOM     20  S   UNL     1      -1.455   2.378   0.024  0.00  0.00    -0.075 S 
BRANCH  20  21
ATOM     21  C   UNL     1      -0.684   4.015   0.034  0.00  0.00    +0.173 C 
BRANCH  21  23
ATOM     22  N   UNL     1      -1.414   6.379   0.044  0.00  0.00    -0.285 N 
ATOM     23  C   UNL     1      -1.756   5.075   0.037  0.00  0.00    +0.227 C 
ATOM     24  O   UNL     1      -2.926   4.755   0.032  0.00  0.00    -0.275 OA
ATOM     25  H   UNL     1      -0.356   6.670   0.124  0.00  0.00    +0.155 HD
BRANCH  22  29
ATOM     26  C   UNL     1      -4.364   9.307  -0.240  0.00  0.00    -0.044 A 
ATOM     27  C   UNL     1      -4.619   8.135   0.449  0.00  0.00    +0.006 A 
ATOM     28  C   UNL     1      -3.643   7.162   0.545  0.00  0.00    +0.023 A 
ATOM     29  C   UNL     1      -2.405   7.362  -0.052  0.00  0.00    +0.033 A 
ATOM     30  C   UNL     1      -2.150   8.542  -0.738  0.00  0.00    +0.023 A 
ATOM     31  C   UNL     1      -3.132   9.508  -0.836  0.00  0.00    +0.006 A 
BRANCH  26  32
ATOM     32  C   UNL     1      -5.431  10.366  -0.343  0.00  0.00    +0.016 C 
ATOM     33  C   UNL     1      -4.923  11.664   0.287  0.00  0.00    +0.012 C 
BRANCH  32  35
ATOM     34  C   UNL     1      -6.935  11.594  -1.916  0.00  0.00    +0.004 C 
ATOM     35  C   UNL     1      -5.766  10.611  -1.816  0.00  0.00    +0.004 C 
ENDBRANCH  32  35
ENDBRANCH  26  32
ENDBRANCH  22  29
ENDBRANCH  21  23
ENDBRANCH  20  21
ENDBRANCH   1  20
TORSDOF 9
