REMARK  Name = ZINC03593190
REMARK  5 active torsions:
REMARK  status: ('A' for Active; 'I' for Inactive)
REMARK    1  A    between atoms: C_1  and  C_2
REMARK    2  A    between atoms: C_2  and  C_17
REMARK    3  A    between atoms: N_5  and  C_9
REMARK    4  A    between atoms: C_9  and  C_10
REMARK    5  A    between atoms: N_15  and  C_16
REMARK                            x       y       z     vdW  Elec       q    Type
REMARK                         _______ _______ _______ _____ _____    ______ ____
ROOT
ATOM      1  C   UNL     1      -8.853   0.594   2.401  0.00  0.00    +0.047 C 
ATOM      2  C   UNL     1      -8.229   1.041   3.724  0.00  0.00    +0.135 C 
ATOM      3  C   UNL     1      -7.027   1.933   3.481  0.00  0.00    +0.251 C 
ATOM      4  O   UNL     1      -7.014   3.006   2.917  0.00  0.00    -0.272 OA
ATOM      5  N   UNL     1      -5.976   1.283   4.020  0.00  0.00    -0.215 N 
ATOM      6  C   UNL     1      -6.345   0.121   4.571  0.00  0.00    +0.310 C 
ATOM      7  O   UNL     1      -5.574  -0.639   5.123  0.00  0.00    -0.252 OA
ATOM      8  N   UNL     1      -7.664  -0.112   4.446  0.00  0.00    -0.281 N 
ATOM      9  H   UNL     1      -8.148  -0.887   4.769  0.00  0.00    +0.152 HD
ENDROOT
BRANCH   2  10
ATOM     10  C   UNL     1      -9.248   1.753   4.576  0.00  0.00    -0.014 A 
ATOM     11  C   UNL     1     -10.006   1.041   5.486  0.00  0.00    +0.006 A 
ATOM     12  C   UNL     1     -10.941   1.693   6.269  0.00  0.00    +0.001 A 
ATOM     13  C   UNL     1     -11.117   3.058   6.141  0.00  0.00    +0.015 A 
ATOM     14  C   UNL     1     -10.359   3.771   5.230  0.00  0.00    +0.018 A 
ATOM     15  C   UNL     1      -9.420   3.118   4.451  0.00  0.00    +0.021 A 
ATOM     16 BR   UNL     1     -10.601   5.638   5.054  0.00  0.00    -0.050 Br
ENDBRANCH   2  10
BRANCH   5  17
ATOM     17  C   UNL     1      -4.602   1.790   4.010  0.00  0.00    +0.214 C 
BRANCH  17  18
ATOM     18  C   UNL     1      -3.897   1.304   2.770  0.00  0.00    +0.238 C 
ATOM     19  O   UNL     1      -4.484   0.604   1.973  0.00  0.00    -0.274 OA
ATOM     20  N   UNL     1      -2.613   1.649   2.546  0.00  0.00    -0.239 N 
ATOM     21  C   UNL     1      -1.982   1.214   1.437  0.00  0.00    +0.306 C 
ATOM     22  O   UNL     1      -2.571   0.512   0.639  0.00  0.00    -0.252 OA
ATOM     23  N   UNL     1      -0.698   1.558   1.213  0.00  0.00    -0.302 N 
ATOM     24  C   UNL     1      -0.013   1.086   0.008  0.00  0.00    +0.129 C 
ATOM     25  H   UNL     1      -2.143   2.209   3.183  0.00  0.00    +0.159 HD
ATOM     26  H   UNL     1      -0.229   2.119   1.850  0.00  0.00    +0.150 HD
ENDBRANCH  17  18
ENDBRANCH   5  17
TORSDOF 3
