REMARK  Name = ZINC35531777
REMARK  11 active torsions:
REMARK  status: ('A' for Active; 'I' for Inactive)
REMARK    1  A    between atoms: C_1  and  C_2
REMARK    2  A    between atoms: C_2  and  C_3
REMARK    3  A    between atoms: C_2  and  C_4
REMARK    4  A    between atoms: C_4  and  N_5
REMARK    5  A    between atoms: C_17  and  S_18
REMARK    6  A    between atoms: S_18  and  C_19
REMARK    7  A    between atoms: C_19  and  C_20
REMARK    8  A    between atoms: N_22  and  C_23
REMARK    9  A    between atoms: C_26  and  C_29
REMARK   10  A    between atoms: C_29  and  C_30
REMARK   11  A    between atoms: C_29  and  C_31
REMARK                            x       y       z     vdW  Elec       q    Type
REMARK                         _______ _______ _______ _____ _____    ______ ____
ROOT
ATOM      1  N   UNL     1      -0.026  -0.130   2.429  0.00  0.00    -0.276 N 
ATOM      2  C   UNL     1       0.220   1.048   3.044  0.00  0.00    +0.270 A 
ATOM      3  O   UNL     1       1.060   1.809   2.597  0.00  0.00    -0.266 OA
ATOM      4  C   UNL     1      -0.497   1.387   4.198  0.00  0.00    +0.101 A 
ATOM      5  C   UNL     1      -1.466   0.542   4.739  0.00  0.00    +0.071 A 
ATOM      6  C   UNL     1      -2.074   1.046   5.886  0.00  0.00    +0.035 A 
ATOM      7  C   UNL     1      -1.701   2.253   6.365  0.00  0.00    +0.048 A 
ATOM      8  S   UNL     1      -0.511   2.776   5.299  0.00  0.00    -0.090 S 
ATOM      9  N   UNL     1      -1.690  -0.674   4.068  0.00  0.00    -0.255 N 
ATOM     10  C   UNL     1      -0.987  -0.989   2.941  0.00  0.00    +0.240 A 
ATOM     11  N   UNL     1      -1.401  -2.165   2.524  0.00  0.00    -0.109 NA
ATOM     12  N   UNL     1      -2.396  -2.610   3.403  0.00  0.00    -0.120 NA
ATOM     13  C   UNL     1      -2.552  -1.700   4.335  0.00  0.00    +0.198 A 
ENDROOT
BRANCH   1  14
ATOM     14  C   UNL     1       0.717  -0.496   1.220  0.00  0.00    +0.131 C 
BRANCH  14  16
ATOM     15  C   UNL     1      -0.048   1.547   0.003  0.00  0.00    +0.009 C 
ATOM     16  C   UNL     1      -0.029   0.018  -0.012  0.00  0.00    +0.003 C 
ATOM     17  C   UNL     1       0.679  -0.471  -1.278  0.00  0.00    +0.009 C 
ENDBRANCH  14  16
ENDBRANCH   1  14
BRANCH  13  18
ATOM     18  S   UNL     1      -3.686  -1.778   5.681  0.00  0.00    -0.076 S 
BRANCH  18  19
ATOM     19  C   UNL     1      -4.517  -3.376   5.464  0.00  0.00    +0.173 C 
BRANCH  19  20
ATOM     20  C   UNL     1      -5.528  -3.571   6.564  0.00  0.00    +0.227 C 
ATOM     21  O   UNL     1      -5.673  -2.716   7.412  0.00  0.00    -0.275 OA
ATOM     22  N   UNL     1      -6.270  -4.695   6.606  0.00  0.00    -0.285 N 
ATOM     23  H   UNL     1      -6.202  -5.348   5.893  0.00  0.00    +0.155 HD
BRANCH  22  24
ATOM     24  C   UNL     1      -7.138  -4.920   7.680  0.00  0.00    +0.033 A 
ATOM     25  C   UNL     1      -7.332  -6.209   8.160  0.00  0.00    +0.023 A 
ATOM     26  C   UNL     1      -8.190  -6.428   9.220  0.00  0.00    +0.006 A 
ATOM     27  C   UNL     1      -8.855  -5.366   9.804  0.00  0.00    -0.045 A 
ATOM     28  C   UNL     1      -8.665  -4.081   9.328  0.00  0.00    +0.006 A 
ATOM     29  C   UNL     1      -7.804  -3.855   8.272  0.00  0.00    +0.023 A 
BRANCH  27  30
ATOM     30  C   UNL     1      -9.790  -5.608  10.960  0.00  0.00    +0.013 C 
ATOM     31  C   UNL     1      -9.302  -4.829  12.183  0.00  0.00    +0.012 C 
ATOM     32  C   UNL     1     -11.198  -5.139  10.585  0.00  0.00    +0.012 C 
ENDBRANCH  27  30
ENDBRANCH  22  24
ENDBRANCH  19  20
ENDBRANCH  18  19
ENDBRANCH  13  18
TORSDOF 7
