REMARK  Name = ZINC40923943
REMARK  9 active torsions:
REMARK  status: ('A' for Active; 'I' for Inactive)
REMARK    1  A    between atoms: C_1  and  C_2
REMARK    2  A    between atoms: C_5  and  C_8
REMARK    3  A    between atoms: C_8  and  O_9
REMARK    4  A    between atoms: O_9  and  C_10
REMARK    5  A    between atoms: C_15  and  C_16
REMARK    6  A    between atoms: C_18  and  C_27
REMARK    7  A    between atoms: C_19  and  C_26
REMARK    8  A    between atoms: C_27  and  O_29
REMARK    9  A    between atoms: O_29  and  C_30
REMARK                            x       y       z     vdW  Elec       q    Type
REMARK                         _______ _______ _______ _____ _____    ______ ____
ROOT
ATOM      1  C   UNL     1       1.606  -6.304  -0.243  0.00  0.00    +0.127 A 
ATOM      2  C   UNL     1       0.577  -7.218  -0.422  0.00  0.00    +0.047 A 
ATOM      3  C   UNL     1       0.866  -8.558  -0.590  0.00  0.00    +0.019 A 
ATOM      4  C   UNL     1       2.180  -8.990  -0.580  0.00  0.00    +0.018 A 
ATOM      5  C   UNL     1       3.207  -8.081  -0.401  0.00  0.00    +0.025 A 
ATOM      6  C   UNL     1       2.923  -6.739  -0.239  0.00  0.00    +0.024 A 
ATOM      7 BR   UNL     1       2.572 -10.825  -0.809  0.00  0.00    -0.050 Br
ENDROOT
BRANCH   6   8
ATOM      8  C   UNL     1       4.043  -5.748  -0.052  0.00  0.00    +0.184 C 
ATOM      9  C   UNL     1       4.832  -6.109   1.179  0.00  0.00    +0.082 C 
ATOM     10  C   UNL     1       6.069  -6.628   1.130  0.00  0.00    +0.020 C 
ATOM     11  N   UNL     1       6.720  -6.862  -0.056  0.00  0.00    -0.286 N 
ATOM     12  C   UNL     1       6.171  -6.310  -1.204  0.00  0.00    +0.240 A 
ATOM     13  N   UNL     1       4.920  -5.779  -1.216  0.00  0.00    -0.201 N 
ATOM     14  N   UNL     1       4.720  -5.321  -2.517  0.00  0.00    -0.042 NA
ATOM     15  N   UNL     1       5.802  -5.594  -3.173  0.00  0.00    -0.021 NA
ATOM     16  N   UNL     1       6.659  -6.177  -2.404  0.00  0.00    -0.092 NA
ATOM     17  C   UNL     1       6.768  -6.966   2.422  0.00  0.00    +0.061 C 
ATOM     18  H   UNL     1       7.531  -7.393  -0.089  0.00  0.00    +0.155 HD
BRANCH   9  19
ATOM     19  C   UNL     1       4.244  -5.890   2.444  0.00  0.00    +0.339 C 
ATOM     20  O   UNL     1       4.150  -4.760   2.885  0.00  0.00    -0.245 OA
BRANCH  19  21
ATOM     21  O   UNL     1       3.785  -6.935   3.165  0.00  0.00    -0.465 OA
ATOM     22  C   UNL     1       3.202  -6.641   4.436  0.00  0.00    +0.280 C 
ENDBRANCH  19  21
ENDBRANCH   9  19
ENDBRANCH   6   8
BRANCH   1  23
ATOM     23  O   UNL     1       1.324  -4.985  -0.078  0.00  0.00    -0.487 OA
BRANCH  23  24
ATOM     24  C   UNL     1      -0.055  -4.609  -0.093  0.00  0.00    +0.264 C 
BRANCH  24  29
ATOM     25  C   UNL     1      -0.507   1.102   0.658  0.00  0.00    +0.044 C 
ATOM     26  C   UNL     1      -0.389  -0.387   0.462  0.00  0.00    -0.050 A 
ATOM     27  C   UNL     1      -0.277  -0.910  -0.812  0.00  0.00    +0.004 A 
ATOM     28  C   UNL     1      -0.169  -2.276  -0.992  0.00  0.00    +0.007 A 
ATOM     29  C   UNL     1      -0.172  -3.120   0.103  0.00  0.00    -0.010 A 
ATOM     30  C   UNL     1      -0.283  -2.597   1.377  0.00  0.00    +0.007 A 
ATOM     31  C   UNL     1      -0.387  -1.231   1.558  0.00  0.00    +0.004 A 
ENDBRANCH  24  29
ENDBRANCH  23  24
ENDBRANCH   1  23
TORSDOF 6
