REMARK  Name = ZINC26443370
REMARK  4 active torsions:
REMARK  status: ('A' for Active; 'I' for Inactive)
REMARK    1  A    between atoms: C_1  and  S_2
REMARK    2  A    between atoms: S_2  and  C_3
REMARK    3  A    between atoms: C_7  and  C_10
REMARK    4  A    between atoms: C_10  and  C_11
REMARK                            x       y       z     vdW  Elec       q    Type
REMARK                         _______ _______ _______ _____ _____    ______ ____
ROOT
ATOM      1  C   UNL     1       0.174   0.961   2.735  0.00  0.00    +0.212 A 
ATOM      2  N   UNL     1      -0.113   1.159   4.053  0.00  0.00    -0.180 NA
ATOM      3  C   UNL     1       0.698   0.604   4.982  0.00  0.00    +0.296 A 
ATOM      4  O   UNL     1       0.482   0.754   6.173  0.00  0.00    -0.264 OA
ATOM      5  C   UNL     1       1.802  -0.155   4.535  0.00  0.00    +0.140 A 
ATOM      6  N   UNL     1       2.007  -0.297   3.247  0.00  0.00    -0.146 NA
ATOM      7  N   UNL     1       1.221   0.234   2.380  0.00  0.00    -0.122 NA
ENDROOT
BRANCH   1   9
ATOM      8  C   UNL     1      -0.013   1.086   0.008  0.00  0.00    +0.093 C 
ATOM      9  S   UNL     1      -0.860   1.669   1.497  0.00  0.00    -0.088 S 
ENDBRANCH   1   9
BRANCH   5  10
ATOM     10  C   UNL     1       2.736  -0.796   5.529  0.00  0.00    +0.188 C 
BRANCH  10  11
ATOM     11  C   UNL     1       3.819  -1.541   4.792  0.00  0.00    +0.362 C 
ATOM     12  O   UNL     1       3.831  -1.550   3.584  0.00  0.00    -0.246 OA
ATOM     13  O   UNL     1       4.770  -2.194   5.478  0.00  0.00    -0.246 OA
ENDBRANCH  10  11
ENDBRANCH   5  10
TORSDOF 3
