REMARK  Name = ZINC36504811
REMARK  13 active torsions:
REMARK  status: ('A' for Active; 'I' for Inactive)
REMARK    1  A    between atoms: C_1  and  C_2
REMARK    2  A    between atoms: C_2  and  C_4
REMARK    3  A    between atoms: C_2  and  C_10
REMARK    4  A    between atoms: C_10  and  C_12
REMARK    5  A    between atoms: C_10  and  N_19
REMARK    6  A    between atoms: N_14  and  C_15
REMARK    7  A    between atoms: C_15  and  C_16
REMARK    8  A    between atoms: C_15  and  C_17
REMARK    9  A    between atoms: C_15  and  C_18
REMARK   10  A    between atoms: N_19  and  C_20
REMARK   11  A    between atoms: C_20  and  C_21
REMARK   12  A    between atoms: C_26  and  C_28
REMARK   13  A    between atoms: C_32  and  N_34
REMARK                            x       y       z     vdW  Elec       q    Type
REMARK                         _______ _______ _______ _____ _____    ______ ____
ROOT
ATOM      1  N   UNL     1       2.977  -1.196  -3.321  0.00  0.00    -0.278 N 
ATOM      2  C   UNL     1       3.941  -1.678  -4.131  0.00  0.00    +0.248 C 
ATOM      3  O   UNL     1       4.044  -1.260  -5.268  0.00  0.00    -0.270 OA
ENDROOT
BRANCH   2   4
ATOM      4  C   UNL     1       4.872  -2.714  -3.637  0.00  0.00    +0.039 A 
ATOM      5  C   UNL     1       5.104  -2.853  -2.267  0.00  0.00    +0.013 A 
ATOM      6  C   UNL     1       5.974  -3.822  -1.813  0.00  0.00    +0.003 A 
ATOM      7  C   UNL     1       6.617  -4.655  -2.711  0.00  0.00    +0.033 A 
ATOM      8  C   UNL     1       6.392  -4.523  -4.070  0.00  0.00    +0.127 A 
ATOM      9  C   UNL     1       5.519  -3.562  -4.537  0.00  0.00    +0.045 A 
BRANCH   8  10
ATOM     10  N   UNL     1       7.084  -5.419  -5.024  0.00  0.00    +0.056 N 
ATOM     11  O   UNL     1       7.845  -6.264  -4.615  0.00  0.00    -0.126 OA
ATOM     12  O   UNL     1       6.888  -5.304  -6.211  0.00  0.00    -0.126 OA
ENDBRANCH   8  10
ENDBRANCH   2   4
BRANCH   1  13
ATOM     13  C   UNL     1       2.134  -0.085  -3.766  0.00  0.00    +0.170 C 
BRANCH  13  14
ATOM     14  C   UNL     1       0.694  -0.384  -3.437  0.00  0.00    +0.235 C 
ATOM     15  O   UNL     1       0.423  -1.096  -2.493  0.00  0.00    -0.274 OA
ATOM     16  N   UNL     1      -0.293   0.141  -4.190  0.00  0.00    -0.309 N 
ATOM     17  H   UNL     1      -0.076   0.711  -4.945  0.00  0.00    +0.149 HD
BRANCH  16  18
ATOM     18  C   UNL     1      -1.692  -0.149  -3.870  0.00  0.00    +0.026 C 
ATOM     19  C   UNL     1      -2.005   0.344  -2.456  0.00  0.00    +0.031 C 
ATOM     20  C   UNL     1      -2.603   0.563  -4.872  0.00  0.00    +0.031 C 
ATOM     21  C   UNL     1      -1.931  -1.659  -3.948  0.00  0.00    +0.031 C 
ENDBRANCH  16  18
ENDBRANCH  13  14
BRANCH  13  23
ATOM     22  C   UNL     1       4.026   1.502  -3.388  0.00  0.00    +0.015 C 
ATOM     23  C   UNL     1       2.564   1.199  -3.054  0.00  0.00    +0.045 C 
BRANCH  23  24
ATOM     24  C   UNL     1       1.696   2.343  -3.512  0.00  0.00    -0.042 A 
ATOM     25  C   UNL     1       1.663   2.692  -4.849  0.00  0.00    +0.004 A 
ATOM     26  C   UNL     1       0.867   3.741  -5.270  0.00  0.00    +0.000 A 
ATOM     27  C   UNL     1       0.104   4.441  -4.353  0.00  0.00    +0.000 A 
ATOM     28  C   UNL     1       0.137   4.091  -3.016  0.00  0.00    +0.000 A 
ATOM     29  C   UNL     1       0.930   3.039  -2.596  0.00  0.00    +0.004 A 
ENDBRANCH  23  24
ENDBRANCH  13  23
ENDBRANCH   1  13
BRANCH   1  30
ATOM     30  C   UNL     1       2.774  -1.785  -1.994  0.00  0.00    +0.183 C 
BRANCH  30  31
ATOM     31  C   UNL     1       3.531  -0.983  -0.968  0.00  0.00    +0.122 A 
ATOM     32  C   UNL     1       3.572  -1.235   0.353  0.00  0.00    +0.046 A 
ATOM     33  C   UNL     1       4.394  -0.242   0.934  0.00  0.00    +0.041 A 
ATOM     34  C   UNL     1       4.806   0.557  -0.066  0.00  0.00    +0.195 A 
ATOM     35  O   UNL     1       4.285   0.100  -1.217  0.00  0.00    -0.466 OA
ENDBRANCH  30  31
ENDBRANCH   1  30
TORSDOF 9
