REMARK  Name = ZINC12480063
REMARK  13 active torsions:
REMARK  status: ('A' for Active; 'I' for Inactive)
REMARK    1  A    between atoms: C_1  and  C_2
REMARK    2  A    between atoms: C_5  and  C_7
REMARK    3  A    between atoms: C_7  and  C_9
REMARK    4  A    between atoms: C_7  and  N_17
REMARK    5  A    between atoms: N_11  and  C_12
REMARK    6  A    between atoms: C_12  and  C_13
REMARK    7  A    between atoms: C_13  and  C_14
REMARK    8  A    between atoms: C_14  and  C_15
REMARK    9  A    between atoms: C_14  and  C_16
REMARK   10  A    between atoms: N_17  and  C_18
REMARK   11  A    between atoms: C_26  and  C_28
REMARK   12  A    between atoms: C_29  and  N_36
REMARK   13  A    between atoms: C_30  and  C_33
REMARK                            x       y       z     vdW  Elec       q    Type
REMARK                         _______ _______ _______ _____ _____    ______ ____
ROOT
ATOM      1  N   UNL     1      -4.393   3.464   2.150  0.00  0.00    -0.248 N 
ATOM      2  C   UNL     1      -4.060   4.768   2.227  0.00  0.00    +0.262 C 
ATOM      3  O   UNL     1      -3.809   5.268   3.308  0.00  0.00    -0.269 OA
ENDROOT
BRANCH   1   4
ATOM      4  C   UNL     1      -4.786   2.914   0.924  0.00  0.00    +0.039 A 
ATOM      5  C   UNL     1      -3.850   2.290   0.110  0.00  0.00    +0.026 A 
ATOM      6  C   UNL     1      -4.239   1.747  -1.099  0.00  0.00    +0.041 A 
ATOM      7  C   UNL     1      -5.562   1.825  -1.500  0.00  0.00    +0.142 A 
ATOM      8  C   UNL     1      -6.499   2.446  -0.689  0.00  0.00    +0.078 A 
ATOM      9  C   UNL     1      -6.114   2.986   0.524  0.00  0.00    +0.046 A 
ATOM     10 CL   UNL     1      -8.157   2.542  -1.194  0.00  0.00    -0.081 Cl
ATOM     11  F   UNL     1      -5.941   1.294  -2.683  0.00  0.00    -0.204 F 
ENDBRANCH   1   4
BRANCH   2  12
ATOM     12  C   UNL     1      -4.001   5.582   1.012  0.00  0.00    +0.116 A 
ATOM     13  C   UNL     1      -3.627   6.918   0.859  0.00  0.00    +0.076 A 
ATOM     14  C   UNL     1      -3.699   7.345  -0.467  0.00  0.00    +0.155 A 
ATOM     15  N   UNL     1      -4.089   6.499  -1.394  0.00  0.00    -0.203 NA
ATOM     16  S   UNL     1      -4.379   5.130  -0.669  0.00  0.00    +0.019 S 
BRANCH  14  17
ATOM     17  C   UNL     1      -3.342   8.730  -0.824  0.00  0.00    +0.262 C 
ATOM     18  O   UNL     1      -2.982   9.507   0.039  0.00  0.00    -0.269 OA
ATOM     19  N   UNL     1      -3.414   9.134  -2.108  0.00  0.00    -0.324 N 
ATOM     20  H   UNL     1      -3.701   8.514  -2.796  0.00  0.00    +0.145 HD
ATOM     21  H   UNL     1      -3.179  10.046  -2.343  0.00  0.00    +0.145 HD
ENDBRANCH  14  17
BRANCH  13  22
ATOM     22  N   UNL     1      -3.228   7.732   1.911  0.00  0.00    -0.355 N 
ATOM     23  H   UNL     1      -3.198   7.379   2.814  0.00  0.00    +0.142 HD
ATOM     24  H   UNL     1      -2.979   8.655   1.743  0.00  0.00    +0.142 HD
ENDBRANCH  13  22
ENDBRANCH   2  12
BRANCH   1  25
ATOM     25  C   UNL     1      -4.344   2.623   3.348  0.00  0.00    +0.233 C 
BRANCH  25  30
ATOM     26  C   UNL     1      -2.552  -1.565   1.182  0.00  0.00    +0.086 C 
ATOM     27  C   UNL     1      -2.708  -0.408   2.135  0.00  0.00    +0.102 A 
ATOM     28  C   UNL     1      -1.925  -0.154   3.199  0.00  0.00    +0.045 A 
ATOM     29  C   UNL     1      -2.427   1.020   3.806  0.00  0.00    +0.047 A 
ATOM     30  C   UNL     1      -3.487   1.413   3.077  0.00  0.00    +0.135 A 
ATOM     31  O   UNL     1      -3.649   0.547   2.063  0.00  0.00    -0.462 OA
ENDBRANCH  25  30
BRANCH  25  32
ATOM     32  C   UNL     1      -5.738   2.180   3.709  0.00  0.00    +0.242 C 
ATOM     33  O   UNL     1      -6.681   2.533   3.033  0.00  0.00    -0.273 OA
ATOM     34  N   UNL     1      -5.938   1.393   4.785  0.00  0.00    -0.313 N 
ATOM     35  H   UNL     1      -5.184   1.111   5.326  0.00  0.00    +0.149 HD
BRANCH  34  36
ATOM     36  C   UNL     1      -7.294   0.963   5.136  0.00  0.00    +0.104 C 
BRANCH  36  37
ATOM     37  C   UNL     1      -7.242   0.084   6.387  0.00  0.00    +0.022 C 
BRANCH  37  38
ATOM     38  C   UNL     1      -8.658  -0.365   6.754  0.00  0.00    -0.016 C 
ATOM     39  C   UNL     1      -9.209  -1.268   5.649  0.00  0.00    +0.007 C 
ATOM     40  C   UNL     1      -8.621  -1.139   8.074  0.00  0.00    +0.007 C 
ENDBRANCH  37  38
ENDBRANCH  36  37
ENDBRANCH  34  36
ENDBRANCH  25  32
ENDBRANCH   1  25
TORSDOF 10
