REMARK  Name = ZINC36700865
REMARK  8 active torsions:
REMARK  status: ('A' for Active; 'I' for Inactive)
REMARK    1  A    between atoms: C_1  and  C_2
REMARK    2  A    between atoms: C_5  and  C_8
REMARK    3  A    between atoms: C_8  and  C_35
REMARK    4  A    between atoms: N_11  and  C_15
REMARK    5  A    between atoms: C_15  and  C_16
REMARK    6  A    between atoms: C_21  and  C_34
REMARK    7  A    between atoms: C_22  and  C_24
REMARK    8  A    between atoms: C_24  and  C_25
REMARK                            x       y       z     vdW  Elec       q    Type
REMARK                         _______ _______ _______ _____ _____    ______ ____
ROOT
ATOM      1  C   UNL     1      -3.917  -5.345   1.650  0.00  0.00    +0.237 C 
ATOM      2  O   UNL     1      -3.906  -4.210   1.224  0.00  0.00    -0.274 OA
ATOM      3  N   UNL     1      -4.976  -5.791   2.354  0.00  0.00    -0.263 N 
ATOM      4  C   UNL     1      -6.056  -4.949   2.592  0.00  0.00    +0.165 A 
ATOM      5  N   UNL     1      -6.220  -3.702   2.208  0.00  0.00    -0.230 NA
ATOM      6  C   UNL     1      -7.314  -3.031   2.518  0.00  0.00    +0.051 A 
ATOM      7  C   UNL     1      -8.252  -3.685   3.246  0.00  0.00    +0.018 A 
ATOM      8  S   UNL     1      -7.473  -5.280   3.437  0.00  0.00    -0.056 S 
ATOM      9  C   UNL     1      -7.511  -1.602   2.083  0.00  0.00    +0.066 C 
ATOM     10  H   UNL     1      -4.984  -6.699   2.694  0.00  0.00    +0.157 HD
ENDROOT
BRANCH   1  11
ATOM     11  C   UNL     1      -2.746  -6.258   1.391  0.00  0.00    +0.214 C 
BRANCH  11  15
ATOM     12  C   UNL     1       0.059  -4.275  -0.021  0.00  0.00    +0.135 C 
ATOM     13  C   UNL     1      -0.728  -4.825   1.151  0.00  0.00    +0.251 C 
ATOM     14  O   UNL     1      -0.502  -4.654   2.330  0.00  0.00    -0.272 OA
ATOM     15  N   UNL     1      -1.732  -5.543   0.611  0.00  0.00    -0.215 N 
ATOM     16  C   UNL     1      -1.689  -5.524  -0.726  0.00  0.00    +0.310 C 
ATOM     17  O   UNL     1      -2.490  -6.100  -1.437  0.00  0.00    -0.252 OA
ATOM     18  N   UNL     1      -0.660  -4.796  -1.197  0.00  0.00    -0.281 N 
ATOM     19  C   UNL     1       1.499  -4.794   0.002  0.00  0.00    +0.047 C 
ATOM     20  H   UNL     1      -0.435  -4.644  -2.128  0.00  0.00    +0.152 HD
BRANCH  12  25
ATOM     21  C   UNL     1      -0.018   1.503   0.010  0.00  0.00    +0.044 C 
ATOM     22  C   UNL     1       0.002  -0.004   0.002  0.00  0.00    -0.050 A 
ATOM     23  C   UNL     1       0.006  -0.689  -1.199  0.00  0.00    +0.004 A 
ATOM     24  C   UNL     1       0.025  -2.071  -1.206  0.00  0.00    +0.006 A 
ATOM     25  C   UNL     1       0.040  -2.768  -0.013  0.00  0.00    -0.015 A 
ATOM     26  C   UNL     1       0.037  -2.084   1.188  0.00  0.00    +0.006 A 
ATOM     27  C   UNL     1       0.023  -0.702   1.195  0.00  0.00    +0.004 A 
ENDBRANCH  12  25
ENDBRANCH  11  15
ENDBRANCH   1  11
BRANCH   7  28
ATOM     28  C   UNL     1      -9.587  -3.200   3.751  0.00  0.00    +0.079 C 
BRANCH  28  29
ATOM     29  C   UNL     1     -10.649  -3.489   2.721  0.00  0.00    -0.039 A 
ATOM     30  C   UNL     1     -10.933  -2.554   1.743  0.00  0.00    +0.008 A 
ATOM     31  C   UNL     1     -11.905  -2.814   0.795  0.00  0.00    +0.050 A 
ATOM     32  C   UNL     1     -12.598  -4.013   0.824  0.00  0.00    +0.166 A 
ATOM     33  C   UNL     1     -12.312  -4.955   1.810  0.00  0.00    +0.166 A 
ATOM     34  C   UNL     1     -11.332  -4.690   2.752  0.00  0.00    +0.053 A 
ATOM     35  O   UNL     1     -13.120  -6.039   1.625  0.00  0.00    -0.453 OA
ATOM     36  C   UNL     1     -14.184  -5.584   0.768  0.00  0.00    +0.466 C 
ATOM     37  O   UNL     1     -13.586  -4.508   0.022  0.00  0.00    -0.453 OA
ENDBRANCH  28  29
ENDBRANCH   7  28
TORSDOF 5
