REMARK  Name = ZINC38899437
REMARK  5 active torsions:
REMARK  status: ('A' for Active; 'I' for Inactive)
REMARK    1  A    between atoms: C_4  and  C_7
REMARK    2  A    between atoms: C_17  and  S_19
REMARK    3  A    between atoms: S_19  and  C_20
REMARK    4  A    between atoms: C_23  and  C_31
REMARK    5  A    between atoms: N_24  and  C_25
REMARK                            x       y       z     vdW  Elec       q    Type
REMARK                         _______ _______ _______ _____ _____    ______ ____
ROOT
ATOM      1  C   UNL     1       3.629  -0.570   0.231  0.00  0.00    -0.009 C 
ATOM      2  C   UNL     1       4.838   0.069  -0.054  0.00  0.00    +0.002 A 
ATOM      3  C   UNL     1       4.928   1.478  -0.044  0.00  0.00    +0.011 A 
ATOM      4  C   UNL     1       6.114   2.079  -0.325  0.00  0.00    +0.021 A 
ATOM      5  C   UNL     1       7.253   1.331  -0.624  0.00  0.00    +0.043 A 
ATOM      6  C   UNL     1       7.228  -0.042  -0.648  0.00  0.00    +0.044 A 
ATOM      7  C   UNL     1       6.032  -0.724  -0.368  0.00  0.00    +0.042 A 
ATOM      8  N   UNL     1       6.008  -2.062  -0.392  0.00  0.00    -0.284 N 
ATOM      9  C   UNL     1       4.928  -2.775  -0.141  0.00  0.00    +0.235 C 
ATOM     10  O   UNL     1       4.979  -3.991  -0.182  0.00  0.00    -0.274 OA
ATOM     11  C   UNL     1       3.627  -2.086   0.204  0.00  0.00    +0.171 C 
ATOM     12 CL   UNL     1       8.739   2.157  -0.974  0.00  0.00    -0.083 Cl
ATOM     13  H   UNL     1       6.829  -2.532  -0.607  0.00  0.00    +0.155 HD
ENDROOT
BRANCH   1  17
ATOM     14  C   UNL     1       0.165   1.606   1.140  0.00  0.00    +0.000 A 
ATOM     15  C   UNL     1       0.207   0.826  -0.004  0.00  0.00    +0.001 A 
ATOM     16  C   UNL     1       1.341   0.107  -0.312  0.00  0.00    +0.008 A 
ATOM     17  C   UNL     1       2.457   0.167   0.539  0.00  0.00    -0.020 A 
ATOM     18  C   UNL     1       2.404   0.961   1.696  0.00  0.00    +0.008 A 
ATOM     19  C   UNL     1       1.260   1.672   1.986  0.00  0.00    +0.001 A 
ENDBRANCH   1  17
BRANCH  11  20
ATOM     20  S   UNL     1       3.095  -2.671   1.836  0.00  0.00    -0.068 S 
BRANCH  20  21
ATOM     21  C   UNL     1       2.988  -4.420   1.648  0.00  0.00    +0.193 A 
ATOM     22  N   UNL     1       3.250  -5.104   0.556  0.00  0.00    -0.122 NA
ATOM     23  N   UNL     1       3.069  -6.359   0.768  0.00  0.00    -0.128 NA
ATOM     24  C   UNL     1       2.682  -6.553   2.007  0.00  0.00    +0.167 A 
ATOM     25  N   UNL     1       2.623  -5.318   2.610  0.00  0.00    -0.299 N 
BRANCH  25  26
ATOM     26  C   UNL     1       2.244  -5.026   3.995  0.00  0.00    +0.091 C 
ATOM     27  C   UNL     1       0.976  -4.169   4.007  0.00  0.00    +0.025 C 
ATOM     28  C   UNL     1       0.581  -3.865   5.453  0.00  0.00    +0.002 C 
ATOM     29  C   UNL     1       1.716  -3.106   6.143  0.00  0.00    +0.000 C 
ATOM     30  C   UNL     1       2.984  -3.962   6.131  0.00  0.00    +0.002 C 
ATOM     31  C   UNL     1       3.379  -4.267   4.685  0.00  0.00    +0.025 C 
ENDBRANCH  25  26
BRANCH  24  32
ATOM     32  C   UNL     1       2.371  -7.854   2.637  0.00  0.00    +0.037 A 
ATOM     33  C   UNL     1       1.404  -7.944   3.644  0.00  0.00    +0.014 A 
ATOM     34  C   UNL     1       1.151  -9.185   4.201  0.00  0.00    +0.020 A 
ATOM     35  C   UNL     1       1.855 -10.287   3.749  0.00  0.00    +0.111 A 
ATOM     36  N   UNL     1       2.761 -10.172   2.797  0.00  0.00    -0.263 NA
ATOM     37  C   UNL     1       3.034  -9.014   2.233  0.00  0.00    +0.122 A 
ENDBRANCH  24  32
ENDBRANCH  20  21
ENDBRANCH  11  20
TORSDOF 5
