REMARK  Name = ZINC33271131
REMARK  9 active torsions:
REMARK  status: ('A' for Active; 'I' for Inactive)
REMARK    1  A    between atoms: C_1  and  C_2
REMARK    2  A    between atoms: C_2  and  O_3
REMARK    3  A    between atoms: O_3  and  C_4
REMARK    4  A    between atoms: C_6  and  C_14
REMARK    5  A    between atoms: C_9  and  O_10
REMARK    6  A    between atoms: O_10  and  C_11
REMARK    7  A    between atoms: C_11  and  C_12
REMARK    8  A    between atoms: C_26  and  O_31
REMARK    9  A    between atoms: O_31  and  C_32
REMARK                            x       y       z     vdW  Elec       q    Type
REMARK                         _______ _______ _______ _____ _____    ______ ____
ROOT
ATOM      1  C   UNL     1       1.135   6.282  -0.232  0.00  0.00    +0.107 C 
ATOM      2  C   UNL     1       2.283   5.607   0.524  0.00  0.00    +0.047 C 
ATOM      3  C   UNL     1       3.567   6.417   0.365  0.00  0.00    +0.011 C 
ATOM      4  C   UNL     1       4.014   6.388  -1.100  0.00  0.00    +0.028 C 
ATOM      5  C   UNL     1       4.186   4.929  -1.534  0.00  0.00    +0.160 C 
ATOM      6  O   UNL     1       2.946   4.241  -1.363  0.00  0.00    -0.372 OA
ATOM      7  C   UNL     1       2.474   4.191  -0.014  0.00  0.00    +0.155 C 
ATOM      8  C   UNL     1       1.161   3.449   0.009  0.00  0.00    +0.006 A 
ATOM      9  C   UNL     1       1.174   2.065   0.002  0.00  0.00    +0.053 A 
ATOM     10  C   UNL     1      -0.016   1.356   0.009  0.00  0.00    +0.121 A 
ATOM     11  C   UNL     1      -1.227   2.033   0.019  0.00  0.00    +0.047 A 
ATOM     12  C   UNL     1      -1.243   3.413   0.034  0.00  0.00    +0.027 A 
ATOM     13  C   UNL     1      -0.049   4.125   0.030  0.00  0.00    +0.034 A 
ATOM     14  N   UNL     1      -0.093   5.526   0.053  0.00  0.00    -0.336 N 
ATOM     15  H   UNL     1      -1.027   6.061   0.280  0.00  0.00    +0.147 HD
ENDROOT
BRANCH   1  18
ATOM     16  C   UNL     1       1.336  10.053  -0.096  0.00  0.00    +0.163 A 
ATOM     17  C   UNL     1       1.477   8.743  -0.528  0.00  0.00    +0.055 A 
ATOM     18  C   UNL     1       0.981   7.705   0.239  0.00  0.00    -0.022 A 
ATOM     19  C   UNL     1       0.337   7.970   1.433  0.00  0.00    +0.024 A 
ATOM     20  C   UNL     1       0.197   9.274   1.872  0.00  0.00    +0.063 A 
ATOM     21  C   UNL     1       0.693  10.320   1.108  0.00  0.00    +0.176 A 
ATOM     22 BR   UNL     1      -0.677   9.632   3.510  0.00  0.00    -0.046 Br
BRANCH  16  23
ATOM     23  O   UNL     1       1.823  11.075  -0.850  0.00  0.00    -0.489 OA
BRANCH  23  25
ATOM     24  C   UNL     1       2.950  11.997  -2.778  0.00  0.00    +0.048 C 
ATOM     25  C   UNL     1       2.471  10.726  -2.075  0.00  0.00    +0.226 C 
ENDBRANCH  23  25
ENDBRANCH  16  23
BRANCH  21  26
ATOM     26  O   UNL     1       0.552  11.603   1.536  0.00  0.00    -0.487 OA
BRANCH  26  27
ATOM     27  C   UNL     1      -0.629  12.297   1.127  0.00  0.00    +0.226 C 
ATOM     28  C   UNL     1      -0.611  13.715   1.700  0.00  0.00    +0.048 C 
ENDBRANCH  26  27
ENDBRANCH  21  26
ENDBRANCH   1  18
BRANCH  10  29
ATOM     29  O   UNL     1       0.002  -0.004   0.002  0.00  0.00    -0.495 OA
ATOM     30  C   UNL     1      -1.262  -0.670   0.011  0.00  0.00    +0.277 C 
ENDBRANCH  10  29
TORSDOF 6
