REMARK  Name = ZINC13077285
REMARK  8 active torsions:
REMARK  status: ('A' for Active; 'I' for Inactive)
REMARK    1  A    between atoms: C_1  and  C_2
REMARK    2  A    between atoms: C_2  and  C_4
REMARK    3  A    between atoms: C_2  and  O_6
REMARK    4  A    between atoms: O_6  and  C_7
REMARK    5  A    between atoms: C_10  and  C_13
REMARK    6  A    between atoms: C_15  and  C_23
REMARK    7  A    between atoms: C_28  and  O_29
REMARK    8  A    between atoms: O_29  and  C_30
REMARK                            x       y       z     vdW  Elec       q    Type
REMARK                         _______ _______ _______ _____ _____    ______ ____
ROOT
ATOM      1  C   UNL     1      -1.658   2.503   1.235  0.00  0.00    +0.039 C 
ATOM      2  C   UNL     1      -0.867   1.439   1.216  0.00  0.00    +0.028 C 
ATOM      3  C   UNL     1      -0.177   0.941  -0.026  0.00  0.00    +0.170 C 
ATOM      4  N   UNL     1      -0.728   1.614  -1.195  0.00  0.00    -0.202 N 
ATOM      5  C   UNL     1      -1.541   2.700  -1.132  0.00  0.00    +0.240 A 
ATOM      6  N   UNL     1      -1.831   3.040  -2.355  0.00  0.00    -0.092 NA
ATOM      7  N   UNL     1      -1.261   2.238  -3.188  0.00  0.00    -0.021 NA
ATOM      8  N   UNL     1      -0.574   1.343  -2.554  0.00  0.00    -0.042 NA
ATOM      9  N   UNL     1      -1.923   3.253   0.081  0.00  0.00    -0.282 N 
ATOM     10  H   UNL     1      -2.354   4.120   0.129  0.00  0.00    +0.155 HD
ENDROOT
BRANCH   3  11
ATOM     11  C   UNL     1       1.299   1.230   0.070  0.00  0.00    +0.024 A 
ATOM     12  C   UNL     1       1.742   2.533   0.191  0.00  0.00    +0.025 A 
ATOM     13  C   UNL     1       3.096   2.798   0.285  0.00  0.00    +0.018 A 
ATOM     14  C   UNL     1       4.010   1.761   0.246  0.00  0.00    +0.019 A 
ATOM     15  C   UNL     1       3.572   0.457   0.120  0.00  0.00    +0.047 A 
ATOM     16  C   UNL     1       2.214   0.188   0.031  0.00  0.00    +0.126 A 
ATOM     17 BR   UNL     1       3.699   4.582   0.458  0.00  0.00    -0.050 Br
BRANCH  16  18
ATOM     18  O   UNL     1       1.780  -1.094  -0.093  0.00  0.00    -0.495 OA
ATOM     19  C   UNL     1       2.779  -2.116  -0.126  0.00  0.00    +0.277 C 
ENDBRANCH  16  18
ENDBRANCH   3  11
BRANCH   1  23
ATOM     20  C   UNL     1      -3.447   3.675   4.909  0.00  0.00    +0.122 A 
ATOM     21  C   UNL     1      -3.695   4.404   3.753  0.00  0.00    +0.046 A 
ATOM     22  C   UNL     1      -3.116   4.027   2.560  0.00  0.00    +0.013 A 
ATOM     23  C   UNL     1      -2.280   2.911   2.514  0.00  0.00    -0.004 A 
ATOM     24  C   UNL     1      -2.037   2.178   3.676  0.00  0.00    +0.013 A 
ATOM     25  C   UNL     1      -2.616   2.563   4.866  0.00  0.00    +0.046 A 
BRANCH  20  26
ATOM     26  O   UNL     1      -4.019   4.049   6.083  0.00  0.00    -0.478 OA
BRANCH  26  28
ATOM     27  C   UNL     1      -4.207   6.458   6.109  0.00  0.00    +0.064 C 
ATOM     28  C   UNL     1      -4.956   5.127   6.033  0.00  0.00    +0.282 C 
BRANCH  28  29
ATOM     29  C   UNL     1      -5.908   5.019   7.197  0.00  0.00    +0.395 C 
ATOM     30  O   UNL     1      -5.741   4.166   8.037  0.00  0.00    -0.242 OA
ATOM     31  O   UNL     1      -6.941   5.869   7.300  0.00  0.00    -0.242 OA
ENDBRANCH  28  29
ENDBRANCH  26  28
ENDBRANCH  20  26
ENDBRANCH   1  23
TORSDOF 6
