REMARK  Name = ZINC37277300
REMARK  7 active torsions:
REMARK  status: ('A' for Active; 'I' for Inactive)
REMARK    1  A    between atoms: C_1  and  C_2
REMARK    2  A    between atoms: C_2  and  C_3
REMARK    3  A    between atoms: C_3  and  C_5
REMARK    4  A    between atoms: C_3  and  C_11
REMARK    5  A    between atoms: N_13  and  C_14
REMARK    6  A    between atoms: N_17  and  C_20
REMARK    7  A    between atoms: C_25  and  C_26
REMARK                            x       y       z     vdW  Elec       q    Type
REMARK                         _______ _______ _______ _____ _____    ______ ____
ROOT
ATOM      1  C   UNL     1      -4.482   3.536   5.396  0.00  0.00    +0.042 A 
ATOM      2  C   UNL     1      -5.154   3.646   6.607  0.00  0.00    +0.024 A 
ATOM      3  C   UNL     1      -6.106   4.628   6.782  0.00  0.00    +0.002 A 
ATOM      4  C   UNL     1      -6.401   5.511   5.755  0.00  0.00    +0.001 A 
ATOM      5  C   UNL     1      -5.745   5.418   4.548  0.00  0.00    +0.015 A 
ATOM      6  C   UNL     1      -4.773   4.432   4.356  0.00  0.00    +0.058 A 
ENDROOT
BRANCH   6   7
ATOM      7  C   UNL     1      -4.063   4.331   3.068  0.00  0.00    +0.248 C 
ATOM      8  O   UNL     1      -4.177   3.329   2.388  0.00  0.00    -0.270 OA
ATOM      9  N   UNL     1      -3.288   5.348   2.644  0.00  0.00    -0.294 N 
ATOM     10  C   UNL     1      -3.050   6.516   3.504  0.00  0.00    +0.127 C 
ATOM     11  C   UNL     1      -1.537   6.705   3.667  0.00  0.00    +0.125 C 
ATOM     12  N   UNL     1      -0.913   6.667   2.337  0.00  0.00    -0.314 N 
ATOM     13  C   UNL     1      -1.150   5.498   1.478  0.00  0.00    +0.125 C 
ATOM     14  C   UNL     1      -2.659   5.307   1.317  0.00  0.00    +0.127 C 
ATOM     15  C   UNL     1      -0.113   7.716   1.900  0.00  0.00    +0.099 A 
ATOM     16  C   UNL     1       0.216   8.744   2.778  0.00  0.00    +0.042 A 
ATOM     17  C   UNL     1       1.013   9.782   2.330  0.00  0.00    +0.005 A 
ATOM     18  C   UNL     1       1.456   9.757   1.014  0.00  0.00    +0.018 A 
ATOM     19  C   UNL     1       1.091   8.705   0.198  0.00  0.00    +0.084 A 
ATOM     20  N   UNL     1       0.334   7.725   0.654  0.00  0.00    -0.350 N 
ATOM     21  H   UNL     1       0.095   6.996   0.060  0.00  0.00    +0.166 HD
ENDBRANCH   6   7
BRANCH   1  25
ATOM     22  C   UNL     1      -1.510   1.061   3.897  0.00  0.00    +0.076 C 
ATOM     23  C   UNL     1      -2.971   0.957   3.451  0.00  0.00    +0.041 C 
ATOM     24  C   UNL     1      -3.887   1.245   4.645  0.00  0.00    +0.107 C 
ATOM     25  N   UNL     1      -3.522   2.548   5.217  0.00  0.00    -0.329 N 
ATOM     26  C   UNL     1      -2.123   2.787   5.596  0.00  0.00    +0.107 C 
ATOM     27  C   UNL     1      -1.227   2.481   4.392  0.00  0.00    +0.041 C 
BRANCH  22  30
ATOM     28  C   UNL     1      -0.321  -0.527   2.483  0.00  0.00    +0.221 C 
ATOM     29  O   UNL     1      -0.692  -1.418   3.217  0.00  0.00    -0.275 OA
ATOM     30  N   UNL     1      -0.632   0.754   2.766  0.00  0.00    -0.312 N 
ATOM     31  H   UNL     1      -0.274   1.472   2.220  0.00  0.00    +0.149 HD
BRANCH  28  32
ATOM     32  C   UNL     1       0.489  -0.851   1.254  0.00  0.00    +0.105 C 
BRANCH  32  33
ATOM     33  C   UNL     1       0.618  -2.347   1.118  0.00  0.00    -0.036 A 
ATOM     34  C   UNL     1      -0.513  -3.129   0.983  0.00  0.00    +0.004 A 
ATOM     35  C   UNL     1      -0.395  -4.500   0.858  0.00  0.00    +0.000 A 
ATOM     36  C   UNL     1       0.855  -5.090   0.868  0.00  0.00    +0.000 A 
ATOM     37  C   UNL     1       1.987  -4.308   1.003  0.00  0.00    +0.000 A 
ATOM     38  C   UNL     1       1.869  -2.936   1.123  0.00  0.00    +0.004 A 
ENDBRANCH  32  33
BRANCH  32  40
ATOM     39  C   UNL     1       0.688  -0.468  -1.207  0.00  0.00    +0.005 C 
ATOM     40  C   UNL     1      -0.212  -0.286   0.017  0.00  0.00    +0.014 C 
ENDBRANCH  32  40
ENDBRANCH  28  32
ENDBRANCH  22  30
ENDBRANCH   1  25
TORSDOF 6
