REMARK  Name = ZINC09836202
REMARK  9 active torsions:
REMARK  status: ('A' for Active; 'I' for Inactive)
REMARK    1  A    between atoms: C_1  and  C_2
REMARK    2  A    between atoms: C_2  and  O_3
REMARK    3  A    between atoms: O_3  and  C_4
REMARK    4  A    between atoms: C_7  and  N_10
REMARK    5  A    between atoms: C_20  and  C_21
REMARK    6  A    between atoms: C_20  and  O_35
REMARK    7  A    between atoms: N_23  and  C_24
REMARK    8  A    between atoms: C_29  and  C_34
REMARK    9  A    between atoms: C_31  and  C_33
REMARK                            x       y       z     vdW  Elec       q    Type
REMARK                         _______ _______ _______ _____ _____    ______ ____
ROOT
ATOM      1  N   UNL     1       3.792   2.699   3.896  0.00  0.00    -0.214 N 
ATOM      2  C   UNL     1       4.715   3.568   3.446  0.00  0.00    +0.314 C 
ATOM      3  O   UNL     1       5.174   4.381   4.226  0.00  0.00    -0.252 OA
ATOM      4  N   UNL     1       5.152   3.581   2.180  0.00  0.00    -0.269 N 
ATOM      5  C   UNL     1       4.689   2.692   1.209  0.00  0.00    +0.043 A 
ATOM      6  C   UNL     1       5.175   2.746  -0.091  0.00  0.00    +0.025 A 
ATOM      7  C   UNL     1       4.705   1.858  -1.038  0.00  0.00    +0.017 A 
ATOM      8  C   UNL     1       3.752   0.914  -0.699  0.00  0.00    +0.018 A 
ATOM      9  C   UNL     1       3.265   0.855   0.597  0.00  0.00    +0.025 A 
ATOM     10  C   UNL     1       3.732   1.739   1.542  0.00  0.00    +0.034 A 
ATOM     11  C   UNL     1       3.226   1.708   2.965  0.00  0.00    +0.247 C 
ATOM     12 BR   UNL     1       3.115  -0.298  -2.004  0.00  0.00    -0.050 Br
ATOM     13  H   UNL     1       5.819   4.237   1.927  0.00  0.00    +0.156 HD
ENDROOT
BRANCH   1  17
ATOM     14  C   UNL     1       2.550   2.808   7.875  0.00  0.00    +0.121 A 
ATOM     15  C   UNL     1       3.544   1.923   7.483  0.00  0.00    +0.047 A 
ATOM     16  C   UNL     1       3.955   1.886   6.165  0.00  0.00    +0.027 A 
ATOM     17  C   UNL     1       3.375   2.736   5.233  0.00  0.00    +0.042 A 
ATOM     18  C   UNL     1       2.384   3.625   5.627  0.00  0.00    +0.027 A 
ATOM     19  C   UNL     1       1.970   3.657   6.944  0.00  0.00    +0.047 A 
BRANCH  14  20
ATOM     20  O   UNL     1       2.146   2.844   9.173  0.00  0.00    -0.492 OA
BRANCH  20  22
ATOM     21  C   UNL     1       0.798   3.675  10.999  0.00  0.00    +0.048 C 
ATOM     22  C   UNL     1       1.118   3.779   9.507  0.00  0.00    +0.225 C 
ENDBRANCH  20  22
ENDBRANCH  14  20
ENDBRANCH   1  17
BRANCH  11  23
ATOM     23  C   UNL     1       1.732   1.902   2.931  0.00  0.00    +0.269 C 
ATOM     24  O   UNL     1       0.999   1.047   3.380  0.00  0.00    -0.270 OA
ATOM     25  N   UNL     1       1.211   3.027   2.402  0.00  0.00    -0.308 N 
ATOM     26  H   UNL     1       1.797   3.711   2.042  0.00  0.00    +0.149 HD
BRANCH  25  27
ATOM     27  C   UNL     1      -0.242   3.216   2.369  0.00  0.00    +0.076 C 
ATOM     28  C   UNL     1      -0.710   3.802   3.702  0.00  0.00    +0.022 C 
ATOM     29  C   UNL     1      -2.227   4.000   3.668  0.00  0.00    +0.002 C 
ATOM     30  C   UNL     1      -2.590   4.960   2.533  0.00  0.00    +0.003 C 
ATOM     31  C   UNL     1      -2.122   4.374   1.200  0.00  0.00    -0.009 C 
ATOM     32  C   UNL     1      -0.605   4.176   1.234  0.00  0.00    +0.009 C 
ATOM     33  C   UNL     1      -0.137   3.591  -0.099  0.00  0.00    +0.009 C 
ATOM     34  C   UNL     1      -2.807   3.026   0.966  0.00  0.00    +0.008 C 
ENDBRANCH  25  27
ENDBRANCH  11  23
BRANCH  11  35
ATOM     35  O   UNL     1       3.485   0.407   3.496  0.00  0.00    -0.360 OA
ATOM     36  H   UNL     1       3.100  -0.313   2.978  0.00  0.00    +0.213 HD
ENDBRANCH  11  35
TORSDOF 6
