REMARK  Name = ZINC63228993
REMARK  10 active torsions:
REMARK  status: ('A' for Active; 'I' for Inactive)
REMARK    1  A    between atoms: C_1  and  C_2
REMARK    2  A    between atoms: C_2  and  C_4
REMARK    3  A    between atoms: C_2  and  N_12
REMARK    4  A    between atoms: C_4  and  C_5
REMARK    5  A    between atoms: C_5  and  C_6
REMARK    6  A    between atoms: C_13  and  C_15
REMARK    7  A    between atoms: C_15  and  S_16
REMARK    8  A    between atoms: S_16  and  C_17
REMARK    9  A    between atoms: C_20  and  C_28
REMARK   10  A    between atoms: N_21  and  C_22
REMARK                            x       y       z     vdW  Elec       q    Type
REMARK                         _______ _______ _______ _____ _____    ______ ____
ROOT
ATOM      1  C   UNL     1       0.619  -1.809   6.307  0.00  0.00    +0.197 A 
ATOM      2  N   UNL     1       1.909  -2.106   6.253  0.00  0.00    -0.122 NA
ATOM      3  N   UNL     1       2.319  -2.510   7.402  0.00  0.00    -0.128 NA
ATOM      4  C   UNL     1       1.315  -2.498   8.267  0.00  0.00    +0.168 A 
ATOM      5  N   UNL     1       0.199  -2.041   7.584  0.00  0.00    -0.270 N 
ENDROOT
BRANCH   4   6
ATOM      6  C   UNL     1       1.371  -2.871   9.619  0.00  0.00    +0.025 C 
ATOM      7  C   UNL     1       2.488  -3.321  10.323  0.00  0.00    +0.006 A 
ATOM      8  C   UNL     1       3.831  -3.536   9.945  0.00  0.00    +0.010 A 
ATOM      9  C   UNL     1       4.724  -3.989  10.862  0.00  0.00    +0.001 A 
ATOM     10  C   UNL     1       4.349  -4.252  12.181  0.00  0.00    +0.002 A 
ATOM     11  C   UNL     1       3.077  -4.069  12.613  0.00  0.00    +0.026 A 
ATOM     12  C   UNL     1       2.087  -3.596  11.713  0.00  0.00    +0.043 A 
ATOM     13  N   UNL     1       0.805  -3.340  11.882  0.00  0.00    -0.380 N 
ATOM     14  C   UNL     1       0.236  -2.863  10.618  0.00  0.00    +0.152 C 
ATOM     15  H   UNL     1       0.316  -3.447  12.713  0.00  0.00    +0.160 HD
ENDBRANCH   4   6
BRANCH   5  16
ATOM     16  C   UNL     1      -1.092  -1.859   8.096  0.00  0.00    +0.050 A 
ATOM     17  C   UNL     1      -1.323  -0.897   9.071  0.00  0.00    +0.026 A 
ATOM     18  C   UNL     1      -2.597  -0.720   9.574  0.00  0.00    +0.002 A 
ATOM     19  C   UNL     1      -3.641  -1.498   9.109  0.00  0.00    +0.000 A 
ATOM     20  C   UNL     1      -3.413  -2.457   8.138  0.00  0.00    +0.002 A 
ATOM     21  C   UNL     1      -2.143  -2.635   7.627  0.00  0.00    +0.026 A 
ENDBRANCH   5  16
BRANCH   1  22
ATOM     22  S   UNL     1      -0.371  -1.217   4.976  0.00  0.00    -0.076 S 
BRANCH  22  23
ATOM     23  C   UNL     1       0.780  -1.133   3.576  0.00  0.00    +0.173 C 
BRANCH  23  25
ATOM     24  N   UNL     1       0.711  -0.489   1.189  0.00  0.00    -0.312 N 
ATOM     25  C   UNL     1       0.051  -0.633   2.355  0.00  0.00    +0.224 C 
ATOM     26  O   UNL     1      -1.129  -0.361   2.423  0.00  0.00    -0.275 OA
ATOM     27  H   UNL     1       1.654  -0.707   1.135  0.00  0.00    +0.149 HD
BRANCH  24  29
ATOM     28  C   UNL     1      -0.019   1.526   0.010  0.00  0.00    +0.028 C 
ATOM     29  C   UNL     1       0.002  -0.004   0.002  0.00  0.00    +0.070 C 
BRANCH  29  30
ATOM     30  C   UNL     1       0.718  -0.497  -1.257  0.00  0.00    +0.026 C 
BRANCH  30  31
ATOM     31  C   UNL     1       0.630  -2.023  -1.329  0.00  0.00    +0.037 C 
BRANCH  31  32
ATOM     32  C   UNL     1       1.336  -2.509  -2.568  0.00  0.00    -0.047 A 
ATOM     33  C   UNL     1       0.638  -2.639  -3.755  0.00  0.00    +0.003 A 
ATOM     34  C   UNL     1       1.285  -3.085  -4.892  0.00  0.00    +0.000 A 
ATOM     35  C   UNL     1       2.630  -3.400  -4.843  0.00  0.00    +0.000 A 
ATOM     36  C   UNL     1       3.328  -3.270  -3.657  0.00  0.00    +0.000 A 
ATOM     37  C   UNL     1       2.682  -2.820  -2.521  0.00  0.00    +0.003 A 
ENDBRANCH  31  32
ENDBRANCH  30  31
ENDBRANCH  29  30
ENDBRANCH  24  29
ENDBRANCH  23  25
ENDBRANCH  22  23
ENDBRANCH   1  22
TORSDOF 9
