REMARK  Name = ZINC40822581
REMARK  9 active torsions:
REMARK  status: ('A' for Active; 'I' for Inactive)
REMARK    1  A    between atoms: C_1  and  C_2
REMARK    2  A    between atoms: C_2  and  O_3
REMARK    3  A    between atoms: O_3  and  C_4
REMARK    4  A    between atoms: C_9  and  N_10
REMARK    5  A    between atoms: C_11  and  C_13
REMARK    6  A    between atoms: C_14  and  C_38
REMARK    7  A    between atoms: N_22  and  N_23
REMARK    8  A    between atoms: C_24  and  C_26
REMARK    9  A    between atoms: C_29  and  C_32
REMARK                            x       y       z     vdW  Elec       q    Type
REMARK                         _______ _______ _______ _____ _____    ______ ____
ROOT
ATOM      1  C   UNL     1       3.313  -1.061  -5.406  0.00  0.00    +0.193 A 
ATOM      2  C   UNL     1       4.050  -1.439  -6.494  0.00  0.00    +0.009 A 
ATOM      3  C   UNL     1       4.478  -0.255  -7.108  0.00  0.00    +0.042 A 
ATOM      4  C   UNL     1       3.986   0.794  -6.368  0.00  0.00    +0.115 A 
ATOM      5  O   UNL     1       3.283   0.290  -5.356  0.00  0.00    -0.454 OA
ATOM      6  C   UNL     1       4.244   2.238  -6.718  0.00  0.00    +0.075 C 
ATOM      7  C   UNL     1       5.478   2.329  -7.620  0.00  0.00    +0.014 C 
ATOM      8  C   UNL     1       5.336   1.395  -8.827  0.00  0.00    +0.058 C 
ATOM      9  C   UNL     1       5.300  -0.038  -8.319  0.00  0.00    +0.070 C 
ATOM     10  N   UNL     1       5.943  -1.001  -8.905  0.00  0.00    -0.184 NA
ATOM     11  C   UNL     1       4.343  -2.847  -6.943  0.00  0.00    +0.048 C 
ENDROOT
BRANCH   1  13
ATOM     12  N   UNL     1       1.953  -1.468  -3.424  0.00  0.00    -0.276 N 
ATOM     13  C   UNL     1       2.659  -1.968  -4.457  0.00  0.00    +0.284 C 
ATOM     14  O   UNL     1       2.753  -3.173  -4.603  0.00  0.00    -0.266 OA
ATOM     15  H   UNL     1       1.810  -0.511  -3.352  0.00  0.00    +0.155 HD
BRANCH  12  21
ATOM     16  C   UNL     1       0.317  -1.943  -1.704  0.00  0.00    +0.142 A 
ATOM     17  C   UNL     1      -0.203  -2.801  -0.749  0.00  0.00    +0.047 A 
ATOM     18  C   UNL     1       0.382  -4.036  -0.537  0.00  0.00    +0.004 A 
ATOM     19  C   UNL     1       1.486  -4.418  -1.277  0.00  0.00    +0.002 A 
ATOM     20  C   UNL     1       2.011  -3.568  -2.232  0.00  0.00    +0.027 A 
ATOM     21  C   UNL     1       1.426  -2.329  -2.454  0.00  0.00    +0.076 A 
BRANCH  16  22
ATOM     22  O   UNL     1      -0.257  -0.728  -1.913  0.00  0.00    -0.490 OA
BRANCH  22  24
ATOM     23  C   UNL     1      -1.895   0.996  -1.483  0.00  0.00    +0.048 C 
ATOM     24  C   UNL     1      -1.390  -0.399  -1.108  0.00  0.00    +0.226 C 
ENDBRANCH  22  24
ENDBRANCH  16  22
ENDBRANCH  12  21
ENDBRANCH   1  13
BRANCH  10  25
ATOM     25  N   UNL     1       6.706  -0.738 -10.050  0.00  0.00    -0.203 N 
ATOM     26  C   UNL     1       7.375  -1.738 -10.658  0.00  0.00    +0.263 C 
ATOM     27  O   UNL     1       7.315  -2.868 -10.213  0.00  0.00    -0.268 OA
ATOM     28  H   UNL     1       6.754   0.163 -10.404  0.00  0.00    +0.178 HD
BRANCH  26  29
ATOM     29  C   UNL     1       8.179  -1.461 -11.865  0.00  0.00    +0.038 A 
ATOM     30  C   UNL     1       8.253  -0.161 -12.373  0.00  0.00    +0.014 A 
ATOM     31  C   UNL     1       9.004   0.096 -13.498  0.00  0.00    +0.009 A 
ATOM     32  C   UNL     1       9.691  -0.940 -14.131  0.00  0.00    -0.018 A 
ATOM     33  C   UNL     1       9.618  -2.238 -13.624  0.00  0.00    +0.009 A 
ATOM     34  C   UNL     1       8.872  -2.497 -12.496  0.00  0.00    +0.014 A 
BRANCH  32  35
ATOM     35  C   UNL     1      10.498  -0.662 -15.343  0.00  0.00    -0.018 A 
ATOM     36  C   UNL     1      10.578   0.634 -15.848  0.00  0.00    +0.008 A 
ATOM     37  C   UNL     1      11.331   0.887 -16.977  0.00  0.00    +0.001 A 
ATOM     38  C   UNL     1      12.006  -0.143 -17.606  0.00  0.00    +0.000 A 
ATOM     39  C   UNL     1      11.931  -1.432 -17.108  0.00  0.00    +0.001 A 
ATOM     40  C   UNL     1      11.186  -1.695 -15.977  0.00  0.00    +0.008 A 
ENDBRANCH  32  35
ENDBRANCH  26  29
ENDBRANCH  10  25
TORSDOF 7
