REMARK  Name = ZINC63447982
REMARK  9 active torsions:
REMARK  status: ('A' for Active; 'I' for Inactive)
REMARK    1  A    between atoms: C_1  and  C_2
REMARK    2  A    between atoms: C_5  and  C_8
REMARK    3  A    between atoms: C_14  and  S_18
REMARK    4  A    between atoms: S_18  and  C_19
REMARK    5  A    between atoms: C_19  and  C_20
REMARK    6  A    between atoms: N_22  and  C_23
REMARK    7  A    between atoms: C_23  and  C_24
REMARK    8  A    between atoms: C_35  and  C_37
REMARK    9  A    between atoms: C_35  and  C_38
REMARK                            x       y       z     vdW  Elec       q    Type
REMARK                         _______ _______ _______ _____ _____    ______ ____
ROOT
ATOM      1  C   UNL     1       0.059  -4.275  -0.021  0.00  0.00    +0.073 C 
ATOM      2  C   UNL     1      -1.166  -4.809   0.713  0.00  0.00    +0.156 C 
ATOM      3  C   UNL     1      -1.020  -4.551   2.187  0.00  0.00    +0.145 C 
ATOM      4  N   UNL     1      -2.032  -4.082   2.889  0.00  0.00    -0.208 NA
ATOM      5  C   UNL     1      -3.179  -3.715   2.318  0.00  0.00    +0.183 C 
ATOM      6  N   UNL     1      -3.360  -3.740   1.003  0.00  0.00    -0.154 NA
ATOM      7  C   UNL     1      -2.434  -4.208   0.195  0.00  0.00    +0.250 C 
ATOM      8  O   UNL     1      -2.625  -4.157  -1.005  0.00  0.00    -0.273 OA
ATOM      9  N   UNL     1       0.160  -4.739   2.769  0.00  0.00    -0.236 NA
ATOM     10  C   UNL     1       1.264  -4.963   2.081  0.00  0.00    +0.051 C 
ATOM     11  C   UNL     1       1.298  -4.774   0.694  0.00  0.00    +0.025 C 
ATOM     12  C   UNL     1       2.412  -5.025  -0.031  0.00  0.00    +0.162 C 
ATOM     13  O   UNL     1       2.385  -4.853  -1.365  0.00  0.00    -0.292 OA
ATOM     14  C   UNL     1       3.681  -5.494   0.629  0.00  0.00    +0.086 C 
ATOM     15  C   UNL     1       3.749  -4.905   2.043  0.00  0.00    -0.023 C 
ATOM     16  C   UNL     1       2.514  -5.367   2.825  0.00  0.00    +0.062 C 
ATOM     17  C   UNL     1       3.765  -3.377   1.963  0.00  0.00    +0.011 C 
ATOM     18  C   UNL     1       5.016  -5.399   2.745  0.00  0.00    +0.011 C 
ENDROOT
BRANCH   1  23
ATOM     19  C   UNL     1      -0.018   1.503   0.010  0.00  0.00    +0.044 C 
ATOM     20  C   UNL     1       0.002  -0.004   0.002  0.00  0.00    -0.050 A 
ATOM     21  C   UNL     1       0.006  -0.689  -1.199  0.00  0.00    +0.003 A 
ATOM     22  C   UNL     1       0.025  -2.071  -1.206  0.00  0.00    +0.004 A 
ATOM     23  C   UNL     1       0.040  -2.768  -0.013  0.00  0.00    -0.039 A 
ATOM     24  C   UNL     1       0.037  -2.084   1.188  0.00  0.00    +0.004 A 
ATOM     25  C   UNL     1       0.023  -0.702   1.195  0.00  0.00    +0.003 A 
ENDBRANCH   1  23
BRANCH   5  26
ATOM     26  S   UNL     1      -4.504  -3.175   3.347  0.00  0.00    -0.079 S 
BRANCH  26  27
ATOM     27  C   UNL     1      -5.835  -2.783   2.179  0.00  0.00    +0.172 C 
BRANCH  27  28
ATOM     28  C   UNL     1      -7.045  -2.303   2.938  0.00  0.00    +0.224 C 
ATOM     29  O   UNL     1      -7.012  -2.232   4.149  0.00  0.00    -0.275 OA
ATOM     30  N   UNL     1      -8.163  -1.952   2.272  0.00  0.00    -0.308 N 
ATOM     31  H   UNL     1      -8.189  -2.009   1.304  0.00  0.00    +0.149 HD
BRANCH  30  32
ATOM     32  C   UNL     1      -9.339  -1.486   3.011  0.00  0.00    +0.178 C 
BRANCH  32  33
ATOM     33  C   UNL     1     -10.445  -1.160   2.040  0.00  0.00    +0.122 A 
ATOM     34  C   UNL     1     -11.389  -2.015   1.607  0.00  0.00    +0.046 A 
ATOM     35  C   UNL     1     -12.216  -1.294   0.715  0.00  0.00    +0.041 A 
ATOM     36  C   UNL     1     -11.727  -0.042   0.656  0.00  0.00    +0.195 A 
ATOM     37  O   UNL     1     -10.658   0.035   1.465  0.00  0.00    -0.466 OA
ENDBRANCH  32  33
ENDBRANCH  30  32
ENDBRANCH  27  28
ENDBRANCH  26  27
ENDBRANCH   5  26
TORSDOF 6
