REMARK  Name = ZINC08921402
REMARK  11 active torsions:
REMARK  status: ('A' for Active; 'I' for Inactive)
REMARK    1  A    between atoms: C_1  and  C_2
REMARK    2  A    between atoms: C_7  and  N_8
REMARK    3  A    between atoms: C_9  and  C_11
REMARK    4  A    between atoms: C_11  and  N_53
REMARK    5  A    between atoms: C_12  and  N_53
REMARK    6  A    between atoms: C_13  and  C_14
REMARK    7  A    between atoms: C_13  and  N_53
REMARK    8  A    between atoms: N_16  and  C_17
REMARK    9  A    between atoms: N_16  and  C_24
REMARK   10  A    between atoms: C_17  and  C_18
REMARK   11  A    between atoms: C_24  and  C_25
REMARK                            x       y       z     vdW  Elec       q    Type
REMARK                         _______ _______ _______ _____ _____    ______ ____
ROOT
ATOM      1  C   UNL     1       3.681   1.743   0.187  0.00  0.00    +0.019 C 
ENDROOT
BRANCH   1   3
ATOM      2  C   UNL     1       2.439   0.276  -1.286  0.00  0.00    -0.095 C 
ATOM      3  N   UNL     1       2.406   1.023  -0.010  0.00  0.00    +0.389 N 
ATOM      4  H   UNL     1       2.276   0.358   0.762  0.00  0.00    -0.081 HD
BRANCH   3   5
ATOM      5  C   UNL     1       1.280   1.980  -0.015  0.00  0.00    +0.019 C 
BRANCH   5   7
ATOM      6  N   UNL     1      -1.191   1.867   0.018  0.00  0.00    -0.287 N 
ATOM      7  C   UNL     1      -0.014   1.209   0.005  0.00  0.00    +0.201 C 
ATOM      8  O   UNL     1       0.003  -0.004   0.005  0.00  0.00    -0.278 OA
ATOM      9  H   UNL     1      -1.205   2.833   0.099  0.00  0.00    +0.155 HD
BRANCH   6  16
ATOM     10  C   UNL     1      -3.546   3.040   1.100  0.00  0.00    +0.046 C 
ATOM     11  C   UNL     1      -3.564   1.691   0.428  0.00  0.00    -0.028 A 
ATOM     12  C   UNL     1      -4.749   0.989   0.320  0.00  0.00    +0.020 A 
ATOM     13  C   UNL     1      -4.765  -0.252  -0.291  0.00  0.00    +0.018 A 
ATOM     14  C   UNL     1      -3.597  -0.791  -0.800  0.00  0.00    +0.017 A 
ATOM     15  C   UNL     1      -2.411  -0.091  -0.699  0.00  0.00    +0.024 A 
ATOM     16  C   UNL     1      -2.391   1.155  -0.086  0.00  0.00    +0.036 A 
ATOM     17 BR   UNL     1      -6.387  -1.214  -0.431  0.00  0.00    -0.050 Br
ENDBRANCH   6  16
ENDBRANCH   5   7
ENDBRANCH   3   5
ENDBRANCH   1   3
BRANCH   1  18
ATOM     18  C   UNL     1       4.780   0.736   0.407  0.00  0.00    +0.200 C 
ATOM     19  O   UNL     1       4.528  -0.450   0.385  0.00  0.00    -0.278 OA
ATOM     20  N   UNL     1       6.042   1.153   0.630  0.00  0.00    -0.290 N 
BRANCH  20  21
ATOM     21  C   UNL     1       7.110   0.173   0.844  0.00  0.00    +0.143 C 
BRANCH  21  22
ATOM     22  C   UNL     1       7.732  -0.190  -0.480  0.00  0.00    -0.030 A 
ATOM     23  C   UNL     1       7.230  -1.250  -1.211  0.00  0.00    +0.005 A 
ATOM     24  C   UNL     1       7.797  -1.581  -2.428  0.00  0.00    +0.000 A 
ATOM     25  C   UNL     1       8.872  -0.857  -2.908  0.00  0.00    +0.000 A 
ATOM     26  C   UNL     1       9.378   0.199  -2.174  0.00  0.00    +0.000 A 
ATOM     27  C   UNL     1       8.807   0.533  -0.960  0.00  0.00    +0.005 A 
ENDBRANCH  21  22
ENDBRANCH  20  21
BRANCH  20  28
ATOM     28  C   UNL     1       6.346   2.586   0.657  0.00  0.00    +0.221 C 
BRANCH  28  29
ATOM     29  C   UNL     1       6.193   3.113   2.085  0.00  0.00    +0.405 C 
ATOM     30  F   UNL     1       7.076   2.432   2.930  0.00  0.00    -0.169 F 
ATOM     31  F   UNL     1       6.483   4.481   2.111  0.00  0.00    -0.169 F 
ATOM     32  F   UNL     1       4.879   2.906   2.520  0.00  0.00    -0.169 F 
ENDBRANCH  28  29
ENDBRANCH  20  28
ENDBRANCH   1  18
TORSDOF 9
