REMARK  Name = ZINC20785743
REMARK  4 active torsions:
REMARK  status: ('A' for Active; 'I' for Inactive)
REMARK    1  A    between atoms: C_7  and  N_18
REMARK    2  A    between atoms: C_9  and  O_17
REMARK    3  A    between atoms: N_21  and  C_24
REMARK    4  A    between atoms: C_29  and  O_30
REMARK                            x       y       z     vdW  Elec       q    Type
REMARK                         _______ _______ _______ _____ _____    ______ ____
ROOT
ATOM      1  C   UNL     1      -1.404   3.619   0.197  0.00  0.00    +0.000 A 
ATOM      2  C   UNL     1      -0.192   4.281   0.141  0.00  0.00    +0.000 A 
ATOM      3  C   UNL     1       0.983   3.562   0.046  0.00  0.00    +0.004 A 
ATOM      4  C   UNL     1       0.953   2.177   0.007  0.00  0.00    -0.034 A 
ATOM      5  C   UNL     1      -0.260   1.515   0.062  0.00  0.00    -0.024 A 
ATOM      6  C   UNL     1      -1.437   2.238   0.163  0.00  0.00    +0.005 A 
ATOM      7  C   UNL     1      -0.031   0.019   0.003  0.00  0.00    +0.117 C 
ATOM      8  C   UNL     1       1.464  -0.174   0.340  0.00  0.00    +0.146 C 
ATOM      9  C   UNL     1       2.074   1.171  -0.092  0.00  0.00    +0.020 C 
ATOM     10  C   UNL     1       2.580   1.077  -1.529  0.00  0.00    -0.005 C 
ATOM     11  C   UNL     1       3.735   0.074  -1.595  0.00  0.00    -0.082 C 
ATOM     12  N   UNL     1       4.809   0.504  -0.690  0.00  0.00    +0.379 N 
ATOM     13  C   UNL     1       4.351   0.535   0.705  0.00  0.00    -0.082 C 
ATOM     14  C   UNL     1       3.216   1.553   0.847  0.00  0.00    -0.005 C 
ATOM     15  H   UNL     1       5.654  -0.195  -0.765  0.00  0.00    -0.086 HD
ATOM     16  H   UNL     1       5.143   1.514  -0.970  0.00  0.00    -0.086 HD
ENDROOT
BRANCH   7  17
ATOM     17  N   UNL     1      -0.318  -0.487  -1.346  0.00  0.00    -0.290 NA
ATOM     18  C   UNL     1      -1.666  -0.094  -1.780  0.00  0.00    +0.104 C 
ATOM     19  C   UNL     1      -1.897  -0.571  -3.216  0.00  0.00    +0.120 C 
ATOM     20  N   UNL     1      -1.731  -2.030  -3.277  0.00  0.00    -0.325 N 
ATOM     21  C   UNL     1      -0.384  -2.423  -2.843  0.00  0.00    +0.120 C 
ATOM     22  C   UNL     1      -0.153  -1.946  -1.407  0.00  0.00    +0.104 C 
BRANCH  20  23
ATOM     23  C   UNL     1      -2.006  -2.512  -4.562  0.00  0.00    +0.072 A 
ATOM     24  C   UNL     1      -2.171  -1.627  -5.617  0.00  0.00    +0.027 A 
ATOM     25  C   UNL     1      -2.441  -2.106  -6.885  0.00  0.00    +0.002 A 
ATOM     26  C   UNL     1      -2.548  -3.466  -7.105  0.00  0.00    +0.004 A 
ATOM     27  C   UNL     1      -2.385  -4.355  -6.059  0.00  0.00    +0.047 A 
ATOM     28  C   UNL     1      -2.107  -3.883  -4.786  0.00  0.00    +0.138 A 
BRANCH  28  29
ATOM     29  O   UNL     1      -1.941  -4.757  -3.757  0.00  0.00    -0.505 OA
ATOM     30  H   UNL     1      -2.022  -5.839  -3.935  0.00  0.00    +0.292 HD
ENDBRANCH  28  29
ENDBRANCH  20  23
ENDBRANCH   7  17
BRANCH   8  31
ATOM     31  O   UNL     1       1.645  -0.388   1.741  0.00  0.00    -0.389 OA
ATOM     32  H   UNL     1       2.655  -0.544   2.148  0.00  0.00    +0.210 HD
ENDBRANCH   8  31
TORSDOF 4
