REMARK  Name = ZINC58626157
REMARK  10 active torsions:
REMARK  status: ('A' for Active; 'I' for Inactive)
REMARK    1  A    between atoms: C_1  and  C_2
REMARK    2  A    between atoms: C_2  and  N_3
REMARK    3  A    between atoms: N_3  and  C_4
REMARK    4  A    between atoms: N_3  and  C_23
REMARK    5  A    between atoms: C_4  and  C_5
REMARK    6  A    between atoms: N_7  and  C_8
REMARK    7  A    between atoms: C_9  and  C_21
REMARK    8  A    between atoms: C_10  and  C_20
REMARK    9  A    between atoms: C_11  and  C_19
REMARK   10  A    between atoms: N_12  and  C_13
REMARK                            x       y       z     vdW  Elec       q    Type
REMARK                         _______ _______ _______ _____ _____    ______ ____
ROOT
ATOM      1  C   UNL     1       1.944  -5.662   1.272  0.00  0.00    +0.202 C 
ATOM      2  O   UNL     1       2.491  -6.672   0.886  0.00  0.00    -0.278 OA
ATOM      3  N   UNL     1       1.857  -4.589   0.460  0.00  0.00    -0.272 N 
ATOM      4  H   UNL     1       1.492  -3.756   0.795  0.00  0.00    +0.156 HD
ENDROOT
BRANCH   3   5
ATOM      5  C   UNL     1       2.292  -4.678  -0.854  0.00  0.00    +0.123 A 
ATOM      6  C   UNL     1       2.281  -5.820  -1.642  0.00  0.00    +0.095 A 
ATOM      7  C   UNL     1       2.832  -5.419  -2.943  0.00  0.00    -0.011 A 
ATOM      8  C   UNL     1       3.125  -4.112  -2.850  0.00  0.00    +0.022 A 
ATOM      9  N   UNL     1       2.797  -3.662  -1.599  0.00  0.00    -0.329 N 
ATOM     10  C   UNL     1       3.717  -3.271  -3.952  0.00  0.00    +0.064 C 
ATOM     11  C   UNL     1       3.031  -6.303  -4.147  0.00  0.00    +0.047 C 
BRANCH   9  12
ATOM     12  C   UNL     1       2.970  -2.284  -1.131  0.00  0.00    +0.089 C 
ATOM     13  C   UNL     1       3.815  -2.280   0.144  0.00  0.00    +0.025 C 
ATOM     14  C   UNL     1       3.995  -0.842   0.632  0.00  0.00    +0.002 C 
ATOM     15  C   UNL     1       2.625  -0.228   0.927  0.00  0.00    +0.000 C 
ATOM     16  C   UNL     1       1.780  -0.231  -0.349  0.00  0.00    +0.002 C 
ATOM     17  C   UNL     1       1.600  -1.670  -0.837  0.00  0.00    +0.025 C 
ENDBRANCH   9  12
BRANCH   6  18
ATOM     18  C   UNL     1       1.826  -7.125  -1.264  0.00  0.00    +0.103 C 
ATOM     19  N   UNL     1       1.466  -8.159  -0.964  0.00  0.00    -0.191 NA
ENDBRANCH   6  18
ENDBRANCH   3   5
BRANCH   1  20
ATOM     20  C   UNL     1       1.359  -5.604   2.660  0.00  0.00    +0.019 C 
BRANCH  20  21
ATOM     21  N   UNL     1       1.704  -6.833   3.388  0.00  0.00    +0.388 N 
ATOM     22  H   UNL     1       1.435  -7.636   2.839  0.00  0.00    -0.081 HD
BRANCH  21  23
ATOM     23  C   UNL     1       0.993  -6.857   4.673  0.00  0.00    -0.045 C 
ATOM     24  C   UNL     1      -0.523  -6.827   4.418  0.00  0.00    +0.009 C 
ATOM     25  C   UNL     1      -1.246  -7.168   5.753  0.00  0.00    +0.164 C 
ATOM     26  S   UNL     1      -0.163  -8.516   6.388  0.00  0.00    -0.033 S 
ATOM     27  O   UNL     1      -0.679  -9.767   5.953  0.00  0.00    -0.174 OA
ATOM     28  O   UNL     1       0.079  -8.303   7.771  0.00  0.00    -0.174 OA
ATOM     29  C   UNL     1       1.371  -8.144   5.446  0.00  0.00    +0.151 C 
ENDBRANCH  21  23
BRANCH  21  31
ATOM     30  C   UNL     1       3.550  -5.691   4.520  0.00  0.00    -0.017 C 
ATOM     31  C   UNL     1       3.153  -6.869   3.629  0.00  0.00    -0.081 C 
ENDBRANCH  21  31
ENDBRANCH  20  21
ENDBRANCH   1  20
TORSDOF 7
