REMARK  Name = ZINC64097934
REMARK  6 active torsions:
REMARK  status: ('A' for Active; 'I' for Inactive)
REMARK    1  A    between atoms: C_1  and  O_2
REMARK    2  A    between atoms: O_2  and  C_3
REMARK    3  A    between atoms: C_10  and  C_18
REMARK    4  A    between atoms: C_20  and  O_38
REMARK    5  A    between atoms: C_22  and  O_37
REMARK    6  A    between atoms: N_24  and  C_27
REMARK                            x       y       z     vdW  Elec       q    Type
REMARK                         _______ _______ _______ _____ _____    ______ ____
ROOT
ATOM      1  C   UNL     1       4.497  -4.085   2.798  0.00  0.00    +0.179 C 
ATOM      2  C   UNL     1       3.928  -3.978   1.414  0.00  0.00    +0.200 C 
ATOM      3  N   UNL     1       4.274  -4.752   0.460  0.00  0.00    -0.204 NA
ATOM      4  C   UNL     1       5.248  -5.824   0.590  0.00  0.00    +0.338 C 
ATOM      5  N   UNL     1       6.118  -5.637   1.742  0.00  0.00    -0.225 N 
ATOM      6  C   UNL     1       5.789  -4.852   2.771  0.00  0.00    +0.237 C 
ATOM      7  O   UNL     1       6.555  -4.757   3.706  0.00  0.00    -0.274 OA
ENDROOT
BRANCH   1  14
ATOM      8  C   UNL     1       6.696  -1.454   7.080  0.00  0.00    +0.121 A 
ATOM      9  C   UNL     1       7.607  -2.520   6.973  0.00  0.00    +0.047 A 
ATOM     10  C   UNL     1       7.268  -3.712   6.439  0.00  0.00    +0.029 A 
ATOM     11  C   UNL     1       5.907  -3.931   5.944  0.00  0.00    +0.043 A 
ATOM     12  N   UNL     1       5.338  -4.966   5.372  0.00  0.00    -0.376 N 
ATOM     13  C   UNL     1       3.925  -4.662   5.166  0.00  0.00    +0.124 C 
ATOM     14  C   UNL     1       3.498  -4.809   3.703  0.00  0.00    +0.101 C 
ATOM     15  N   UNL     1       2.163  -4.209   3.548  0.00  0.00    -0.310 NA
ATOM     16  C   UNL     1       2.157  -2.756   3.740  0.00  0.00    +0.085 C 
ATOM     17  C   UNL     1       2.522  -2.414   5.196  0.00  0.00    +0.048 C 
ATOM     18  C   UNL     1       3.773  -3.194   5.532  0.00  0.00    -0.036 C 
ATOM     19  C   UNL     1       4.945  -2.804   6.047  0.00  0.00    +0.003 A 
ATOM     20  C   UNL     1       5.415  -1.553   6.654  0.00  0.00    +0.055 A 
ATOM     21  H   UNL     1       1.755  -4.459   2.659  0.00  0.00    +0.122 HD
ATOM     22  H   UNL     1       5.781  -5.793   5.126  0.00  0.00    +0.160 HD
BRANCH   8  24
ATOM     23  C   UNL     1       8.475  -0.226   8.072  0.00  0.00    +0.277 C 
ATOM     24  O   UNL     1       7.115  -0.287   7.636  0.00  0.00    -0.495 OA
ENDBRANCH   8  24
ENDBRANCH   1  14
BRANCH   5  25
ATOM     25  C   UNL     1       7.343  -6.306   1.772  0.00  0.00    +0.048 A 
ATOM     26  C   UNL     1       8.473  -5.713   1.251  0.00  0.00    +0.024 A 
ATOM     27  C   UNL     1       9.698  -6.372   1.276  0.00  0.00    +0.002 A 
ATOM     28  C   UNL     1       9.816  -7.617   1.813  0.00  0.00    +0.008 A 
ATOM     29  C   UNL     1       8.689  -8.257   2.355  0.00  0.00    -0.016 A 
ATOM     30  C   UNL     1       7.437  -7.594   2.341  0.00  0.00    +0.004 A 
ATOM     31  C   UNL     1       6.312  -8.233   2.887  0.00  0.00    +0.010 A 
ATOM     32  C   UNL     1       6.440  -9.476   3.428  0.00  0.00    +0.001 A 
ATOM     33  C   UNL     1       7.672 -10.126   3.448  0.00  0.00    +0.001 A 
ATOM     34  C   UNL     1       8.781  -9.543   2.916  0.00  0.00    +0.008 A 
ENDBRANCH   5  25
BRANCH   4  35
ATOM     35  O   UNL     1       4.556  -7.066   0.729  0.00  0.00    -0.356 OA
ATOM     36  H   UNL     1       3.983  -7.283  -0.019  0.00  0.00    +0.214 HD
ENDBRANCH   4  35
BRANCH   2  37
ATOM     37  O   UNL     1       3.009  -3.022   1.167  0.00  0.00    -0.495 OA
ATOM     38  H   UNL     1       2.686  -3.012   0.256  0.00  0.00    +0.293 HD
ENDBRANCH   2  37
TORSDOF 5
