REMARK  Name = ZINC35893765
REMARK  4 active torsions:
REMARK  status: ('A' for Active; 'I' for Inactive)
REMARK    1  A    between atoms: C_8  and  C_23
REMARK    2  A    between atoms: N_25  and  C_26
REMARK    3  A    between atoms: C_26  and  C_27
REMARK    4  A    between atoms: C_27  and  C_28
REMARK                            x       y       z     vdW  Elec       q    Type
REMARK                         _______ _______ _______ _____ _____    ______ ____
ROOT
ATOM      1  C   UNL     1      -0.017   1.378   0.010  0.00  0.00    +0.000 A 
ATOM      2  C   UNL     1       1.171   2.087   0.002  0.00  0.00    +0.002 A 
ATOM      3  C   UNL     1       2.377   1.417  -0.008  0.00  0.00    +0.023 A 
ATOM      4  C   UNL     1       2.398   0.025  -0.013  0.00  0.00    +0.033 A 
ATOM      5  C   UNL     1       1.209  -0.679  -0.015  0.00  0.00    -0.026 A 
ATOM      6  C   UNL     1       0.002  -0.004   0.002  0.00  0.00    +0.005 A 
ATOM      7  C   UNL     1       1.216  -2.186  -0.051  0.00  0.00    +0.051 C 
ATOM      8  C   UNL     1       2.480  -2.654  -0.771  0.00  0.00    +0.101 C 
ATOM      9  C   UNL     1       3.720  -2.076  -0.080  0.00  0.00    +0.103 C 
ATOM     10  N   UNL     1       3.644  -0.627  -0.007  0.00  0.00    -0.323 N 
ATOM     11  C   UNL     1       4.824   0.223   0.131  0.00  0.00    +0.124 C 
ATOM     12  C   UNL     1       6.011  -0.272  -0.671  0.00  0.00    +0.127 C 
ATOM     13  N   UNL     1       6.106  -1.722  -0.638  0.00  0.00    -0.296 N 
ATOM     14  C   UNL     1       4.953  -2.583  -0.809  0.00  0.00    +0.131 C 
ATOM     15  C   UNL     1       7.346  -2.303  -0.436  0.00  0.00    +0.218 A 
ATOM     16  N   UNL     1       7.445  -3.624  -0.410  0.00  0.00    -0.223 NA
ATOM     17  C   UNL     1       8.615  -4.211  -0.219  0.00  0.00    +0.116 A 
ATOM     18  C   UNL     1       9.745  -3.426  -0.046  0.00  0.00    +0.039 A 
ATOM     19  C   UNL     1       9.606  -2.048  -0.079  0.00  0.00    +0.116 A 
ATOM     20  N   UNL     1       8.407  -1.525  -0.279  0.00  0.00    -0.223 NA
ENDROOT
BRANCH   8  21
ATOM     21  C   UNL     1       2.443  -2.183  -2.203  0.00  0.00    +0.218 C 
ATOM     22  O   UNL     1       3.315  -1.453  -2.624  0.00  0.00    -0.275 OA
ATOM     23  N   UNL     1       1.440  -2.573  -3.014  0.00  0.00    -0.315 N 
ATOM     24  H   UNL     1       0.742  -3.157  -2.678  0.00  0.00    +0.149 HD
BRANCH  23  25
ATOM     25  C   UNL     1       1.404  -2.115  -4.406  0.00  0.00    +0.109 C 
BRANCH  25  26
ATOM     26  C   UNL     1       0.173  -2.699  -5.102  0.00  0.00    +0.061 C 
BRANCH  26  27
ATOM     27  C   UNL     1       0.135  -2.228  -6.533  0.00  0.00    -0.009 A 
ATOM     28  C   UNL     1       0.672  -2.805  -7.636  0.00  0.00    +0.011 A 
ATOM     29  C   UNL     1       0.510  -2.187  -8.862  0.00  0.00    +0.008 A 
ATOM     30  C   UNL     1      -0.181  -1.023  -8.925  0.00  0.00    +0.045 A 
ATOM     31  S   UNL     1      -0.635  -0.770  -7.218  0.00  0.00    -0.102 S 
ENDBRANCH  26  27
ENDBRANCH  25  26
ENDBRANCH  23  25
ENDBRANCH   8  21
TORSDOF 4
