REMARK  Name = ZINC39732232
REMARK  12 active torsions:
REMARK  status: ('A' for Active; 'I' for Inactive)
REMARK    1  A    between atoms: C_1  and  C_2
REMARK    2  A    between atoms: C_2  and  C_3
REMARK    3  A    between atoms: C_4  and  C_37
REMARK    4  A    between atoms: C_12  and  S_13
REMARK    5  A    between atoms: S_13  and  C_14
REMARK    6  A    between atoms: C_14  and  C_16
REMARK    7  A    between atoms: C_14  and  C_17
REMARK    8  A    between atoms: N_19  and  C_20
REMARK    9  A    between atoms: C_22  and  C_32
REMARK   10  A    between atoms: C_32  and  O_34
REMARK   11  A    between atoms: O_34  and  C_35
REMARK   12  A    between atoms: C_35  and  C_36
REMARK                            x       y       z     vdW  Elec       q    Type
REMARK                         _______ _______ _______ _____ _____    ______ ____
ROOT
ATOM      1  C   UNL     1       7.869  -2.481  -1.679  0.00  0.00    +0.227 C 
ATOM      2  O   UNL     1       7.946  -1.931  -0.600  0.00  0.00    -0.275 OA
ATOM      3  N   UNL     1       8.869  -3.278  -2.102  0.00  0.00    -0.301 N 
ATOM      4  H   UNL     1       8.807  -3.717  -2.965  0.00  0.00    +0.150 HD
ENDROOT
BRANCH   3   5
ATOM      5  C   UNL     1      10.051  -3.481  -1.260  0.00  0.00    +0.153 C 
ATOM      6  C   UNL     1      10.389  -4.984  -1.108  0.00  0.00    +0.155 C 
ATOM      7  C   UNL     1      10.853  -5.313   0.292  0.00  0.00    -0.044 C 
ATOM      8  C   UNL     1      10.584  -4.446   1.239  0.00  0.00    -0.013 C 
ATOM      9  S   UNL     1       9.697  -3.092   0.507  0.00  0.00    -0.106 S 
ATOM     10  C   UNL     1      10.989  -4.555   2.696  0.00  0.00    +0.042 C 
ATOM     11  C   UNL     1      10.189  -5.710   3.314  0.00  0.00    +0.005 C 
ATOM     12  C   UNL     1      10.814  -7.038   2.952  0.00  0.00    +0.001 C 
ATOM     13  C   UNL     1      10.674  -7.459   1.509  0.00  0.00    +0.004 C 
ATOM     14  C   UNL     1      11.570  -6.637   0.585  0.00  0.00    +0.032 C 
BRANCH   6  15
ATOM     15  C   UNL     1       9.160  -5.799  -1.421  0.00  0.00    +0.317 C 
ATOM     16  O   UNL     1       8.677  -6.513  -0.574  0.00  0.00    -0.250 OA
BRANCH  15  17
ATOM     17  O   UNL     1       8.603  -5.732  -2.640  0.00  0.00    -0.464 OA
BRANCH  17  18
ATOM     18  C   UNL     1       7.440  -6.531  -2.866  0.00  0.00    +0.229 C 
ATOM     19  C   UNL     1       6.951  -6.325  -4.301  0.00  0.00    +0.048 C 
ENDBRANCH  17  18
ENDBRANCH  15  17
ENDBRANCH   6  15
ENDBRANCH   3   5
BRANCH   1  20
ATOM     20  C   UNL     1       6.654  -2.272  -2.545  0.00  0.00    +0.137 C 
ATOM     21  C   UNL     1       6.970  -1.236  -3.626  0.00  0.00    +0.029 C 
BRANCH  20  22
ATOM     22  S   UNL     1       5.277  -1.678  -1.523  0.00  0.00    -0.073 S 
BRANCH  22  32
ATOM     23  C   UNL     1       0.707  -0.490  -1.238  0.00  0.00    +0.038 A 
ATOM     24  C   UNL     1       2.022  -0.801  -1.197  0.00  0.00    +0.034 A 
ATOM     25  N   UNL     1       2.636  -1.239  -2.337  0.00  0.00    -0.259 N 
ATOM     26  C   UNL     1       1.920  -1.361  -3.508  0.00  0.00    +0.260 A 
ATOM     27  N   UNL     1       0.616  -1.050  -3.537  0.00  0.00    -0.171 NA
ATOM     28  C   UNL     1      -0.000  -0.630  -2.451  0.00  0.00    +0.278 A 
ATOM     29  O   UNL     1      -1.319  -0.327  -2.500  0.00  0.00    -0.265 OA
ATOM     30  N   UNL     1       2.763  -1.798  -4.425  0.00  0.00    -0.107 NA
ATOM     31  N   UNL     1       3.930  -1.952  -3.907  0.00  0.00    -0.120 NA
ATOM     32  C   UNL     1       3.912  -1.626  -2.636  0.00  0.00    +0.198 A 
ATOM     33  C   UNL     1       2.800  -0.666   0.087  0.00  0.00    +0.064 C 
BRANCH  23  35
ATOM     34  C   UNL     1      -0.019   1.526   0.010  0.00  0.00    +0.009 C 
ATOM     35  C   UNL     1       0.002  -0.004   0.002  0.00  0.00    +0.039 C 
ENDBRANCH  23  35
ENDBRANCH  22  32
ENDBRANCH  20  22
ENDBRANCH   1  20
TORSDOF 8
