REMARK  Name = ZINC02290118
REMARK  6 active torsions:
REMARK  status: ('A' for Active; 'I' for Inactive)
REMARK    1  A    between atoms: C_1  and  C_2
REMARK    2  A    between atoms: C_2  and  C_3
REMARK    3  A    between atoms: C_8  and  N_9
REMARK    4  A    between atoms: C_15  and  C_24
REMARK    5  A    between atoms: C_15  and  C_25
REMARK    6  A    between atoms: C_21  and  C_23
REMARK                            x       y       z     vdW  Elec       q    Type
REMARK                         _______ _______ _______ _____ _____    ______ ____
ROOT
ATOM      1  N   UNL     1       1.177   3.450   0.009  0.00  0.00    -0.239 NA
ATOM      2  C   UNL     1       0.025   4.107  -0.077  0.00  0.00    +0.117 A 
ATOM      3  C   UNL     1      -0.118   5.520  -0.182  0.00  0.00    +0.029 A 
ATOM      4  C   UNL     1      -1.298   6.209  -0.299  0.00  0.00    +0.030 A 
ATOM      5  S   UNL     1      -2.670   5.149  -0.264  0.00  0.00    -0.052 S 
ATOM      6  S   UNL     1      -1.599   3.361  -0.089  0.00  0.00    -0.032 S 
ATOM      7  C   UNL     1      -1.395   7.711  -0.448  0.00  0.00    +0.059 C 
ATOM      8  N   UNL     1      -0.213   8.326   0.171  0.00  0.00    -0.334 N 
ATOM      9  C   UNL     1       1.040   7.737  -0.017  0.00  0.00    +0.036 A 
ATOM     10  C   UNL     1       1.145   6.353  -0.174  0.00  0.00    +0.006 A 
ATOM     11  C   UNL     1       2.383   5.744  -0.294  0.00  0.00    +0.011 A 
ATOM     12  C   UNL     1       3.525   6.527  -0.294  0.00  0.00    +0.004 A 
ATOM     13  C   UNL     1       3.425   7.901  -0.165  0.00  0.00    -0.049 A 
ATOM     14  C   UNL     1       2.191   8.511  -0.025  0.00  0.00    +0.027 A 
ATOM     15  C   UNL     1       4.675   8.743  -0.178  0.00  0.00    +0.044 C 
ATOM     16  C   UNL     1      -2.660   8.215   0.250  0.00  0.00    +0.037 C 
ATOM     17  C   UNL     1      -1.446   8.079  -1.932  0.00  0.00    +0.037 C 
ATOM     18  H   UNL     1      -0.302   9.131   0.704  0.00  0.00    +0.147 HD
ENDROOT
BRANCH   1  24
ATOM     19  C   UNL     1       1.385   1.374  -1.165  0.00  0.00    -0.022 A 
ATOM     20  C   UNL     1       1.391  -0.005  -1.144  0.00  0.00    +0.006 A 
ATOM     21  C   UNL     1       1.202  -0.683   0.048  0.00  0.00    +0.000 A 
ATOM     22  C   UNL     1       1.006   0.015   1.227  0.00  0.00    +0.002 A 
ATOM     23  C   UNL     1       0.996   1.393   1.222  0.00  0.00    +0.028 A 
ATOM     24  C   UNL     1       1.186   2.087   0.022  0.00  0.00    +0.068 A 
BRANCH  19  26
ATOM     25  C   UNL     1       3.069   2.479  -2.611  0.00  0.00    +0.009 C 
ATOM     26  C   UNL     1       1.591   2.110  -2.463  0.00  0.00    +0.034 C 
ENDBRANCH  19  26
ENDBRANCH   1  24
TORSDOF 2
