REMARK  Name = ZINC20405650
REMARK  10 active torsions:
REMARK  status: ('A' for Active; 'I' for Inactive)
REMARK    1  A    between atoms: C_1  and  C_2
REMARK    2  A    between atoms: C_2  and  O_3
REMARK    3  A    between atoms: O_3  and  C_4
REMARK    4  A    between atoms: C_4  and  C_6
REMARK    5  A    between atoms: C_7  and  C_33
REMARK    6  A    between atoms: C_10  and  C_20
REMARK    7  A    between atoms: C_11  and  C_13
REMARK    8  A    between atoms: N_21  and  O_22
REMARK    9  A    between atoms: O_22  and  C_23
REMARK   10  A    between atoms: C_23  and  C_24
REMARK                            x       y       z     vdW  Elec       q    Type
REMARK                         _______ _______ _______ _____ _____    ______ ____
ROOT
ATOM      1  C   UNL     1       2.502   4.090   0.389  0.00  0.00    +0.065 C 
ATOM      2  C   UNL     1       3.617   3.338   0.359  0.00  0.00    +0.017 C 
ATOM      3  N   UNL     1       3.566   2.024  -0.013  0.00  0.00    -0.308 N 
ATOM      4  C   UNL     1       2.366   1.351  -0.013  0.00  0.00    +0.104 C 
ATOM      5  C   UNL     1       1.203   2.021   0.001  0.00  0.00    +0.018 C 
ATOM      6  C   UNL     1       1.163   3.522   0.004  0.00  0.00    +0.092 C 
ATOM      7 CL   UNL     1       2.356  -0.385  -0.033  0.00  0.00    -0.066 Cl
ATOM      8  C   UNL     1       4.939   3.953   0.740  0.00  0.00    +0.061 C 
ATOM      9  H   UNL     1       4.486   1.502  -0.314  0.00  0.00    +0.153 HD
ENDROOT
BRANCH   6  10
ATOM     10  C   UNL     1       0.791   4.011  -1.373  0.00  0.00    -0.035 A 
ATOM     11  C   UNL     1       1.591   3.700  -2.456  0.00  0.00    +0.006 A 
ATOM     12  C   UNL     1       1.247   4.143  -3.719  0.00  0.00    +0.020 A 
ATOM     13  C   UNL     1       0.107   4.907  -3.898  0.00  0.00    +0.041 A 
ATOM     14  C   UNL     1      -0.690   5.222  -2.812  0.00  0.00    +0.020 A 
ATOM     15  C   UNL     1      -0.348   4.774  -1.550  0.00  0.00    +0.006 A 
ATOM     16 CL   UNL     1      -0.322   5.470  -5.483  0.00  0.00    -0.084 Cl
ENDBRANCH   6  10
BRANCH   1  17
ATOM     17  C   UNL     1       2.591   5.442   0.787  0.00  0.00    +0.338 C 
ATOM     18  O   UNL     1       3.668   5.916   1.098  0.00  0.00    -0.245 OA
BRANCH  17  19
ATOM     19  O   UNL     1       1.481   6.210   0.822  0.00  0.00    -0.462 OA
BRANCH  19  21
ATOM     20  C   UNL     1       0.288   8.275   1.212  0.00  0.00    +0.048 C 
ATOM     21  C   UNL     1       1.645   7.568   1.234  0.00  0.00    +0.229 C 
ENDBRANCH  19  21
ENDBRANCH  17  19
ENDBRANCH   1  17
BRANCH   5  22
ATOM     22  C   UNL     1      -0.015   1.295   0.009  0.00  0.00    +0.160 C 
ATOM     23  N   UNL     1       0.002  -0.004   0.002  0.00  0.00    -0.092 NA
BRANCH  23  24
ATOM     24  O   UNL     1      -1.214  -0.729   0.010  0.00  0.00    -0.389 OA
BRANCH  24  25
ATOM     25  C   UNL     1      -1.046  -2.148   0.001  0.00  0.00    +0.299 C 
BRANCH  25  26
ATOM     26  C   UNL     1      -2.397  -2.814   0.010  0.00  0.00    +0.011 A 
ATOM     27  C   UNL     1      -3.547  -2.046   0.025  0.00  0.00    +0.010 A 
ATOM     28  C   UNL     1      -4.786  -2.657   0.034  0.00  0.00    +0.020 A 
ATOM     29  C   UNL     1      -4.878  -4.037   0.027  0.00  0.00    +0.042 A 
ATOM     30  C   UNL     1      -3.729  -4.806   0.012  0.00  0.00    +0.040 A 
ATOM     31  C   UNL     1      -2.488  -4.195  -0.002  0.00  0.00    +0.049 A 
ATOM     32 CL   UNL     1      -1.044  -5.159  -0.029  0.00  0.00    -0.083 Cl
ATOM     33 CL   UNL     1      -6.436  -4.804   0.038  0.00  0.00    -0.083 Cl
ENDBRANCH  25  26
ENDBRANCH  24  25
ENDBRANCH  23  24
ENDBRANCH   5  22
TORSDOF 8
