REMARK  Name = ZINC40100915
REMARK  15 active torsions:
REMARK  status: ('A' for Active; 'I' for Inactive)
REMARK    1  A    between atoms: C_1  and  C_2
REMARK    2  A    between atoms: C_2  and  O_3
REMARK    3  A    between atoms: O_3  and  C_4
REMARK    4  A    between atoms: C_8  and  C_10
REMARK    5  A    between atoms: C_10  and  C_12
REMARK    6  A    between atoms: N_16  and  C_31
REMARK    7  A    between atoms: C_17  and  C_19
REMARK    8  A    between atoms: C_22  and  O_28
REMARK    9  A    between atoms: C_23  and  O_25
REMARK   10  A    between atoms: O_25  and  C_26
REMARK   11  A    between atoms: C_26  and  C_27
REMARK   12  A    between atoms: O_28  and  C_29
REMARK   13  A    between atoms: C_29  and  C_30
REMARK   14  A    between atoms: C_31  and  C_32
REMARK   15  A    between atoms: C_32  and  O_33
REMARK                            x       y       z     vdW  Elec       q    Type
REMARK                         _______ _______ _______ _____ _____    ______ ____
ROOT
ATOM      1  C   UNL     1      -4.207  -6.189  -0.315  0.00  0.00    +0.076 C 
ATOM      2  C   UNL     1      -5.248  -6.996  -0.626  0.00  0.00    +0.249 C 
ATOM      3  C   UNL     1      -4.872  -8.400  -0.357  0.00  0.00    +0.288 C 
ATOM      4  O   UNL     1      -5.592  -9.362  -0.535  0.00  0.00    -0.266 OA
ATOM      5  N   UNL     1      -3.613  -8.455   0.116  0.00  0.00    -0.281 N 
ATOM      6  C   UNL     1      -3.093  -7.084   0.175  0.00  0.00    +0.145 C 
ATOM      7  O   UNL     1      -6.443  -6.584  -1.107  0.00  0.00    -0.282 OA
ENDROOT
BRANCH   6   8
ATOM      8  C   UNL     1      -1.886  -6.945  -0.717  0.00  0.00    -0.019 A 
ATOM      9  C   UNL     1      -1.995  -7.208  -2.070  0.00  0.00    +0.009 A 
ATOM     10  C   UNL     1      -0.891  -7.082  -2.893  0.00  0.00    +0.050 A 
ATOM     11  C   UNL     1       0.327  -6.691  -2.362  0.00  0.00    +0.162 A 
ATOM     12  C   UNL     1       0.437  -6.426  -1.000  0.00  0.00    +0.162 A 
ATOM     13  C   UNL     1      -0.675  -6.550  -0.182  0.00  0.00    +0.055 A 
BRANCH  12  14
ATOM     14  O   UNL     1       1.631  -6.042  -0.475  0.00  0.00    -0.489 OA
BRANCH  14  15
ATOM     15  C   UNL     1       1.694  -5.885   0.944  0.00  0.00    +0.226 C 
ATOM     16  C   UNL     1       3.081  -5.373   1.339  0.00  0.00    +0.048 C 
ENDBRANCH  14  15
ENDBRANCH  12  14
BRANCH  11  17
ATOM     17  O   UNL     1       1.414  -6.567  -3.170  0.00  0.00    -0.489 OA
BRANCH  17  18
ATOM     18  C   UNL     1       1.228  -6.856  -4.557  0.00  0.00    +0.226 C 
ATOM     19  C   UNL     1       2.551  -6.663  -5.300  0.00  0.00    +0.048 C 
ENDBRANCH  17  18
ENDBRANCH  11  17
ENDBRANCH   6   8
BRANCH   1  20
ATOM     20  C   UNL     1      -4.166  -4.729  -0.435  0.00  0.00    +0.195 C 
ATOM     21  O   UNL     1      -4.229  -4.207  -1.533  0.00  0.00    -0.287 OA
BRANCH  20  26
ATOM     22  C   UNL     1      -3.807  -1.726   1.799  0.00  0.00    +0.121 A 
ATOM     23  C   UNL     1      -3.830  -2.322   3.054  0.00  0.00    +0.045 A 
ATOM     24  C   UNL     1      -3.962  -3.694   3.171  0.00  0.00    +0.004 A 
ATOM     25  C   UNL     1      -4.071  -4.480   2.042  0.00  0.00    +0.012 A 
ATOM     26  C   UNL     1      -4.049  -3.890   0.777  0.00  0.00    +0.026 A 
ATOM     27  C   UNL     1      -3.922  -2.504   0.660  0.00  0.00    +0.057 A 
BRANCH  22  28
ATOM     28  O   UNL     1      -3.678  -0.378   1.690  0.00  0.00    -0.492 OA
BRANCH  28  30
ATOM     29  C   UNL     1      -3.427   1.853   2.585  0.00  0.00    +0.048 C 
ATOM     30  C   UNL     1      -3.563   0.363   2.906  0.00  0.00    +0.225 C 
ENDBRANCH  28  30
ENDBRANCH  22  28
ENDBRANCH  20  26
ENDBRANCH   1  20
BRANCH   5  31
ATOM     31  C   UNL     1      -2.888  -9.669   0.498  0.00  0.00    +0.137 C 
BRANCH  31  32
ATOM     32  C   UNL     1      -2.292 -10.322  -0.751  0.00  0.00    +0.175 C 
BRANCH  32  33
ATOM     33  O   UNL     1      -1.233  -9.506  -1.256  0.00  0.00    -0.393 OA
ATOM     34  H   UNL     1      -0.808  -9.859  -2.049  0.00  0.00    +0.209 HD
ENDBRANCH  32  33
ENDBRANCH  31  32
ENDBRANCH   5  31
TORSDOF 12
