REMARK  Name = ZINC02644993
REMARK  9 active torsions:
REMARK  status: ('A' for Active; 'I' for Inactive)
REMARK    1  A    between atoms: C_1  and  C_2
REMARK    2  A    between atoms: C_4  and  C_20
REMARK    3  A    between atoms: C_5  and  C_19
REMARK    4  A    between atoms: N_6  and  C_7
REMARK    5  A    between atoms: C_7  and  C_8
REMARK    6  A    between atoms: C_20  and  C_22
REMARK    7  A    between atoms: C_22  and  O_23
REMARK    8  A    between atoms: O_23  and  C_24
REMARK    9  A    between atoms: C_24  and  C_26
REMARK                            x       y       z     vdW  Elec       q    Type
REMARK                         _______ _______ _______ _____ _____    ______ ____
ROOT
ATOM      1  C   UNL     1      -0.583  -3.757   3.067  0.00  0.00    +0.202 C 
ATOM      2  O   UNL     1      -0.369  -4.413   2.069  0.00  0.00    -0.288 OA
ENDROOT
BRANCH   1   6
ATOM      3  C   UNL     1      -1.585  -4.615   7.989  0.00  0.00    +0.063 C 
ATOM      4  C   UNL     1      -1.281  -4.789   6.523  0.00  0.00    +0.017 A 
ATOM      5  C   UNL     1      -1.105  -3.791   5.641  0.00  0.00    +0.034 A 
ATOM      6  C   UNL     1      -0.837  -4.428   4.344  0.00  0.00    +0.042 A 
ATOM      7  C   UNL     1      -0.868  -5.790   4.578  0.00  0.00    +0.027 A 
ATOM      8  N   UNL     1      -1.134  -5.985   5.881  0.00  0.00    -0.344 N 
ATOM      9  C   UNL     1      -0.643  -6.868   3.550  0.00  0.00    +0.064 C 
BRANCH   8  10
ATOM     10  C   UNL     1      -1.251  -7.297   6.523  0.00  0.00    +0.169 C 
BRANCH  10  11
ATOM     11  C   UNL     1       0.122  -7.737   7.037  0.00  0.00    +0.230 C 
ATOM     12  C   UNL     1      -0.010  -9.066   7.793  0.00  0.00    +0.275 C 
ATOM     13  O   UNL     1       1.290  -9.454   8.248  0.00  0.00    -0.485 OA
ATOM     14  C   UNL     1       2.305  -9.367   7.345  0.00  0.00    +0.162 A 
ATOM     15  C   UNL     1       3.490 -10.047   7.585  0.00  0.00    +0.049 A 
ATOM     16  C   UNL     1       4.530  -9.966   6.678  0.00  0.00    +0.004 A 
ATOM     17  C   UNL     1       4.393  -9.208   5.531  0.00  0.00    +0.004 A 
ATOM     18  C   UNL     1       3.215  -8.529   5.285  0.00  0.00    +0.049 A 
ATOM     19  C   UNL     1       2.166  -8.607   6.190  0.00  0.00    +0.163 A 
ATOM     20  O   UNL     1       1.010  -7.936   5.932  0.00  0.00    -0.480 OA
ENDBRANCH  10  11
ENDBRANCH   8  10
ENDBRANCH   1   6
BRANCH   1  21
ATOM     21  C   UNL     1      -0.586  -2.252   2.993  0.00  0.00    +0.311 C 
BRANCH  21  22
ATOM     22  O   UNL     1      -0.310  -1.834   1.630  0.00  0.00    -0.456 OA
BRANCH  22  23
ATOM     23  C   UNL     1      -0.278  -0.513   1.393  0.00  0.00    +0.320 C 
ATOM     24  O   UNL     1      -0.473   0.268   2.294  0.00  0.00    -0.250 OA
BRANCH  23  25
ATOM     25  C   UNL     1       0.002  -0.004   0.002  0.00  0.00    +0.165 C 
ATOM     26  C   UNL     1      -0.018   1.500   0.010  0.00  0.00    +0.013 A 
ATOM     27  C   UNL     1      -1.233   2.163   0.020  0.00  0.00    +0.008 A 
ATOM     28  C   UNL     1      -1.272   3.544   0.032  0.00  0.00    +0.001 A 
ATOM     29  C   UNL     1      -0.095   4.270   0.024  0.00  0.00    +0.004 A 
ATOM     30  C   UNL     1       1.119   3.614   0.009  0.00  0.00    +0.046 A 
ATOM     31  C   UNL     1       1.163   2.225   0.003  0.00  0.00    +0.133 A 
ATOM     32  O   UNL     1       2.364   1.600  -0.011  0.00  0.00    -0.455 OA
ATOM     33  C   UNL     1       2.456   0.316  -0.434  0.00  0.00    +0.133 A 
ATOM     34  C   UNL     1       1.344  -0.511  -0.451  0.00  0.00    +0.013 A 
ATOM     35  C   UNL     1       1.464  -1.817  -0.889  0.00  0.00    +0.008 A 
ATOM     36  C   UNL     1       2.689  -2.301  -1.308  0.00  0.00    +0.001 A 
ATOM     37  C   UNL     1       3.800  -1.478  -1.293  0.00  0.00    +0.004 A 
ATOM     38  C   UNL     1       3.687  -0.174  -0.857  0.00  0.00    +0.046 A 
ENDBRANCH  23  25
ENDBRANCH  22  23
ENDBRANCH  21  22
ENDBRANCH   1  21
TORSDOF 7
