REMARK  Name = ZINC38595833
REMARK  8 active torsions:
REMARK  status: ('A' for Active; 'I' for Inactive)
REMARK    1  A    between atoms: C_1  and  C_2
REMARK    2  A    between atoms: C_4  and  C_35
REMARK    3  A    between atoms: C_13  and  C_25
REMARK    4  A    between atoms: N_15  and  C_18
REMARK    5  A    between atoms: C_18  and  C_19
REMARK    6  A    between atoms: C_27  and  O_33
REMARK    7  A    between atoms: C_28  and  O_32
REMARK    8  A    between atoms: O_33  and  C_34
REMARK                            x       y       z     vdW  Elec       q    Type
REMARK                         _______ _______ _______ _____ _____    ______ ____
ROOT
ATOM      1  C   UNL     1      -0.523   1.450   0.038  0.00  0.00    +0.044 C 
ATOM      2  C   UNL     1      -0.237  -0.029   0.015  0.00  0.00    -0.047 A 
ATOM      3  C   UNL     1      -0.233  -0.708  -1.195  0.00  0.00    +0.007 A 
ATOM      4  C   UNL     1       0.027  -2.050  -1.231  0.00  0.00    -0.036 A 
ATOM      5  C   UNL     1       0.289  -2.735  -0.045  0.00  0.00    +0.067 A 
ATOM      6  C   UNL     1       0.282  -2.060   1.186  0.00  0.00    +0.140 A 
ATOM      7  C   UNL     1       0.022  -0.690   1.195  0.00  0.00    +0.050 A 
ATOM      8  O   UNL     1       0.518  -2.692   2.358  0.00  0.00    -0.450 OA
ATOM      9  C   UNL     1       1.001  -3.950   2.351  0.00  0.00    +0.199 A 
ATOM     10  C   UNL     1       1.051  -4.714   1.220  0.00  0.00    +0.072 A 
ATOM     11  C   UNL     1       0.581  -4.191  -0.067  0.00  0.00    +0.199 A 
ATOM     12  O   UNL     1       0.444  -4.884  -1.059  0.00  0.00    -0.287 OA
ATOM     13  C   UNL     1       1.631  -6.039   1.591  0.00  0.00    +0.145 C 
ATOM     14  N   UNL     1       1.915  -5.964   3.033  0.00  0.00    -0.281 N 
ATOM     15  C   UNL     1       1.545  -4.742   3.468  0.00  0.00    +0.283 C 
ATOM     16  O   UNL     1       1.646  -4.351   4.614  0.00  0.00    -0.267 OA
ATOM     17  C   UNL     1       0.031  -2.784  -2.547  0.00  0.00    +0.044 C 
ENDROOT
BRANCH  13  18
ATOM     18  C   UNL     1       0.638  -7.138   1.312  0.00  0.00    -0.018 A 
ATOM     19  C   UNL     1       0.774  -7.921   0.180  0.00  0.00    +0.055 A 
ATOM     20  C   UNL     1      -0.138  -8.931  -0.078  0.00  0.00    +0.163 A 
ATOM     21  C   UNL     1      -1.190  -9.157   0.804  0.00  0.00    +0.173 A 
ATOM     22  C   UNL     1      -1.321  -8.369   1.937  0.00  0.00    +0.063 A 
ATOM     23  C   UNL     1      -0.404  -7.365   2.191  0.00  0.00    +0.025 A 
ATOM     24 BR   UNL     1      -2.750  -8.672   3.139  0.00  0.00    -0.046 Br
BRANCH  21  25
ATOM     25  O   UNL     1      -2.088 -10.147   0.555  0.00  0.00    -0.503 OA
ATOM     26  H   UNL     1      -1.846 -11.002   0.936  0.00  0.00    +0.292 HD
ENDBRANCH  21  25
BRANCH  20  27
ATOM     27  O   UNL     1      -0.005  -9.701  -1.191  0.00  0.00    -0.491 OA
ATOM     28  C   UNL     1       1.099  -9.412  -2.051  0.00  0.00    +0.277 C 
ENDBRANCH  20  27
ENDBRANCH  13  18
BRANCH  14  29
ATOM     29  C   UNL     1       2.498  -7.029   3.853  0.00  0.00    +0.140 C 
BRANCH  29  30
ATOM     30  C   UNL     1       4.022  -6.898   3.851  0.00  0.00    +0.136 C 
ATOM     31  C   UNL     1       4.651  -8.085   4.612  0.00  0.00    +0.035 C 
ATOM     32  C   UNL     1       5.817  -7.404   5.379  0.00  0.00    +0.031 C 
ATOM     33  C   UNL     1       5.198  -6.017   5.686  0.00  0.00    +0.160 C 
ATOM     34  O   UNL     1       4.407  -5.695   4.528  0.00  0.00    -0.375 OA
ENDBRANCH  29  30
ENDBRANCH  14  29
TORSDOF 5
