REMARK  Name = ZINC36493839
REMARK  13 active torsions:
REMARK  status: ('A' for Active; 'I' for Inactive)
REMARK    1  A    between atoms: C_1  and  C_2
REMARK    2  A    between atoms: C_2  and  C_3
REMARK    3  A    between atoms: C_2  and  C_4
REMARK    4  A    between atoms: C_2  and  N_5
REMARK    5  A    between atoms: C_6  and  C_8
REMARK    6  A    between atoms: C_8  and  C_10
REMARK    7  A    between atoms: C_8  and  N_17
REMARK    8  A    between atoms: C_15  and  O_16
REMARK    9  A    between atoms: N_17  and  C_18
REMARK   10  A    between atoms: C_18  and  C_19
REMARK   11  A    between atoms: C_24  and  C_26
REMARK   12  A    between atoms: C_26  and  C_34
REMARK   13  A    between atoms: C_27  and  C_28
REMARK                            x       y       z     vdW  Elec       q    Type
REMARK                         _______ _______ _______ _____ _____    ______ ____
ROOT
ATOM      1  N   UNL     1      -3.911   0.951  -4.522  0.00  0.00    -0.274 N 
ATOM      2  C   UNL     1      -2.687   1.113  -5.063  0.00  0.00    +0.248 C 
ATOM      3  O   UNL     1      -1.724   0.565  -4.562  0.00  0.00    -0.270 OA
ENDROOT
BRANCH   2   4
ATOM      4  C   UNL     1      -2.517   1.952  -6.260  0.00  0.00    +0.045 C 
ATOM      5  C   UNL     1      -2.419   1.373  -7.487  0.00  0.00    +0.021 C 
BRANCH   5   6
ATOM      6  C   UNL     1      -2.111   2.197  -8.665  0.00  0.00    -0.024 A 
ATOM      7  C   UNL     1      -1.416   3.403  -8.518  0.00  0.00    +0.008 A 
ATOM      8  C   UNL     1      -1.131   4.169  -9.628  0.00  0.00    +0.001 A 
ATOM      9  C   UNL     1      -1.529   3.748 -10.885  0.00  0.00    +0.000 A 
ATOM     10  C   UNL     1      -2.218   2.557 -11.039  0.00  0.00    +0.001 A 
ATOM     11  C   UNL     1      -2.506   1.776  -9.940  0.00  0.00    +0.008 A 
ENDBRANCH   5   6
BRANCH   4  12
ATOM     12  C   UNL     1      -2.453   3.425  -6.129  0.00  0.00    -0.013 A 
ATOM     13  C   UNL     1      -1.470   4.015  -5.333  0.00  0.00    +0.008 A 
ATOM     14  C   UNL     1      -1.415   5.388  -5.214  0.00  0.00    +0.001 A 
ATOM     15  C   UNL     1      -2.332   6.181  -5.883  0.00  0.00    +0.000 A 
ATOM     16  C   UNL     1      -3.308   5.602  -6.673  0.00  0.00    +0.001 A 
ATOM     17  C   UNL     1      -3.370   4.230  -6.805  0.00  0.00    +0.008 A 
ENDBRANCH   4  12
ENDBRANCH   2   4
BRANCH   1  18
ATOM     18  C   UNL     1      -4.109  -0.007  -3.432  0.00  0.00    +0.196 C 
BRANCH  18  19
ATOM     19  C   UNL     1      -3.787  -1.396  -3.919  0.00  0.00    +0.023 A 
ATOM     20  C   UNL     1      -3.020  -1.570  -5.055  0.00  0.00    +0.009 A 
ATOM     21  C   UNL     1      -2.724  -2.844  -5.503  0.00  0.00    +0.001 A 
ATOM     22  C   UNL     1      -3.195  -3.948  -4.816  0.00  0.00    +0.004 A 
ATOM     23  C   UNL     1      -3.962  -3.779  -3.679  0.00  0.00    +0.046 A 
ATOM     24  C   UNL     1      -4.256  -2.502  -3.224  0.00  0.00    +0.122 A 
BRANCH  24  25
ATOM     25  O   UNL     1      -5.005  -2.334  -2.103  0.00  0.00    -0.506 OA
ATOM     26  H   UNL     1      -5.956  -2.283  -2.270  0.00  0.00    +0.292 HD
ENDBRANCH  24  25
ENDBRANCH  18  19
BRANCH  18  28
ATOM     27  N   UNL     1      -3.210  -0.404  -1.161  0.00  0.00    -0.309 N 
ATOM     28  C   UNL     1      -3.200   0.345  -2.282  0.00  0.00    +0.239 C 
ATOM     29  O   UNL     1      -2.460   1.302  -2.365  0.00  0.00    -0.273 OA
ATOM     30  H   UNL     1      -3.802  -1.169  -1.095  0.00  0.00    +0.149 HD
BRANCH  27  32
ATOM     31  C   UNL     1      -2.654   1.349   0.451  0.00  0.00    +0.031 C 
ATOM     32  C   UNL     1      -2.327  -0.061  -0.044  0.00  0.00    +0.026 C 
ATOM     33  C   UNL     1      -0.871  -0.113  -0.510  0.00  0.00    +0.031 C 
ATOM     34  C   UNL     1      -2.534  -1.062   1.095  0.00  0.00    +0.031 C 
ENDBRANCH  27  32
ENDBRANCH  18  28
ENDBRANCH   1  18
BRANCH   1  35
ATOM     35  C   UNL     1      -5.043   1.734  -5.024  0.00  0.00    +0.183 C 
BRANCH  35  36
ATOM     36  C   UNL     1      -5.803   0.923  -6.042  0.00  0.00    +0.122 A 
ATOM     37  C   UNL     1      -6.901   0.186  -5.800  0.00  0.00    +0.046 A 
ATOM     38  C   UNL     1      -7.280  -0.402  -7.029  0.00  0.00    +0.041 A 
ATOM     39  C   UNL     1      -6.389   0.012  -7.949  0.00  0.00    +0.195 A 
ATOM     40  O   UNL     1      -5.500   0.818  -7.346  0.00  0.00    -0.466 OA
ENDBRANCH  35  36
ENDBRANCH   1  35
TORSDOF 10
