REMARK  Name = ZINC54932394
REMARK  6 active torsions:
REMARK  status: ('A' for Active; 'I' for Inactive)
REMARK    1  A    between atoms: C_1  and  C_2
REMARK    2  A    between atoms: C_2  and  C_4
REMARK    3  A    between atoms: C_2  and  N_21
REMARK    4  A    between atoms: C_4  and  C_6
REMARK    5  A    between atoms: C_4  and  O_12
REMARK    6  A    between atoms: O_12  and  C_13
REMARK                            x       y       z     vdW  Elec       q    Type
REMARK                         _______ _______ _______ _____ _____    ______ ____
ROOT
ATOM      1  C   UNL     1       0.758  -0.525   1.257  0.00  0.00    +0.196 C 
ENDROOT
BRANCH   1   2
ATOM      2  C   UNL     1       2.235  -0.228   1.274  0.00  0.00    +0.029 A 
ATOM      3  C   UNL     1       3.265  -0.994   0.840  0.00  0.00    +0.016 A 
ATOM      4  C   UNL     1       4.556  -0.511   0.957  0.00  0.00    +0.023 A 
ATOM      5  C   UNL     1       4.752   0.714   1.505  0.00  0.00    +0.055 A 
ATOM      6  S   UNL     1       3.081   1.228   1.867  0.00  0.00    -0.083 S 
ATOM      7 BR   UNL     1       6.374   1.640   1.800  0.00  0.00    -0.043 Br
ENDBRANCH   1   2
BRANCH   1   9
ATOM      8  C   UNL     1       0.236   1.603   0.056  0.00  0.00    -0.010 C 
ATOM      9  C   UNL     1       0.131   0.078  -0.002  0.00  0.00    -0.032 C 
BRANCH   9  10
ATOM     10  N   UNL     1      -1.282  -0.313  -0.081  0.00  0.00    +0.382 N 
ATOM     11  H   UNL     1      -1.771   0.027   0.734  0.00  0.00    -0.089 HD
ATOM     12  H   UNL     1      -1.696   0.084  -0.911  0.00  0.00    -0.089 HD
ATOM     13  H   UNL     1      -1.352  -1.319  -0.119  0.00  0.00    -0.089 HD
ENDBRANCH   9  10
ENDBRANCH   1   9
BRANCH   1  14
ATOM     14  O   UNL     1       0.143   0.044   2.414  0.00  0.00    -0.485 OA
BRANCH  14  15
ATOM     15  C   UNL     1      -0.936  -0.607   2.923  0.00  0.00    +0.127 A 
ATOM     16  C   UNL     1      -1.632  -0.064   3.993  0.00  0.00    +0.084 A 
ATOM     17  C   UNL     1      -2.731  -0.728   4.510  0.00  0.00    +0.130 A 
ATOM     18  C   UNL     1      -3.135  -1.933   3.960  0.00  0.00    +0.077 A 
ATOM     19  C   UNL     1      -2.441  -2.475   2.892  0.00  0.00    +0.130 A 
ATOM     20  C   UNL     1      -1.345  -1.811   2.369  0.00  0.00    +0.084 A 
ATOM     21  F   UNL     1      -2.836  -3.651   2.357  0.00  0.00    -0.205 F 
ATOM     22  F   UNL     1      -3.410  -0.200   5.552  0.00  0.00    -0.205 F 
ENDBRANCH  14  15
ENDBRANCH   1  14
TORSDOF 5
