REMARK  Name = ZINC08789297
REMARK  8 active torsions:
REMARK  status: ('A' for Active; 'I' for Inactive)
REMARK    1  A    between atoms: C_1  and  C_2
REMARK    2  A    between atoms: C_2  and  C_3
REMARK    3  A    between atoms: C_6  and  C_9
REMARK    4  A    between atoms: N_15  and  C_30
REMARK    5  A    between atoms: C_18  and  C_29
REMARK    6  A    between atoms: C_35  and  O_36
REMARK    7  A    between atoms: O_36  and  C_37
REMARK    8  A    between atoms: C_37  and  C_38
REMARK                            x       y       z     vdW  Elec       q    Type
REMARK                         _______ _______ _______ _____ _____    ______ ____
ROOT
ATOM      1  C   UNL     1      -2.718   2.950   4.762  0.00  0.00    +0.069 C 
ATOM      2  C   UNL     1      -1.695   3.126   5.894  0.00  0.00    +0.123 C 
ATOM      3  N   UNL     1      -2.274   4.041   6.879  0.00  0.00    -0.265 N 
ATOM      4  C   UNL     1      -2.631   3.845   8.148  0.00  0.00    +0.317 C 
ATOM      5  O   UNL     1      -2.278   2.894   8.817  0.00  0.00    -0.252 OA
ATOM      6  N   UNL     1      -3.428   4.828   8.597  0.00  0.00    -0.188 N 
ATOM      7  C   UNL     1      -3.545   5.825   7.693  0.00  0.00    +0.257 C 
ATOM      8  O   UNL     1      -4.235   6.818   7.780  0.00  0.00    -0.272 OA
ATOM      9  C   UNL     1      -2.635   5.442   6.551  0.00  0.00    +0.153 C 
ATOM     10  C   UNL     1      -3.385   5.367   5.243  0.00  0.00    +0.054 A 
ATOM     11  C   UNL     1      -3.401   4.260   4.465  0.00  0.00    -0.008 A 
ATOM     12  C   UNL     1      -4.203   4.586   3.299  0.00  0.00    +0.004 A 
ATOM     13  C   UNL     1      -4.558   3.850   2.164  0.00  0.00    +0.010 A 
ATOM     14  C   UNL     1      -5.350   4.484   1.238  0.00  0.00    +0.001 A 
ATOM     15  C   UNL     1      -5.783   5.789   1.410  0.00  0.00    +0.002 A 
ATOM     16  C   UNL     1      -5.445   6.539   2.522  0.00  0.00    +0.026 A 
ATOM     17  C   UNL     1      -4.640   5.922   3.479  0.00  0.00    +0.047 A 
ATOM     18  N   UNL     1      -4.130   6.360   4.666  0.00  0.00    -0.356 N 
ATOM     19  H   UNL     1      -4.274   7.241   5.045  0.00  0.00    +0.166 HD
ATOM     20  C   UNL     1      -1.405   6.348   6.453  0.00  0.00    +0.048 C 
ENDROOT
BRANCH   1  24
ATOM     21  C   UNL     1      -0.718   1.572   1.248  0.00  0.00    -0.048 A 
ATOM     22  C   UNL     1      -0.360   2.779   1.819  0.00  0.00    +0.004 A 
ATOM     23  C   UNL     1      -1.010   3.227   2.953  0.00  0.00    +0.004 A 
ATOM     24  C   UNL     1      -2.012   2.463   3.523  0.00  0.00    -0.038 A 
ATOM     25  C   UNL     1      -2.366   1.254   2.955  0.00  0.00    +0.004 A 
ATOM     26  C   UNL     1      -1.719   0.808   1.818  0.00  0.00    +0.004 A 
BRANCH  21  28
ATOM     27  C   UNL     1      -0.753   1.593  -1.232  0.00  0.00    +0.009 C 
ATOM     28  C   UNL     1      -0.013   1.086   0.008  0.00  0.00    +0.032 C 
ENDBRANCH  21  28
ENDBRANCH   1  24
BRANCH   6  29
ATOM     29  C   UNL     1      -4.062   4.820   9.850  0.00  0.00    +0.087 A 
ATOM     30  C   UNL     1      -5.326   4.266   9.985  0.00  0.00    +0.028 A 
ATOM     31  C   UNL     1      -5.949   4.259  11.219  0.00  0.00    +0.002 A 
ATOM     32  C   UNL     1      -5.314   4.804  12.321  0.00  0.00    +0.004 A 
ATOM     33  C   UNL     1      -4.054   5.358  12.193  0.00  0.00    +0.047 A 
ATOM     34  C   UNL     1      -3.422   5.364  10.960  0.00  0.00    +0.142 A 
BRANCH  34  35
ATOM     35  O   UNL     1      -2.180   5.904  10.833  0.00  0.00    -0.490 OA
BRANCH  35  36
ATOM     36  C   UNL     1      -1.584   6.444  12.015  0.00  0.00    +0.226 C 
ATOM     37  C   UNL     1      -0.200   7.002  11.678  0.00  0.00    +0.048 C 
ENDBRANCH  35  36
ENDBRANCH  34  35
ENDBRANCH   6  29
TORSDOF 5
