REMARK  Name = ZINC51093508
REMARK  8 active torsions:
REMARK  status: ('A' for Active; 'I' for Inactive)
REMARK    1  A    between atoms: C_1  and  C_2
REMARK    2  A    between atoms: C_7  and  C_23
REMARK    3  A    between atoms: C_10  and  C_12
REMARK    4  A    between atoms: C_13  and  N_21
REMARK    5  A    between atoms: C_16  and  C_18
REMARK    6  A    between atoms: C_18  and  C_19
REMARK    7  A    between atoms: C_18  and  C_20
REMARK    8  A    between atoms: N_21  and  N_22
REMARK                            x       y       z     vdW  Elec       q    Type
REMARK                         _______ _______ _______ _____ _____    ______ ____
ROOT
ATOM      1  C   UNL     1       1.256  -1.383   3.332  0.00  0.00    +0.151 A 
ATOM      2  C   UNL     1       1.040  -0.745   4.563  0.00  0.00    +0.090 A 
ATOM      3  C   UNL     1       1.892  -1.061   5.625  0.00  0.00    +0.139 A 
ATOM      4  N   UNL     1       2.859  -1.938   5.432  0.00  0.00    -0.238 NA
ATOM      5  C   UNL     1       3.031  -2.517   4.259  0.00  0.00    +0.132 A 
ATOM      6  N   UNL     1       2.255  -2.259   3.230  0.00  0.00    -0.225 NA
ENDROOT
BRANCH   1  14
ATOM      7  C   UNL     1       2.980  -0.506  -0.030  0.00  0.00    +0.028 C 
ATOM      8  C   UNL     1       2.242   0.137   1.146  0.00  0.00    +0.074 C 
ATOM      9  C   UNL     1       2.261   1.661   0.992  0.00  0.00    +0.022 C 
ATOM     10  C   UNL     1       1.459   2.055  -0.250  0.00  0.00    +0.004 C 
ATOM     11  C   UNL     1       0.005   1.605  -0.085  0.00  0.00    +0.022 C 
ATOM     12  C   UNL     1      -0.039   0.080   0.057  0.00  0.00    +0.074 C 
ATOM     13  N   UNL     1       0.846  -0.322   1.162  0.00  0.00    -0.291 N 
ATOM     14  C   UNL     1       0.388  -1.091   2.169  0.00  0.00    +0.267 C 
ATOM     15  O   UNL     1      -0.738  -1.546   2.123  0.00  0.00    -0.268 OA
ATOM     16  C   UNL     1      -1.472  -0.365   0.358  0.00  0.00    +0.028 C 
ENDBRANCH   1  14
BRANCH   5  17
ATOM     17  C   UNL     1       4.152  -3.511   4.094  0.00  0.00    +0.051 C 
ATOM     18  C   UNL     1       5.474  -2.861   4.504  0.00  0.00    +0.015 C 
ATOM     19  C   UNL     1       3.886  -4.730   4.981  0.00  0.00    +0.015 C 
ENDBRANCH   5  17
BRANCH   2  20
ATOM     20  N   UNL     1       0.010   0.173   4.722  0.00  0.00    -0.280 N 
ATOM     21  H   UNL     1      -0.526   0.437   3.957  0.00  0.00    +0.166 HD
BRANCH  20  22
ATOM     22  N   UNL     1      -0.249   0.703   5.953  0.00  0.00    -0.256 NA
ATOM     23  H   UNL     1      -1.021   1.351   5.913  0.00  0.00    +0.140 HD
ATOM     24  H   UNL     1      -0.422  -0.024   6.631  0.00  0.00    +0.140 HD
ENDBRANCH  20  22
ENDBRANCH   2  20
TORSDOF 4
