REMARK  Name = ZINC09558688
REMARK  8 active torsions:
REMARK  status: ('A' for Active; 'I' for Inactive)
REMARK    1  A    between atoms: C_1  and  C_2
REMARK    2  A    between atoms: C_5  and  C_36
REMARK    3  A    between atoms: C_6  and  N_8
REMARK    4  A    between atoms: C_21  and  S_22
REMARK    5  A    between atoms: S_22  and  C_23
REMARK    6  A    between atoms: C_23  and  C_24
REMARK    7  A    between atoms: N_26  and  C_27
REMARK    8  A    between atoms: C_33  and  C_35
REMARK                            x       y       z     vdW  Elec       q    Type
REMARK                         _______ _______ _______ _____ _____    ______ ____
ROOT
ATOM      1  N   UNL     1      -6.931   1.147  -7.340  0.00  0.00    -0.245 N 
ATOM      2  C   UNL     1      -7.750   0.080  -7.235  0.00  0.00    +0.268 A 
ATOM      3  O   UNL     1      -8.652  -0.087  -8.034  0.00  0.00    -0.267 OA
ATOM      4  C   UNL     1      -7.535  -0.880  -6.138  0.00  0.00    +0.064 A 
ATOM      5  C   UNL     1      -8.353  -1.999  -5.984  0.00  0.00    +0.015 A 
ATOM      6  C   UNL     1      -8.122  -2.875  -4.945  0.00  0.00    +0.001 A 
ATOM      7  C   UNL     1      -7.083  -2.648  -4.056  0.00  0.00    +0.002 A 
ATOM      8  C   UNL     1      -6.266  -1.544  -4.197  0.00  0.00    +0.027 A 
ATOM      9  C   UNL     1      -6.483  -0.652  -5.236  0.00  0.00    +0.064 A 
ATOM     10  N   UNL     1      -5.675   0.465  -5.408  0.00  0.00    -0.255 N 
ATOM     11  C   UNL     1      -5.900   1.345  -6.434  0.00  0.00    +0.245 A 
ATOM     12  N   UNL     1      -4.993   2.287  -6.332  0.00  0.00    -0.109 NA
ATOM     13  N   UNL     1      -4.231   2.060  -5.322  0.00  0.00    -0.120 NA
ATOM     14  C   UNL     1      -4.603   0.959  -4.715  0.00  0.00    +0.198 A 
ENDROOT
BRANCH   1  20
ATOM     15  C   UNL     1      -5.976   2.603 -11.938  0.00  0.00    +0.044 C 
ATOM     16  C   UNL     1      -6.674   2.797 -10.616  0.00  0.00    -0.048 A 
ATOM     17  C   UNL     1      -7.507   3.885 -10.427  0.00  0.00    +0.004 A 
ATOM     18  C   UNL     1      -8.149   4.066  -9.216  0.00  0.00    +0.005 A 
ATOM     19  C   UNL     1      -7.960   3.160  -8.191  0.00  0.00    -0.026 A 
ATOM     20  C   UNL     1      -7.124   2.067  -8.377  0.00  0.00    +0.056 A 
ATOM     21  C   UNL     1      -6.476   1.891  -9.593  0.00  0.00    +0.030 A 
ATOM     22  C   UNL     1      -8.661   3.358  -6.871  0.00  0.00    +0.046 C 
ENDBRANCH   1  20
BRANCH  14  23
ATOM     23  S   UNL     1      -3.859   0.246  -3.286  0.00  0.00    -0.076 S 
BRANCH  23  24
ATOM     24  C   UNL     1      -2.502   1.382  -2.885  0.00  0.00    +0.173 C 
BRANCH  24  25
ATOM     25  C   UNL     1      -1.773   0.883  -1.664  0.00  0.00    +0.224 C 
ATOM     26  O   UNL     1      -2.134  -0.139  -1.118  0.00  0.00    -0.275 OA
ATOM     27  N   UNL     1      -0.721   1.571  -1.179  0.00  0.00    -0.312 N 
ATOM     28  H   UNL     1      -0.433   2.388  -1.615  0.00  0.00    +0.149 HD
BRANCH  27  29
ATOM     29  C   UNL     1      -0.013   1.086   0.008  0.00  0.00    +0.076 C 
ATOM     30  C   UNL     1      -0.729   1.579   1.267  0.00  0.00    +0.022 C 
ATOM     31  C   UNL     1       0.011   1.072   2.506  0.00  0.00    +0.002 C 
ATOM     32  C   UNL     1       1.446   1.602   2.495  0.00  0.00    +0.000 C 
ATOM     33  C   UNL     1       2.163   1.109   1.237  0.00  0.00    +0.005 C 
ATOM     34  C   UNL     1       1.423   1.615  -0.003  0.00  0.00    +0.006 C 
ATOM     35  C   UNL     1       2.139   1.122  -1.262  0.00  0.00    +0.009 C 
ENDBRANCH  27  29
ENDBRANCH  24  25
ENDBRANCH  23  24
ENDBRANCH  14  23
TORSDOF 5
