REMARK  Name = ZINC35707495
REMARK  10 active torsions:
REMARK  status: ('A' for Active; 'I' for Inactive)
REMARK    1  A    between atoms: C_1  and  C_2
REMARK    2  A    between atoms: C_2  and  N_3
REMARK    3  A    between atoms: C_4  and  C_33
REMARK    4  A    between atoms: C_5  and  C_28
REMARK    5  A    between atoms: C_6  and  C_11
REMARK    6  A    between atoms: C_14  and  N_17
REMARK    7  A    between atoms: N_20  and  C_21
REMARK    8  A    between atoms: C_28  and  O_30
REMARK    9  A    between atoms: O_30  and  C_31
REMARK   10  A    between atoms: C_31  and  C_32
REMARK                            x       y       z     vdW  Elec       q    Type
REMARK                         _______ _______ _______ _____ _____    ______ ____
ROOT
ATOM      1  C   UNL     1       2.412  -0.542  -4.442  0.00  0.00    -0.022 A 
ATOM      2  C   UNL     1       2.505   0.826  -4.264  0.00  0.00    +0.007 A 
ATOM      3  C   UNL     1       2.872   1.637  -5.321  0.00  0.00    +0.024 A 
ATOM      4  C   UNL     1       3.147   1.077  -6.561  0.00  0.00    +0.035 A 
ATOM      5  C   UNL     1       3.052  -0.297  -6.736  0.00  0.00    +0.024 A 
ATOM      6  C   UNL     1       2.690  -1.103  -5.674  0.00  0.00    +0.007 A 
ENDROOT
BRANCH   1  10
ATOM      7  N   UNL     1       0.812  -0.589  -0.938  0.00  0.00    -0.259 N 
ATOM      8  C   UNL     1      -0.006  -0.942  -1.973  0.00  0.00    +0.024 C 
ATOM      9  C   UNL     1       0.503  -1.360  -3.152  0.00  0.00    +0.078 C 
ATOM     10  C   UNL     1       2.011  -1.424  -3.287  0.00  0.00    +0.143 C 
ATOM     11  N   UNL     1       2.803  -1.022  -2.113  0.00  0.00    -0.288 N 
ATOM     12  C   UNL     1       2.149  -0.622  -1.004  0.00  0.00    +0.307 C 
ATOM     13  O   UNL     1       2.795  -0.284  -0.031  0.00  0.00    -0.252 OA
ATOM     14  C   UNL     1      -1.500  -0.864  -1.796  0.00  0.00    +0.061 C 
ATOM     15  H   UNL     1       3.773  -1.041  -2.138  0.00  0.00    +0.151 HD
BRANCH   7  17
ATOM     16  C   UNL     1      -0.170  -1.363   1.163  0.00  0.00    +0.025 C 
ATOM     17  C   UNL     1       0.193  -0.145   0.312  0.00  0.00    +0.111 C 
ENDBRANCH   7  17
BRANCH   9  18
ATOM     18  C   UNL     1      -0.344  -1.727  -4.225  0.00  0.00    +0.339 C 
ATOM     19  O   UNL     1      -1.552  -1.668  -4.094  0.00  0.00    -0.245 OA
BRANCH  18  20
ATOM     20  O   UNL     1       0.189  -2.142  -5.393  0.00  0.00    -0.462 OA
BRANCH  20  21
ATOM     21  C   UNL     1      -0.725  -2.496  -6.433  0.00  0.00    +0.229 C 
ATOM     22  C   UNL     1       0.058  -2.938  -7.671  0.00  0.00    +0.048 C 
ENDBRANCH  20  21
ENDBRANCH  18  20
ENDBRANCH   9  18
ENDBRANCH   1  10
BRANCH   4  23
ATOM     23  N   UNL     1       3.518   1.896  -7.633  0.00  0.00    -0.269 N 
ATOM     24  C   UNL     1       4.272   2.992  -7.415  0.00  0.00    +0.308 C 
ATOM     25  O   UNL     1       4.563   3.313  -6.279  0.00  0.00    -0.252 OA
ATOM     26  N   UNL     1       4.702   3.733  -8.456  0.00  0.00    -0.268 N 
ATOM     27  H   UNL     1       3.234   1.675  -8.534  0.00  0.00    +0.156 HD
ATOM     28  H   UNL     1       4.402   3.526  -9.355  0.00  0.00    +0.156 HD
BRANCH  26  29
ATOM     29  C   UNL     1       5.581   4.800  -8.239  0.00  0.00    +0.049 A 
ATOM     30  C   UNL     1       6.535   4.723  -7.233  0.00  0.00    +0.024 A 
ATOM     31  C   UNL     1       7.401   5.777  -7.022  0.00  0.00    +0.002 A 
ATOM     32  C   UNL     1       7.320   6.910  -7.811  0.00  0.00    +0.001 A 
ATOM     33  C   UNL     1       6.371   6.991  -8.813  0.00  0.00    +0.017 A 
ATOM     34  C   UNL     1       5.505   5.937  -9.034  0.00  0.00    +0.039 A 
ATOM     35 BR   UNL     1       4.214   6.045 -10.411  0.00  0.00    -0.048 Br
ENDBRANCH  26  29
ENDBRANCH   4  23
TORSDOF 7
