REMARK  Name = ZINC37245919
REMARK  10 active torsions:
REMARK  status: ('A' for Active; 'I' for Inactive)
REMARK    1  A    between atoms: C_1  and  C_2
REMARK    2  A    between atoms: C_2  and  O_4
REMARK    3  A    between atoms: O_4  and  C_5
REMARK    4  A    between atoms: C_11  and  C_35
REMARK    5  A    between atoms: C_22  and  C_34
REMARK    6  A    between atoms: C_25  and  O_30
REMARK    7  A    between atoms: C_27  and  C_28
REMARK    8  A    between atoms: C_27  and  C_29
REMARK    9  A    between atoms: O_30  and  C_31
REMARK   10  A    between atoms: C_31  and  C_33
REMARK                            x       y       z     vdW  Elec       q    Type
REMARK                         _______ _______ _______ _____ _____    ______ ____
ROOT
ATOM      1  C   UNL     1      -2.513  -3.220   3.667  0.00  0.00    +0.183 C 
ATOM      2  C   UNL     1      -2.970  -4.362   4.607  0.00  0.00    +0.045 C 
ATOM      3  C   UNL     1      -4.052  -5.162   3.832  0.00  0.00    +0.008 C 
ATOM      4  C   UNL     1      -4.581  -4.136   2.824  0.00  0.00    +0.009 C 
ATOM      5  C   UNL     1      -3.267  -3.444   2.361  0.00  0.00    +0.008 C 
ATOM      6  C   UNL     1      -3.656  -2.204   1.580  0.00  0.00    +0.011 C 
ATOM      7  C   UNL     1      -4.401  -2.674   0.319  0.00  0.00    +0.006 C 
ATOM      8  C   UNL     1      -5.619  -3.520   0.674  0.00  0.00    +0.010 C 
ATOM      9  C   UNL     1      -5.258  -4.708   1.593  0.00  0.00    +0.067 C 
ATOM     10  C   UNL     1      -6.553  -5.391   1.987  0.00  0.00    +0.160 C 
ATOM     11  O   UNL     1      -6.795  -5.680   3.141  0.00  0.00    -0.292 OA
ATOM     12  C   UNL     1      -7.502  -5.686   0.905  0.00  0.00    +0.047 C 
ATOM     13  C   UNL     1      -7.392  -5.066  -0.262  0.00  0.00    -0.051 C 
ATOM     14  C   UNL     1      -6.307  -4.020  -0.580  0.00  0.00    -0.006 C 
ATOM     15  C   UNL     1      -5.317  -4.555  -1.610  0.00  0.00    +0.015 C 
ATOM     16  C   UNL     1      -6.013  -5.574  -2.513  0.00  0.00    +0.046 C 
ATOM     17  C   UNL     1      -7.475  -5.198  -2.745  0.00  0.00    +0.186 C 
ATOM     18  C   UNL     1      -8.340  -5.410  -1.397  0.00  0.00    +0.024 C 
ATOM     19  C   UNL     1      -9.555  -4.480  -1.366  0.00  0.00    +0.019 C 
ATOM     20  C   UNL     1      -8.790  -6.867  -1.282  0.00  0.00    +0.019 C 
ATOM     21  C   UNL     1      -7.017  -2.829  -1.227  0.00  0.00    +0.016 C 
ATOM     22  C   UNL     1      -2.472  -4.392   1.461  0.00  0.00    +0.015 C 
ENDROOT
BRANCH   1  23
ATOM     23  O   UNL     1      -2.857  -1.950   4.226  0.00  0.00    -0.461 OA
BRANCH  23  25
ATOM     24  C   UNL     1      -2.218  -0.003   5.602  0.00  0.00    +0.136 C 
ATOM     25  C   UNL     1      -1.926  -1.344   4.979  0.00  0.00    +0.304 C 
ATOM     26  O   UNL     1      -0.855  -1.874   5.159  0.00  0.00    -0.251 OA
ENDBRANCH  23  25
ENDBRANCH   1  23
BRANCH  17  27
ATOM     27  O   UNL     1      -7.558  -3.823  -3.126  0.00  0.00    -0.461 OA
BRANCH  27  28
ATOM     28  C   UNL     1      -7.490  -3.549  -4.439  0.00  0.00    +0.304 C 
ATOM     29  O   UNL     1      -7.365  -4.446  -5.237  0.00  0.00    -0.251 OA
ATOM     30  C   UNL     1      -7.570  -2.121  -4.915  0.00  0.00    +0.136 C 
ENDBRANCH  27  28
ENDBRANCH  17  27
TORSDOF 4
