REMARK  Name = ZINC59170415
REMARK  7 active torsions:
REMARK  status: ('A' for Active; 'I' for Inactive)
REMARK    1  A    between atoms: C_1  and  C_2
REMARK    2  A    between atoms: C_5  and  N_8
REMARK    3  A    between atoms: C_9  and  C_11
REMARK    4  A    between atoms: N_21  and  N_22
REMARK    5  A    between atoms: N_22  and  S_23
REMARK    6  A    between atoms: S_23  and  C_26
REMARK    7  A    between atoms: C_29  and  C_32
REMARK                            x       y       z     vdW  Elec       q    Type
REMARK                         _______ _______ _______ _____ _____    ______ ____
ROOT
ATOM      1  C   UNL     1       0.721  -6.434   0.944  0.00  0.00    +0.099 A 
ATOM      2  C   UNL     1       0.680  -7.079   2.157  0.00  0.00    +0.030 A 
ATOM      3  C   UNL     1       0.237  -8.478   2.169  0.00  0.00    +0.021 A 
ATOM      4  C   UNL     1      -0.086  -9.114   3.372  0.00  0.00    +0.031 A 
ATOM      5  C   UNL     1      -0.502 -10.429   3.359  0.00  0.00    +0.043 A 
ATOM      6  C   UNL     1      -0.601 -11.120   2.161  0.00  0.00    +0.043 A 
ATOM      7  C   UNL     1      -0.283 -10.504   0.965  0.00  0.00    +0.085 A 
ATOM      8  C   UNL     1       0.139  -9.183   0.958  0.00  0.00    +0.156 A 
ATOM      9  O   UNL     1       0.460  -8.567  -0.209  0.00  0.00    -0.436 OA
ATOM     10  C   UNL     1       0.308  -7.209  -0.249  0.00  0.00    +0.225 A 
ATOM     11  N   UNL     1      -0.178  -6.614  -1.301  0.00  0.00    -0.260 N 
ATOM     12 CL   UNL     1      -0.410 -11.383  -0.527  0.00  0.00    -0.080 Cl
ATOM     13 CL   UNL     1      -0.905 -11.222   4.850  0.00  0.00    -0.083 Cl
ATOM     14  H   UNL     1      -0.402  -5.671  -1.266  0.00  0.00    +0.189 HD
ENDROOT
BRANCH   1  16
ATOM     15  N   UNL     1       1.345  -4.297   1.950  0.00  0.00    -0.281 N 
ATOM     16  C   UNL     1       1.151  -5.030   0.836  0.00  0.00    +0.253 C 
ATOM     17  O   UNL     1       1.331  -4.532  -0.259  0.00  0.00    -0.270 OA
ATOM     18  H   UNL     1       1.302  -4.719   2.822  0.00  0.00    +0.155 HD
BRANCH  15  23
ATOM     19  C   UNL     1       2.415   1.258   1.539  0.00  0.00    +0.044 C 
ATOM     20  C   UNL     1       2.130  -0.217   1.648  0.00  0.00    -0.050 A 
ATOM     21  C   UNL     1       1.518  -0.720   2.782  0.00  0.00    +0.005 A 
ATOM     22  C   UNL     1       1.256  -2.072   2.885  0.00  0.00    +0.023 A 
ATOM     23  C   UNL     1       1.608  -2.927   1.849  0.00  0.00    +0.034 A 
ATOM     24  C   UNL     1       2.222  -2.419   0.711  0.00  0.00    +0.023 A 
ATOM     25  C   UNL     1       2.477  -1.065   0.612  0.00  0.00    +0.005 A 
ENDBRANCH  15  23
ENDBRANCH   1  16
BRANCH  11  26
ATOM     26  N   UNL     1      -0.378  -7.337  -2.485  0.00  0.00    -0.157 N 
ATOM     27  H   UNL     1      -0.233  -8.296  -2.498  0.00  0.00    +0.194 HD
BRANCH  26  28
ATOM     28  S   UNL     1      -0.863  -6.555  -3.861  0.00  0.00    +0.085 S 
ATOM     29  O   UNL     1      -0.681  -7.469  -4.934  0.00  0.00    -0.149 OA
ATOM     30  O   UNL     1      -2.122  -5.963  -3.570  0.00  0.00    -0.149 OA
BRANCH  28  31
ATOM     31  C   UNL     1       0.265  -5.229  -4.132  0.00  0.00    +0.110 A 
ATOM     32  C   UNL     1       0.032  -3.994  -3.557  0.00  0.00    +0.029 A 
ATOM     33  C   UNL     1       0.918  -2.954  -3.769  0.00  0.00    +0.005 A 
ATOM     34  C   UNL     1       2.037  -3.149  -4.557  0.00  0.00    -0.050 A 
ATOM     35  C   UNL     1       2.270  -4.385  -5.132  0.00  0.00    +0.005 A 
ATOM     36  C   UNL     1       1.387  -5.426  -4.916  0.00  0.00    +0.029 A 
ATOM     37  C   UNL     1       3.001  -2.015  -4.790  0.00  0.00    +0.044 C 
ENDBRANCH  28  31
ENDBRANCH  26  28
ENDBRANCH  11  26
TORSDOF 5
