REMARK  Name = ZINC14650525
REMARK  12 active torsions:
REMARK  status: ('A' for Active; 'I' for Inactive)
REMARK    1  A    between atoms: C_1  and  C_2
REMARK    2  A    between atoms: C_2  and  C_3
REMARK    3  A    between atoms: C_2  and  C_4
REMARK    4  A    between atoms: C_4  and  C_5
REMARK    5  A    between atoms: C_5  and  O_6
REMARK    6  A    between atoms: O_6  and  C_7
REMARK    7  A    between atoms: C_12  and  C_13
REMARK    8  A    between atoms: C_21  and  C_23
REMARK    9  A    between atoms: C_23  and  C_24
REMARK   10  A    between atoms: C_24  and  O_26
REMARK   11  A    between atoms: O_26  and  C_27
REMARK   12  A    between atoms: C_27  and  C_28
REMARK                            x       y       z     vdW  Elec       q    Type
REMARK                         _______ _______ _______ _____ _____    ______ ____
ROOT
ATOM      1  C   UNL     1       2.770   2.287  -1.421  0.00  0.00    +0.251 C 
ATOM      2  O   UNL     1       3.525   3.065  -0.872  0.00  0.00    -0.270 OA
ATOM      3  N   UNL     1       2.317   1.205  -0.756  0.00  0.00    -0.284 N 
ATOM      4  C   UNL     1       1.511   0.173  -1.430  0.00  0.00    +0.127 C 
ATOM      5  C   UNL     1       2.275  -1.151  -1.359  0.00  0.00    +0.123 C 
ATOM      6  N   UNL     1       2.776  -1.386  -0.012  0.00  0.00    -0.312 N 
ATOM      7  C   UNL     1       2.973  -0.433   0.900  0.00  0.00    +0.234 C 
ATOM      8  O   UNL     1       3.469  -0.743   1.963  0.00  0.00    -0.274 OA
ATOM      9  C   UNL     1       2.607   1.008   0.672  0.00  0.00    +0.173 C 
ATOM     10  H   UNL     1       2.981  -2.300   0.239  0.00  0.00    +0.149 HD
ENDROOT
BRANCH   1  16
ATOM     11  C   UNL     1       3.288   2.928  -3.775  0.00  0.00    +0.133 A 
ATOM     12  C   UNL     1       2.882   3.150  -5.082  0.00  0.00    +0.047 A 
ATOM     13  C   UNL     1       1.560   2.973  -5.436  0.00  0.00    +0.019 A 
ATOM     14  C   UNL     1       0.628   2.575  -4.490  0.00  0.00    +0.019 A 
ATOM     15  C   UNL     1       1.016   2.344  -3.187  0.00  0.00    +0.032 A 
ATOM     16  C   UNL     1       2.350   2.525  -2.815  0.00  0.00    +0.080 A 
ATOM     17 BR   UNL     1      -1.180   2.339  -4.990  0.00  0.00    -0.050 Br
BRANCH  11  18
ATOM     18  O   UNL     1       4.588   3.102  -3.426  0.00  0.00    -0.491 OA
BRANCH  18  19
ATOM     19  C   UNL     1       5.487   3.515  -4.457  0.00  0.00    +0.229 C 
BRANCH  19  20
ATOM     20  C   UNL     1       6.896   3.657  -3.878  0.00  0.00    +0.044 C 
BRANCH  20  22
ATOM     21  C   UNL     1       7.474   5.500  -5.464  0.00  0.00    +0.007 C 
ATOM     22  C   UNL     1       7.858   4.099  -4.983  0.00  0.00    -0.014 C 
ATOM     23  C   UNL     1       9.287   4.121  -4.435  0.00  0.00    +0.007 C 
ENDBRANCH  20  22
ENDBRANCH  19  20
ENDBRANCH  18  19
ENDBRANCH  11  18
ENDBRANCH   1  16
BRANCH   9  24
ATOM     24  C   UNL     1       3.775   1.905   1.089  0.00  0.00    +0.152 C 
BRANCH  24  25
ATOM     25  C   UNL     1       3.273   3.308   1.317  0.00  0.00    +0.310 C 
ATOM     26  O   UNL     1       2.089   3.542   1.270  0.00  0.00    -0.251 OA
BRANCH  25  27
ATOM     27  O   UNL     1       4.143   4.298   1.574  0.00  0.00    -0.460 OA
BRANCH  27  28
ATOM     28  C   UNL     1       3.589   5.623   1.784  0.00  0.00    +0.267 C 
BRANCH  28  29
ATOM     29  C   UNL     1       4.707   6.597   2.057  0.00  0.00    -0.010 A 
ATOM     30  C   UNL     1       5.124   6.824   3.355  0.00  0.00    +0.007 A 
ATOM     31  C   UNL     1       6.153   7.713   3.605  0.00  0.00    +0.000 A 
ATOM     32  C   UNL     1       6.757   8.383   2.558  0.00  0.00    +0.000 A 
ATOM     33  C   UNL     1       6.335   8.161   1.260  0.00  0.00    +0.000 A 
ATOM     34  C   UNL     1       5.311   7.267   1.010  0.00  0.00    +0.007 A 
ENDBRANCH  28  29
ENDBRANCH  27  28
ENDBRANCH  25  27
ENDBRANCH  24  25
ENDBRANCH   9  24
TORSDOF 10
