REMARK  Name = ZINC01783729
REMARK  15 active torsions:
REMARK  status: ('A' for Active; 'I' for Inactive)
REMARK    1  A    between atoms: C_1  and  C_2
REMARK    2  A    between atoms: C_5  and  S_8
REMARK    3  A    between atoms: S_8  and  N_11
REMARK    4  A    between atoms: N_11  and  C_12
REMARK    5  A    between atoms: N_11  and  C_31
REMARK    6  A    between atoms: C_12  and  C_13
REMARK    7  A    between atoms: C_13  and  C_15
REMARK    8  A    between atoms: C_13  and  O_30
REMARK    9  A    between atoms: C_15  and  N_72
REMARK   10  A    between atoms: C_16  and  C_17
REMARK   11  A    between atoms: C_16  and  N_72
REMARK   12  A    between atoms: C_23  and  C_24
REMARK   13  A    between atoms: C_23  and  N_72
REMARK   14  A    between atoms: C_34  and  O_37
REMARK   15  A    between atoms: O_37  and  C_38
REMARK                            x       y       z     vdW  Elec       q    Type
REMARK                         _______ _______ _______ _____ _____    ______ ____
ROOT
ATOM      1  C   UNL     1       2.002   5.138   0.876  0.00  0.00    +0.161 C 
ENDROOT
BRANCH   1   2
ATOM      2  N   UNL     1       0.651   4.804   0.421  0.00  0.00    -0.201 N 
BRANCH   2   3
ATOM      3  C   UNL     1       0.306   3.470   0.171  0.00  0.00    +0.052 A 
ATOM      4  C   UNL     1      -0.136   3.092  -1.090  0.00  0.00    +0.028 A 
ATOM      5  C   UNL     1      -0.475   1.776  -1.336  0.00  0.00    +0.047 A 
ATOM      6  C   UNL     1      -0.374   0.833  -0.324  0.00  0.00    +0.120 A 
ATOM      7  C   UNL     1       0.068   1.210   0.935  0.00  0.00    +0.047 A 
ATOM      8  C   UNL     1       0.406   2.526   1.183  0.00  0.00    +0.028 A 
BRANCH   6   9
ATOM      9  O   UNL     1      -0.707  -0.463  -0.568  0.00  0.00    -0.495 OA
ATOM     10  C   UNL     1      -0.579  -1.381   0.520  0.00  0.00    +0.277 C 
ENDBRANCH   6   9
ENDBRANCH   2   3
BRANCH   2  11
ATOM     11  S   UNL     1      -0.470   6.003   0.202  0.00  0.00    +0.075 S 
ATOM     12  O   UNL     1       0.252   7.173  -0.157  0.00  0.00    -0.150 OA
ATOM     13  O   UNL     1      -1.494   5.458  -0.618  0.00  0.00    -0.150 OA
BRANCH  11  18
ATOM     14  C   UNL     1      -2.974   7.108   5.580  0.00  0.00    +0.044 C 
ATOM     15  C   UNL     1      -2.349   6.832   4.237  0.00  0.00    -0.050 A 
ATOM     16  C   UNL     1      -1.166   7.455   3.884  0.00  0.00    +0.005 A 
ATOM     17  C   UNL     1      -0.592   7.202   2.652  0.00  0.00    +0.029 A 
ATOM     18  C   UNL     1      -1.201   6.326   1.773  0.00  0.00    +0.109 A 
ATOM     19  C   UNL     1      -2.386   5.707   2.124  0.00  0.00    +0.029 A 
ATOM     20  C   UNL     1      -2.957   5.956   3.357  0.00  0.00    +0.005 A 
ENDBRANCH  11  18
ENDBRANCH   2  11
ENDBRANCH   1   2
BRANCH   1  21
ATOM     21  C   UNL     1       2.939   5.226  -0.330  0.00  0.00    +0.117 C 
BRANCH  21  22
ATOM     22  O   UNL     1       3.067   3.935  -0.929  0.00  0.00    -0.392 OA
ATOM     23  H   UNL     1       3.292   3.232  -0.305  0.00  0.00    +0.210 HD
ENDBRANCH  21  22
BRANCH  21  24
ATOM     24  C   UNL     1       4.316   5.714   0.128  0.00  0.00    -0.045 C 
BRANCH  24  25
ATOM     25  N   UNL     1       5.149   5.964  -1.067  0.00  0.00    +0.387 N 
ATOM     26  H   UNL     1       4.560   6.363  -1.807  0.00  0.00    -0.081 HD
BRANCH  25  27
ATOM     27  C   UNL     1       6.225   6.924  -0.740  0.00  0.00    -0.042 C 
BRANCH  27  28
ATOM     28  C   UNL     1       6.793   7.470  -2.025  0.00  0.00    -0.064 A 
ATOM     29  C   UNL     1       7.797   6.784  -2.682  0.00  0.00    +0.002 A 
ATOM     30  C   UNL     1       8.315   7.281  -3.864  0.00  0.00    +0.000 A 
ATOM     31  C   UNL     1       7.836   8.470  -4.381  0.00  0.00    +0.000 A 
ATOM     32  C   UNL     1       6.836   9.159  -3.721  0.00  0.00    +0.000 A 
ATOM     33  C   UNL     1       6.314   8.658  -2.542  0.00  0.00    +0.002 A 
ENDBRANCH  27  28
ENDBRANCH  25  27
BRANCH  25  34
ATOM     34  C   UNL     1       5.734   4.696  -1.550  0.00  0.00    -0.042 C 
BRANCH  34  35
ATOM     35  C   UNL     1       6.479   4.000  -0.439  0.00  0.00    -0.064 A 
ATOM     36  C   UNL     1       7.780   4.363  -0.147  0.00  0.00    +0.002 A 
ATOM     37  C   UNL     1       8.461   3.729   0.875  0.00  0.00    +0.000 A 
ATOM     38  C   UNL     1       7.844   2.725   1.598  0.00  0.00    +0.000 A 
ATOM     39  C   UNL     1       6.545   2.359   1.302  0.00  0.00    +0.000 A 
ATOM     40  C   UNL     1       5.862   2.997   0.284  0.00  0.00    +0.002 A 
ENDBRANCH  34  35
ENDBRANCH  25  34
ENDBRANCH  24  25
ENDBRANCH  21  24
ENDBRANCH   1  21
TORSDOF 13
