REMARK  Name = ZINC17250192
REMARK  12 active torsions:
REMARK  status: ('A' for Active; 'I' for Inactive)
REMARK    1  A    between atoms: C_1  and  C_2
REMARK    2  A    between atoms: C_2  and  C_3
REMARK    3  A    between atoms: C_3  and  C_5
REMARK    4  A    between atoms: C_5  and  C_6
REMARK    5  A    between atoms: C_5  and  C_28
REMARK    6  A    between atoms: C_5  and  C_34
REMARK    7  A    between atoms: C_6  and  C_7
REMARK    8  A    between atoms: C_7  and  N_76
REMARK    9  A    between atoms: C_10  and  N_13
REMARK   10  A    between atoms: C_20  and  C_24
REMARK   11  A    between atoms: C_24  and  C_25
REMARK   12  A    between atoms: C_25  and  C_26
REMARK                            x       y       z     vdW  Elec       q    Type
REMARK                         _______ _______ _______ _____ _____    ______ ____
ROOT
ATOM      1  C   UNL     1       1.132   1.245  -1.406  0.00  0.00    -0.077 C 
ATOM      2  C   UNL     1       0.225   1.748  -0.280  0.00  0.00    +0.004 C 
ATOM      3  C   UNL     1      -1.214   1.302  -0.552  0.00  0.00    +0.078 C 
ATOM      4  C   UNL     1      -1.657   1.838  -1.916  0.00  0.00    +0.004 C 
ATOM      5  C   UNL     1      -0.696   1.332  -2.995  0.00  0.00    -0.077 C 
ATOM      6  N   UNL     1       0.667   1.815  -2.688  0.00  0.00    +0.380 N 
ATOM      7  H   UNL     1       0.647   2.839  -2.609  0.00  0.00    -0.082 HD
ENDROOT
BRANCH   3   8
ATOM      8  N   UNL     1      -2.095   1.829   0.492  0.00  0.00    -0.268 N 
ATOM      9  C   UNL     1      -2.866   1.029   1.337  0.00  0.00    +0.040 A 
ATOM     10  C   UNL     1      -2.997  -0.357   1.410  0.00  0.00    +0.024 A 
ATOM     11  C   UNL     1      -3.837  -0.925   2.345  0.00  0.00    +0.002 A 
ATOM     12  C   UNL     1      -4.554  -0.126   3.217  0.00  0.00    +0.000 A 
ATOM     13  C   UNL     1      -4.429   1.251   3.151  0.00  0.00    +0.006 A 
ATOM     14  C   UNL     1      -3.592   1.820   2.217  0.00  0.00    -0.014 A 
ATOM     15  C   UNL     1      -3.240   3.253   1.891  0.00  0.00    +0.108 C 
ATOM     16  C   UNL     1      -2.250   3.138   0.751  0.00  0.00    +0.228 C 
ATOM     17  O   UNL     1      -1.702   4.056   0.178  0.00  0.00    -0.275 OA
BRANCH  15  18
ATOM     18  C   UNL     1      -2.587   3.933   3.096  0.00  0.00    +0.032 C 
BRANCH  18  19
ATOM     19  C   UNL     1      -2.354   5.412   2.784  0.00  0.00    +0.119 C 
BRANCH  19  20
ATOM     20  C   UNL     1      -1.726   6.066   3.943  0.00  0.00    +0.063 C 
ATOM     21  N   UNL     1      -1.241   6.570   4.838  0.00  0.00    -0.197 NA
ENDBRANCH  19  20
ENDBRANCH  18  19
ENDBRANCH  15  18
ENDBRANCH   3   8
BRANCH   6  22
ATOM     22  C   UNL     1       1.593   1.436  -3.775  0.00  0.00    -0.077 C 
BRANCH  22  23
ATOM     23  C   UNL     1       1.218   2.216  -5.037  0.00  0.00    +0.005 C 
BRANCH  23  24
ATOM     24  C   UNL     1       2.247   1.937  -6.133  0.00  0.00    +0.077 C 
BRANCH  24  25
ATOM     25  C   UNL     1       2.168   0.488  -6.541  0.00  0.00    -0.030 A 
ATOM     26  C   UNL     1       2.550  -0.501  -5.654  0.00  0.00    +0.005 A 
ATOM     27  C   UNL     1       2.472  -1.830  -6.026  0.00  0.00    +0.000 A 
ATOM     28  C   UNL     1       2.023  -2.169  -7.289  0.00  0.00    +0.000 A 
ATOM     29  C   UNL     1       1.647  -1.179  -8.178  0.00  0.00    +0.000 A 
ATOM     30  C   UNL     1       1.719   0.149  -7.804  0.00  0.00    +0.005 A 
ENDBRANCH  24  25
BRANCH  24  31
ATOM     31  C   UNL     1       1.959   2.811  -7.327  0.00  0.00    -0.030 A 
ATOM     32  C   UNL     1       0.816   3.588  -7.354  0.00  0.00    +0.005 A 
ATOM     33  C   UNL     1       0.554   4.394  -8.447  0.00  0.00    +0.000 A 
ATOM     34  C   UNL     1       1.430   4.415  -9.516  0.00  0.00    +0.000 A 
ATOM     35  C   UNL     1       2.570   3.633  -9.491  0.00  0.00    +0.000 A 
ATOM     36  C   UNL     1       2.835   2.832  -8.396  0.00  0.00    +0.005 A 
ENDBRANCH  24  31
BRANCH  24  37
ATOM     37  C   UNL     1       3.629   2.238  -5.613  0.00  0.00    +0.148 C 
ATOM     38  O   UNL     1       4.464   1.365  -5.577  0.00  0.00    -0.296 OA
BRANCH  37  40
ATOM     39  C   UNL     1       5.424   3.661  -4.664  0.00  0.00    +0.012 C 
ATOM     40  C   UNL     1       3.970   3.627  -5.138  0.00  0.00    +0.072 C 
ENDBRANCH  37  40
ENDBRANCH  24  37
ENDBRANCH  23  24
ENDBRANCH  22  23
ENDBRANCH   6  22
TORSDOF 11
