REMARK  Name = ZINC06198075
REMARK  8 active torsions:
REMARK  status: ('A' for Active; 'I' for Inactive)
REMARK    1  A    between atoms: C_1  and  C_2
REMARK    2  A    between atoms: C_2  and  C_3
REMARK    3  A    between atoms: C_10  and  C_15
REMARK    4  A    between atoms: C_15  and  C_17
REMARK    5  A    between atoms: C_15  and  N_63
REMARK    6  A    between atoms: N_21  and  C_22
REMARK    7  A    between atoms: C_22  and  C_23
REMARK    8  A    between atoms: C_33  and  C_36
REMARK                            x       y       z     vdW  Elec       q    Type
REMARK                         _______ _______ _______ _____ _____    ______ ____
ROOT
ATOM      1  C   UNL     1      -1.368   4.167   1.755  0.00  0.00    +0.039 C 
ENDROOT
BRANCH   1   9
ATOM      2  C   UNL     1      -4.300   8.841  -1.045  0.00  0.00    -0.047 A 
ATOM      3  C   UNL     1      -4.356   9.676   0.063  0.00  0.00    +0.005 A 
ATOM      4  C   UNL     1      -3.823   9.279   1.270  0.00  0.00    +0.026 A 
ATOM      5  C   UNL     1      -3.225   8.028   1.383  0.00  0.00    +0.049 A 
ATOM      6  C   UNL     1      -3.170   7.185   0.257  0.00  0.00    -0.001 A 
ATOM      7  C   UNL     1      -3.716   7.609  -0.958  0.00  0.00    +0.013 A 
ATOM      8  C   UNL     1      -2.538   5.870   0.386  0.00  0.00    +0.017 A 
ATOM      9  C   UNL     1      -2.026   5.513   1.589  0.00  0.00    +0.011 A 
ATOM     10  C   UNL     1      -2.111   6.394   2.688  0.00  0.00    +0.251 A 
ATOM     11  O   UNL     1      -1.649   6.051   3.763  0.00  0.00    -0.268 OA
ATOM     12  N   UNL     1      -2.685   7.605   2.579  0.00  0.00    -0.322 N 
ATOM     13  H   UNL     1      -2.722   8.207   3.376  0.00  0.00    +0.169 HD
BRANCH   2  15
ATOM     14  C   UNL     1      -6.357   8.878  -2.429  0.00  0.00    +0.009 C 
ATOM     15  C   UNL     1      -4.888   9.298  -2.355  0.00  0.00    +0.032 C 
ENDBRANCH   2  15
ENDBRANCH   1   9
BRANCH   1  22
ATOM     16  C   UNL     1      -1.406   2.115   3.040  0.00  0.00    -0.077 C 
ATOM     17  C   UNL     1      -1.982   1.455   4.295  0.00  0.00    -0.018 C 
ATOM     18  C   UNL     1      -3.502   1.344   4.155  0.00  0.00    -0.001 C 
ATOM     19  C   UNL     1      -4.090   2.740   3.932  0.00  0.00    -0.031 C 
ATOM     20  C   UNL     1      -3.453   3.363   2.687  0.00  0.00    -0.074 C 
ATOM     21  C   UNL     1      -5.603   2.632   3.732  0.00  0.00    +0.005 C 
ATOM     22  N   UNL     1      -1.992   3.465   2.895  0.00  0.00    +0.389 N 
ATOM     23  H   UNL     1      -1.815   3.999   3.754  0.00  0.00    -0.080 HD
ENDBRANCH   1  22
BRANCH   1  24
ATOM     24  C   UNL     1       0.099   4.357   2.045  0.00  0.00    +0.143 A 
ATOM     25  N   UNL     1       0.633   4.691   3.194  0.00  0.00    -0.115 NA
ATOM     26  N   UNL     1       1.909   4.758   3.036  0.00  0.00    -0.023 NA
ATOM     27  N   UNL     1       2.204   4.469   1.816  0.00  0.00    -0.044 NA
ATOM     28  N   UNL     1       1.115   4.213   1.174  0.00  0.00    -0.226 N 
BRANCH  28  29
ATOM     29  C   UNL     1       1.004   3.841  -0.238  0.00  0.00    +0.182 C 
BRANCH  29  30
ATOM     30  C   UNL     1       1.081   2.342  -0.371  0.00  0.00    -0.026 A 
ATOM     31  C   UNL     1      -0.074   1.584  -0.320  0.00  0.00    +0.008 A 
ATOM     32  C   UNL     1      -0.005   0.209  -0.441  0.00  0.00    +0.038 A 
ATOM     33  C   UNL     1       1.222  -0.409  -0.614  0.00  0.00    +0.123 A 
ATOM     34  C   UNL     1       2.378   0.351  -0.665  0.00  0.00    +0.038 A 
ATOM     35  C   UNL     1       2.307   1.726  -0.543  0.00  0.00    +0.008 A 
ATOM     36  F   UNL     1       1.291  -1.753  -0.732  0.00  0.00    -0.205 F 
ENDBRANCH  29  30
ENDBRANCH  28  29
ENDBRANCH   1  24
TORSDOF 6
