REMARK  Name = ZINC36205252
REMARK  12 active torsions:
REMARK  status: ('A' for Active; 'I' for Inactive)
REMARK    1  A    between atoms: C_1  and  C_2
REMARK    2  A    between atoms: C_5  and  C_9
REMARK    3  A    between atoms: C_7  and  C_8
REMARK    4  A    between atoms: C_18  and  C_20
REMARK    5  A    between atoms: C_20  and  N_21
REMARK    6  A    between atoms: N_21  and  C_22
REMARK    7  A    between atoms: N_21  and  C_28
REMARK    8  A    between atoms: C_22  and  C_23
REMARK    9  A    between atoms: C_28  and  C_29
REMARK   10  A    between atoms: C_29  and  C_31
REMARK   11  A    between atoms: C_29  and  O_38
REMARK   12  A    between atoms: C_31  and  C_32
REMARK                            x       y       z     vdW  Elec       q    Type
REMARK                         _______ _______ _______ _____ _____    ______ ____
ROOT
ATOM      1  C   UNL     1      -2.983  -8.104  -2.969  0.00  0.00    -0.003 C 
ENDROOT
BRANCH   1  11
ATOM      2  C   UNL     1       0.851  -5.130   0.021  0.00  0.00    +0.004 A 
ATOM      3  C   UNL     1       1.617  -5.919   0.811  0.00  0.00    +0.056 A 
ATOM      4  S   UNL     1       1.000  -7.558   0.482  0.00  0.00    -0.076 S 
ATOM      5  C   UNL     1      -0.261  -7.150  -0.698  0.00  0.00    +0.116 A 
ATOM      6  C   UNL     1      -0.178  -5.752  -0.804  0.00  0.00    +0.080 A 
ATOM      7  C   UNL     1      -1.107  -5.142  -1.707  0.00  0.00    +0.260 A 
ATOM      8  O   UNL     1      -1.109  -3.934  -1.871  0.00  0.00    -0.267 OA
ATOM      9  N   UNL     1      -1.978  -5.923  -2.372  0.00  0.00    -0.312 N 
ATOM     10  H   UNL     1      -2.610  -5.516  -2.985  0.00  0.00    +0.170 HD
ATOM     11  C   UNL     1      -1.990  -7.270  -2.202  0.00  0.00    +0.094 A 
ATOM     12  N   UNL     1      -1.148  -7.856  -1.394  0.00  0.00    -0.229 NA
BRANCH   2  17
ATOM     13  C   UNL     1       1.622   0.576  -0.061  0.00  0.00    +0.044 C 
ATOM     14  C   UNL     1       1.420  -0.917  -0.040  0.00  0.00    -0.048 A 
ATOM     15  C   UNL     1       1.363  -1.622  -1.229  0.00  0.00    +0.004 A 
ATOM     16  C   UNL     1       1.178  -2.990  -1.216  0.00  0.00    +0.009 A 
ATOM     17  C   UNL     1       1.050  -3.661  -0.000  0.00  0.00    -0.016 A 
ATOM     18  C   UNL     1       1.109  -2.946   1.195  0.00  0.00    +0.012 A 
ATOM     19  C   UNL     1       1.299  -1.579   1.169  0.00  0.00    -0.047 A 
ATOM     20  C   UNL     1       1.370  -0.805   2.460  0.00  0.00    +0.044 C 
ENDBRANCH   2  17
ENDBRANCH   1  11
BRANCH   1  21
ATOM     21  N   UNL     1      -2.805  -9.521  -2.622  0.00  0.00    +0.391 N 
ATOM     22  H   UNL     1      -1.838  -9.779  -2.749  0.00  0.00    -0.080 HD
BRANCH  21  23
ATOM     23  C   UNL     1      -3.188  -9.733  -1.220  0.00  0.00    -0.002 C 
BRANCH  23  24
ATOM     24  C   UNL     1      -2.918 -11.166  -0.837  0.00  0.00    +0.089 A 
ATOM     25  C   UNL     1      -1.740 -11.658  -0.414  0.00  0.00    +0.042 A 
ATOM     26  C   UNL     1      -1.937 -13.036  -0.168  0.00  0.00    +0.041 A 
ATOM     27  C   UNL     1      -3.223 -13.304  -0.456  0.00  0.00    +0.195 A 
ATOM     28  O   UNL     1      -3.814 -12.166  -0.855  0.00  0.00    -0.470 OA
ENDBRANCH  23  24
ENDBRANCH  21  23
BRANCH  21  29
ATOM     29  C   UNL     1      -3.651 -10.349  -3.492  0.00  0.00    -0.046 C 
BRANCH  29  30
ATOM     30  C   UNL     1      -3.123 -10.286  -4.926  0.00  0.00    +0.102 C 
BRANCH  30  31
ATOM     31  O   UNL     1      -3.372  -8.988  -5.469  0.00  0.00    -0.393 OA
ATOM     32  H   UNL     1      -4.308  -8.747  -5.499  0.00  0.00    +0.210 HD
ENDBRANCH  30  31
BRANCH  30  33
ATOM     33  C   UNL     1      -3.834 -11.340  -5.778  0.00  0.00    +0.064 C 
BRANCH  33  34
ATOM     34  C   UNL     1      -3.229 -11.362  -7.158  0.00  0.00    -0.045 A 
ATOM     35  C   UNL     1      -3.738 -10.544  -8.149  0.00  0.00    +0.004 A 
ATOM     36  C   UNL     1      -3.183 -10.565  -9.415  0.00  0.00    +0.000 A 
ATOM     37  C   UNL     1      -2.119 -11.403  -9.690  0.00  0.00    +0.000 A 
ATOM     38  C   UNL     1      -1.609 -12.220  -8.698  0.00  0.00    +0.000 A 
ATOM     39  C   UNL     1      -2.161 -12.196  -7.431  0.00  0.00    +0.004 A 
ENDBRANCH  33  34
ENDBRANCH  30  33
ENDBRANCH  29  30
ENDBRANCH  21  29
ENDBRANCH   1  21
TORSDOF 10
