REMARK  Name = ZINC33937225
REMARK  11 active torsions:
REMARK  status: ('A' for Active; 'I' for Inactive)
REMARK    1  A    between atoms: C_1  and  C_2
REMARK    2  A    between atoms: C_7  and  C_14
REMARK    3  A    between atoms: C_14  and  N_15
REMARK    4  A    between atoms: N_15  and  C_16
REMARK    5  A    between atoms: N_15  and  C_23
REMARK    6  A    between atoms: C_16  and  C_17
REMARK    7  A    between atoms: C_23  and  C_25
REMARK    8  A    between atoms: C_23  and  C_36
REMARK    9  A    between atoms: N_29  and  C_30
REMARK   10  A    between atoms: C_36  and  C_37
REMARK   11  A    between atoms: C_36  and  C_38
REMARK                            x       y       z     vdW  Elec       q    Type
REMARK                         _______ _______ _______ _____ _____    ______ ____
ROOT
ATOM      1  N   UNL     1       2.029  -6.899   1.147  0.00  0.00    +0.391 N 
ATOM      2  H   UNL     1       2.561  -6.349   1.805  0.00  0.00    -0.080 HD
ENDROOT
BRANCH   1   3
ATOM      3  C   UNL     1       0.656  -6.380   1.072  0.00  0.00    -0.036 C 
BRANCH   3  10
ATOM      4  C   UNL     1      -1.843  -4.293   8.353  0.00  0.00    +0.044 C 
ATOM      5  C   UNL     1      -1.298  -4.466   6.959  0.00  0.00    -0.048 A 
ATOM      6  C   UNL     1      -0.703  -3.389   6.315  0.00  0.00    +0.004 A 
ATOM      7  C   UNL     1      -0.202  -3.525   5.052  0.00  0.00    +0.010 A 
ATOM      8  C   UNL     1      -0.289  -4.760   4.400  0.00  0.00    -0.001 A 
ATOM      9  C   UNL     1       0.238  -4.941   3.046  0.00  0.00    +0.017 A 
ATOM     10  C   UNL     1       0.125  -6.160   2.465  0.00  0.00    +0.001 A 
ATOM     11  C   UNL     1      -0.488  -7.225   3.159  0.00  0.00    +0.251 A 
ATOM     12  O   UNL     1      -0.579  -8.313   2.618  0.00  0.00    -0.268 OA
ATOM     13  N   UNL     1      -0.975  -7.069   4.403  0.00  0.00    -0.322 N 
ATOM     14  H   UNL     1      -1.390  -7.821   4.852  0.00  0.00    +0.169 HD
ATOM     15  C   UNL     1      -0.892  -5.854   5.049  0.00  0.00    +0.049 A 
ATOM     16  C   UNL     1      -1.390  -5.693   6.338  0.00  0.00    +0.029 A 
ENDBRANCH   3  10
ENDBRANCH   1   3
BRANCH   1  17
ATOM     17  C   UNL     1       2.656  -6.820  -0.179  0.00  0.00    -0.045 C 
BRANCH  17  18
ATOM     18  C   UNL     1       3.023  -5.366  -0.482  0.00  0.00    +0.102 C 
ATOM     19  C   UNL     1       3.763  -5.270  -1.841  0.00  0.00    +0.032 C 
ATOM     20  C   UNL     1       3.457  -3.801  -2.240  0.00  0.00    +0.030 C 
ATOM     21  C   UNL     1       2.036  -3.596  -1.672  0.00  0.00    +0.160 C 
ATOM     22  O   UNL     1       1.835  -4.575  -0.644  0.00  0.00    -0.378 OA
ENDBRANCH  17  18
ENDBRANCH   1  17
BRANCH   1  23
ATOM     23  C   UNL     1       1.999  -8.299   1.591  0.00  0.00    +0.006 C 
BRANCH  23  24
ATOM     24  C   UNL     1       1.331  -9.146   0.539  0.00  0.00    +0.139 A 
ATOM     25  N   UNL     1       1.364  -8.954  -0.757  0.00  0.00    -0.115 NA
ATOM     26  N   UNL     1       0.674  -9.888  -1.316  0.00  0.00    -0.023 NA
ATOM     27  N   UNL     1       0.201 -10.671  -0.409  0.00  0.00    -0.044 NA
ATOM     28  N   UNL     1       0.588 -10.249   0.747  0.00  0.00    -0.228 N 
BRANCH  28  29
ATOM     29  C   UNL     1       0.276 -10.856   2.043  0.00  0.00    +0.111 C 
ATOM     30  C   UNL     1       0.951 -12.226   2.141  0.00  0.00    +0.027 C 
ATOM     31  C   UNL     1       0.625 -12.860   3.495  0.00  0.00    +0.002 C 
ATOM     32  C   UNL     1      -0.890 -13.027   3.628  0.00  0.00    +0.000 C 
ATOM     33  C   UNL     1      -1.565 -11.657   3.530  0.00  0.00    +0.002 C 
ATOM     34  C   UNL     1      -1.239 -11.023   2.177  0.00  0.00    +0.027 C 
ENDBRANCH  28  29
ENDBRANCH  23  24
BRANCH  23  35
ATOM     35  C   UNL     1       3.429  -8.795   1.812  0.00  0.00    -0.024 C 
ATOM     36  C   UNL     1       4.071  -8.008   2.957  0.00  0.00    +0.006 C 
ATOM     37  C   UNL     1       3.404 -10.283   2.168  0.00  0.00    +0.006 C 
ENDBRANCH  23  35
ENDBRANCH   1  23
TORSDOF 8
