REMARK  Name = ZINC39323805
REMARK  5 active torsions:
REMARK  status: ('A' for Active; 'I' for Inactive)
REMARK    1  A    between atoms: C_1  and  C_2
REMARK    2  A    between atoms: C_10  and  N_29
REMARK    3  A    between atoms: C_11  and  C_15
REMARK    4  A    between atoms: N_17  and  C_18
REMARK    5  A    between atoms: C_19  and  C_27
REMARK                            x       y       z     vdW  Elec       q    Type
REMARK                         _______ _______ _______ _____ _____    ______ ____
ROOT
ATOM      1  C   UNL     1      -0.019   1.526   0.010  0.00  0.00    +0.008 C 
ATOM      2  C   UNL     1       0.002  -0.004   0.002  0.00  0.00    -0.009 C 
ATOM      3  C   UNL     1      -1.434  -0.540   0.025  0.00  0.00    +0.010 C 
ATOM      4  C   UNL     1      -1.391  -2.045  -0.230  0.00  0.00    +0.056 C 
ATOM      5  C   UNL     1      -0.411  -2.712   0.701  0.00  0.00    +0.046 A 
ATOM      6  C   UNL     1       0.571  -2.009   1.374  0.00  0.00    -0.025 A 
ATOM      7  C   UNL     1       1.449  -2.674   2.208  0.00  0.00    +0.017 A 
ATOM      8  C   UNL     1       1.332  -4.074   2.373  0.00  0.00    +0.029 A 
ATOM      9  C   UNL     1       2.136  -4.968   3.192  0.00  0.00    +0.053 A 
ATOM     10  C   UNL     1       1.826  -6.310   3.192  0.00  0.00    +0.097 A 
ATOM     11  S   UNL     1       0.435  -6.413   2.083  0.00  0.00    -0.062 S 
ATOM     12  C   UNL     1       0.293  -4.698   1.645  0.00  0.00    +0.111 A 
ATOM     13  N   UNL     1      -0.515  -4.024   0.862  0.00  0.00    -0.244 NA
ATOM     14  C   UNL     1       0.729  -0.515   1.244  0.00  0.00    +0.040 C 
ENDROOT
BRANCH  10  15
ATOM     15  C   UNL     1       2.462  -7.358   3.902  0.00  0.00    +0.257 C 
ATOM     16  O   UNL     1       3.411  -7.115   4.626  0.00  0.00    -0.269 OA
ATOM     17  N   UNL     1       2.016  -8.624   3.778  0.00  0.00    -0.274 N 
ATOM     18  H   UNL     1       1.260  -8.818   3.202  0.00  0.00    +0.156 HD
BRANCH  17  19
ATOM     19  C   UNL     1       2.639  -9.649   4.474  0.00  0.00    +0.090 A 
ATOM     20  C   UNL     1       2.324 -10.999   4.464  0.00  0.00    +0.084 A 
ATOM     21  C   UNL     1       3.136 -11.876   5.288  0.00  0.00    -0.018 A 
ATOM     22  C   UNL     1       4.115 -11.243   5.971  0.00  0.00    -0.004 A 
ATOM     23  S   UNL     1       3.951  -9.542   5.516  0.00  0.00    -0.077 S 
ATOM     24  C   UNL     1       5.110 -11.866   6.901  0.00  0.00    +0.043 C 
ATOM     25  C   UNL     1       4.620 -13.277   7.257  0.00  0.00    +0.005 C 
ATOM     26  C   UNL     1       4.217 -14.001   5.970  0.00  0.00    +0.005 C 
ATOM     27  C   UNL     1       2.939 -13.381   5.401  0.00  0.00    +0.037 C 
BRANCH  20  28
ATOM     28  C   UNL     1       1.242 -11.507   3.675  0.00  0.00    +0.102 C 
ATOM     29  N   UNL     1       0.385 -11.909   3.049  0.00  0.00    -0.191 NA
ENDBRANCH  20  28
ENDBRANCH  17  19
ENDBRANCH  10  15
BRANCH   9  30
ATOM     30  N   UNL     1       3.189  -4.480   3.954  0.00  0.00    -0.356 N 
ATOM     31  H   UNL     1       3.396  -3.533   3.944  0.00  0.00    +0.142 HD
ATOM     32  H   UNL     1       3.717  -5.087   4.495  0.00  0.00    +0.142 HD
ENDBRANCH   9  30
TORSDOF 4
