REMARK  Name = ZINC22014050
REMARK  12 active torsions:
REMARK  status: ('A' for Active; 'I' for Inactive)
REMARK    1  A    between atoms: C_1  and  C_2
REMARK    2  A    between atoms: C_2  and  O_3
REMARK    3  A    between atoms: O_3  and  C_4
REMARK    4  A    between atoms: C_4  and  C_6
REMARK    5  A    between atoms: C_7  and  C_26
REMARK    6  A    between atoms: C_10  and  N_11
REMARK    7  A    between atoms: C_12  and  C_14
REMARK    8  A    between atoms: C_14  and  N_15
REMARK    9  A    between atoms: C_19  and  C_21
REMARK   10  A    between atoms: N_23  and  C_24
REMARK   11  A    between atoms: N_23  and  C_25
REMARK   12  A    between atoms: C_29  and  C_32
REMARK                            x       y       z     vdW  Elec       q    Type
REMARK                         _______ _______ _______ _____ _____    ______ ____
ROOT
ATOM      1  C   UNL     1       1.232   1.963   0.001  0.00  0.00    +0.095 A 
ATOM      2  C   UNL     1       1.893   2.350   1.233  0.00  0.00    +0.005 A 
ATOM      3  C   UNL     1       3.057   3.037   1.110  0.00  0.00    +0.056 A 
ATOM      4  S   UNL     1       3.266   3.180  -0.652  0.00  0.00    -0.080 S 
ATOM      5  C   UNL     1       1.847   2.342  -1.185  0.00  0.00    +0.086 A 
ENDROOT
BRANCH   2   6
ATOM      6  C   UNL     1       1.328   2.007   2.559  0.00  0.00    -0.017 A 
ATOM      7  C   UNL     1      -0.006   2.291   2.847  0.00  0.00    +0.009 A 
ATOM      8  C   UNL     1      -0.528   1.966   4.082  0.00  0.00    +0.004 A 
ATOM      9  C   UNL     1       0.274   1.368   5.038  0.00  0.00    -0.050 A 
ATOM     10  C   UNL     1       1.600   1.089   4.761  0.00  0.00    +0.004 A 
ATOM     11  C   UNL     1       2.131   1.405   3.527  0.00  0.00    +0.009 A 
ATOM     12  C   UNL     1      -0.300   1.019   6.387  0.00  0.00    +0.044 C 
ENDBRANCH   2   6
BRANCH   5  13
ATOM     13  N   UNL     1       1.427   2.106  -2.484  0.00  0.00    -0.281 N 
ATOM     14  C   UNL     1       2.161   2.553  -3.522  0.00  0.00    +0.201 C 
ATOM     15  O   UNL     1       3.190   3.162  -3.318  0.00  0.00    -0.278 OA
ATOM     16  H   UNL     1       0.494   1.553  -2.668  0.00  0.00    +0.155 HD
BRANCH  14  17
ATOM     17  C   UNL     1       1.704   2.296  -4.934  0.00  0.00    +0.020 C 
BRANCH  17  18
ATOM     18  N   UNL     1       2.669   2.880  -5.875  0.00  0.00    +0.393 N 
ATOM     19  C   UNL     1       3.939   2.131  -5.862  0.00  0.00    -0.077 C 
ATOM     20  C   UNL     1       4.210   1.664  -7.308  0.00  0.00    -0.020 C 
ATOM     21  C   UNL     1       3.373   2.657  -8.158  0.00  0.00    -0.008 C 
ATOM     22  C   UNL     1       2.134   2.876  -7.254  0.00  0.00    +0.020 C 
ATOM     23  H   UNL     1       2.847   3.915  -5.547  0.00  0.00    -0.080 HD
BRANCH  22  24
ATOM     24  C   UNL     1       1.483   4.198  -7.568  0.00  0.00    +0.202 C 
ATOM     25  O   UNL     1       1.688   5.159  -6.857  0.00  0.00    -0.277 OA
ATOM     26  N   UNL     1       0.673   4.312  -8.639  0.00  0.00    -0.309 N 
ATOM     27  C   UNL     1       0.125   5.620  -9.007  0.00  0.00    +0.131 C 
ATOM     28  C   UNL     1       0.339   3.128  -9.434  0.00  0.00    +0.131 C 
ENDBRANCH  22  24
ENDBRANCH  17  18
ENDBRANCH  14  17
ENDBRANCH   5  13
BRANCH   1  29
ATOM     29  C   UNL     1      -0.026   1.215   0.008  0.00  0.00    +0.342 C 
ATOM     30  O   UNL     1      -0.010  -0.001   0.001  0.00  0.00    -0.245 OA
BRANCH  29  31
ATOM     31  O   UNL     1      -1.203   1.875   0.015  0.00  0.00    -0.461 OA
BRANCH  31  33
ATOM     32  C   UNL     1      -3.635   1.985   0.024  0.00  0.00    +0.048 C 
ATOM     33  C   UNL     1      -2.410   1.069   0.015  0.00  0.00    +0.229 C 
ENDBRANCH  31  33
ENDBRANCH  29  31
ENDBRANCH   1  29
TORSDOF 8
