REMARK  Name = ZINC52095159
REMARK  4 active torsions:
REMARK  status: ('A' for Active; 'I' for Inactive)
REMARK    1  A    between atoms: C_1  and  C_2
REMARK    2  A    between atoms: C_4  and  C_8
REMARK    3  A    between atoms: C_5  and  C_7
REMARK    4  A    between atoms: C_8  and  C_10
REMARK                            x       y       z     vdW  Elec       q    Type
REMARK                         _______ _______ _______ _____ _____    ______ ____
ROOT
ATOM      1  C   UNL     1      -1.748  -3.816  -1.370  0.00  0.00    -0.013 A 
ATOM      2  C   UNL     1      -0.953  -4.765  -1.983  0.00  0.00    +0.034 A 
ATOM      3  C   UNL     1      -1.230  -5.163  -3.282  0.00  0.00    +0.067 A 
ATOM      4  C   UNL     1      -2.311  -4.603  -3.966  0.00  0.00    +0.068 A 
ATOM      5  C   UNL     1      -3.104  -3.651  -3.343  0.00  0.00    +0.043 A 
ATOM      6  C   UNL     1      -2.823  -3.264  -2.046  0.00  0.00    +0.025 A 
ATOM      7 BR   UNL     1      -3.909  -1.972  -1.193  0.00  0.00    -0.050 Br
ATOM      8  N   UNL     1      -2.337  -5.190  -5.228  0.00  0.00    -0.306 N 
ATOM      9  H   UNL     1      -2.979  -5.000  -5.930  0.00  0.00    +0.170 HD
ATOM     10  C   UNL     1      -1.319  -6.067  -5.309  0.00  0.00    +0.325 A 
ATOM     11  O   UNL     1      -1.058  -6.750  -6.282  0.00  0.00    -0.247 OA
ATOM     12  N   UNL     1      -0.633  -6.074  -4.151  0.00  0.00    -0.306 N 
ATOM     13  H   UNL     1       0.145  -6.619  -3.955  0.00  0.00    +0.170 HD
ENDROOT
BRANCH   1  14
ATOM     14  C   UNL     1      -1.447  -3.383   0.041  0.00  0.00    +0.121 C 
ATOM     15 BR   UNL     1      -0.467  -4.813   0.970  0.00  0.00    -0.078 Br
BRANCH  14  19
ATOM     16  C   UNL     1       1.798   0.259  -1.429  0.00  0.00    +0.086 C 
ATOM     17  C   UNL     1       0.808  -0.556  -0.637  0.00  0.00    +0.102 A 
ATOM     18  C   UNL     1       0.260  -1.722  -1.025  0.00  0.00    +0.049 A 
ATOM     19  C   UNL     1      -0.605  -2.133   0.015  0.00  0.00    +0.011 A 
ATOM     20  C   UNL     1      -0.533  -1.195   0.976  0.00  0.00    +0.107 A 
ATOM     21  O   UNL     1       0.329  -0.245   0.579  0.00  0.00    -0.465 OA
ATOM     22  C   UNL     1      -1.288  -1.210   2.281  0.00  0.00    +0.086 C 
ENDBRANCH  14  19
ENDBRANCH   1  14
TORSDOF 2
