REMARK  Name = ZINC44786676
REMARK  1 active torsions:
REMARK  status: ('A' for Active; 'I' for Inactive)
REMARK    1  A    between atoms: C_8  and  C_20
REMARK                            x       y       z     vdW  Elec       q    Type
REMARK                         _______ _______ _______ _____ _____    ______ ____
ROOT
ATOM      1  C   UNL     1      -0.018   1.492   0.010  0.00  0.00    +0.156 C 
ATOM      2  C   UNL     1       1.442   1.821  -0.002  0.00  0.00    +0.116 C 
ATOM      3  C   UNL     1       2.127   1.512   1.317  0.00  0.00    +0.008 C 
ATOM      4  C   UNL     1       3.395   1.861   1.154  0.00  0.00    +0.004 C 
ATOM      5  C   UNL     1       3.494   2.330  -0.303  0.00  0.00    +0.157 C 
ATOM      6  O   UNL     1       2.147   2.931  -0.507  0.00  0.00    -0.359 OA
ATOM      7  C   UNL     1       3.396   0.970  -1.097  0.00  0.00    +0.150 C 
ATOM      8  C   UNL     1       1.885   0.739  -1.067  0.00  0.00    +0.129 C 
ATOM      9  C   UNL     1       1.183  -0.447  -0.544  0.00  0.00    +0.229 C 
ATOM     10  O   UNL     1       1.573  -1.594  -0.587  0.00  0.00    -0.275 OA
ATOM     11  N   UNL     1       0.002  -0.004   0.002  0.00  0.00    -0.234 N 
ATOM     12  C   UNL     1      -1.016  -0.820   0.473  0.00  0.00    +0.266 A 
ATOM     13  N   UNL     1      -2.173  -0.424   1.001  0.00  0.00    -0.090 NA
ATOM     14  N   UNL     1      -2.839  -1.483   1.311  0.00  0.00    -0.020 NA
ATOM     15  N   UNL     1      -2.149  -2.524   1.000  0.00  0.00    -0.020 NA
ATOM     16  N   UNL     1      -1.030  -2.151   0.481  0.00  0.00    -0.090 NA
ENDROOT
BRANCH   7  17
ATOM     17  C   UNL     1       4.145  -0.127  -0.386  0.00  0.00    +0.363 C 
ATOM     18  O   UNL     1       4.742   0.114   0.650  0.00  0.00    -0.246 OA
ATOM     19  O   UNL     1       4.154  -1.256  -0.845  0.00  0.00    -0.246 OA
ENDBRANCH   7  17
TORSDOF 1
