REMARK  Name = ZINC09762210
REMARK  9 active torsions:
REMARK  status: ('A' for Active; 'I' for Inactive)
REMARK    1  A    between atoms: C_1  and  C_2
REMARK    2  A    between atoms: C_15  and  C_17
REMARK    3  A    between atoms: C_19  and  O_34
REMARK    4  A    between atoms: C_20  and  O_24
REMARK    5  A    between atoms: O_24  and  C_25
REMARK    6  A    between atoms: C_25  and  C_26
REMARK    7  A    between atoms: C_26  and  S_27
REMARK    8  A    between atoms: S_27  and  C_28
REMARK    9  A    between atoms: O_34  and  C_35
REMARK                            x       y       z     vdW  Elec       q    Type
REMARK                         _______ _______ _______ _____ _____    ______ ____
ROOT
ATOM      1  C   UNL     1      -1.588   2.174   6.104  0.00  0.00    +0.022 A 
ATOM      2  C   UNL     1      -0.641   2.992   5.482  0.00  0.00    +0.061 A 
ATOM      3  C   UNL     1      -0.120   2.630   4.254  0.00  0.00    +0.164 A 
ATOM      4  C   UNL     1      -0.547   1.458   3.634  0.00  0.00    +0.180 A 
ATOM      5  C   UNL     1      -1.489   0.645   4.252  0.00  0.00    +0.087 A 
ATOM      6  C   UNL     1      -2.009   0.998   5.480  0.00  0.00    +0.035 A 
ATOM      7 CL   UNL     1      -2.013  -0.818   3.477  0.00  0.00    -0.080 Cl
ENDROOT
BRANCH   1  21
ATOM      8  C   UNL     1      -4.629   5.562  14.971  0.00  0.00    +0.008 C 
ATOM      9  C   UNL     1      -4.061   4.758  13.799  0.00  0.00    -0.009 C 
ATOM     10  C   UNL     1      -5.205   4.074  13.044  0.00  0.00    +0.008 C 
ATOM     11  C   UNL     1      -4.637   3.077  12.032  0.00  0.00    +0.037 C 
ATOM     12  C   UNL     1      -3.608   3.792  11.161  0.00  0.00    -0.023 A 
ATOM     13  C   UNL     1      -3.056   4.957  11.562  0.00  0.00    -0.004 A 
ATOM     14  S   UNL     1      -1.942   5.410  10.260  0.00  0.00    -0.073 S 
ATOM     15  C   UNL     1      -2.220   4.030   9.180  0.00  0.00    +0.116 A 
ATOM     16  C   UNL     1      -3.174   3.262   9.870  0.00  0.00    +0.075 A 
ATOM     17  C   UNL     1      -3.596   2.058   9.217  0.00  0.00    +0.260 A 
ATOM     18  O   UNL     1      -4.421   1.328   9.739  0.00  0.00    -0.267 OA
ATOM     19  N   UNL     1      -3.069   1.745   8.019  0.00  0.00    -0.306 N 
ATOM     20  H   UNL     1      -3.352   0.932   7.572  0.00  0.00    +0.170 HD
ATOM     21  C   UNL     1      -2.143   2.553   7.419  0.00  0.00    +0.142 A 
ATOM     22  N   UNL     1      -1.735   3.662   8.001  0.00  0.00    -0.222 NA
ATOM     23  C   UNL     1      -3.330   5.702  12.833  0.00  0.00    +0.046 C 
ENDBRANCH   1  21
BRANCH   3  24
ATOM     24  O   UNL     1       0.806   3.421   3.649  0.00  0.00    -0.491 OA
ATOM     25  C   UNL     1       1.198   4.607   4.342  0.00  0.00    +0.277 C 
ENDBRANCH   3  24
BRANCH   4  26
ATOM     26  O   UNL     1      -0.038   1.106   2.425  0.00  0.00    -0.486 OA
BRANCH  26  27
ATOM     27  C   UNL     1      -0.729   1.579   1.267  0.00  0.00    +0.240 C 
BRANCH  27  28
ATOM     28  C   UNL     1      -0.013   1.086   0.008  0.00  0.00    +0.115 C 
BRANCH  28  29
ATOM     29  S   UNL     1      -0.890   1.687  -1.462  0.00  0.00    -0.122 S 
BRANCH  29  30
ATOM     30  C   UNL     1       0.045   1.043  -2.809  0.00  0.00    +0.008 A 
ATOM     31  C   UNL     1       1.176   0.273  -2.567  0.00  0.00    +0.015 A 
ATOM     32  C   UNL     1       1.903  -0.235  -3.626  0.00  0.00    +0.001 A 
ATOM     33  C   UNL     1       1.513   0.031  -4.926  0.00  0.00    +0.000 A 
ATOM     34  C   UNL     1       0.391   0.802  -5.170  0.00  0.00    +0.001 A 
ATOM     35  C   UNL     1      -0.344   1.308  -4.117  0.00  0.00    +0.015 A 
ENDBRANCH  29  30
ENDBRANCH  28  29
ENDBRANCH  27  28
ENDBRANCH  26  27
ENDBRANCH   4  26
TORSDOF 7
