REMARK  Name = ZINC65183095
REMARK  8 active torsions:
REMARK  status: ('A' for Active; 'I' for Inactive)
REMARK    1  A    between atoms: C_1  and  N_2
REMARK    2  A    between atoms: N_2  and  C_3
REMARK    3  A    between atoms: C_3  and  C_4
REMARK    4  A    between atoms: C_4  and  C_5
REMARK    5  A    between atoms: C_8  and  C_11
REMARK    6  A    between atoms: C_22  and  C_24
REMARK    7  A    between atoms: C_24  and  O_25
REMARK    8  A    between atoms: O_25  and  C_26
REMARK                            x       y       z     vdW  Elec       q    Type
REMARK                         _______ _______ _______ _____ _____    ______ ____
ROOT
ATOM      1  C   UNL     1      -1.388  -1.781   3.021  0.00  0.00    +0.139 C 
ATOM      2  N   UNL     1      -0.316  -2.126   3.637  0.00  0.00    -0.072 NA
ATOM      3  O   UNL     1      -0.619  -2.826   4.830  0.00  0.00    -0.367 OA
ATOM      4  C   UNL     1      -2.052  -2.891   4.907  0.00  0.00    +0.318 C 
ATOM      5  N   UNL     1      -2.513  -2.187   3.700  0.00  0.00    -0.291 N 
ATOM      6  H   UNL     1      -3.434  -2.038   3.434  0.00  0.00    +0.151 HD
ENDROOT
BRANCH   4   7
ATOM      7  C   UNL     1      -2.522  -4.347   4.898  0.00  0.00    +0.165 C 
ATOM      8  C   UNL     1      -1.996  -5.058   3.671  0.00  0.00    +0.012 C 
ATOM      9  C   UNL     1      -1.224  -6.070   4.127  0.00  0.00    -0.002 A 
ATOM     10  C   UNL     1      -0.443  -7.109   3.446  0.00  0.00    +0.029 A 
ATOM     11  C   UNL     1       0.246  -8.006   4.189  0.00  0.00    +0.042 A 
ATOM     12  C   UNL     1       0.231  -7.967   5.591  0.00  0.00    +0.022 A 
ATOM     13  C   UNL     1      -0.463  -7.043   6.288  0.00  0.00    +0.027 A 
ATOM     14  C   UNL     1      -1.222  -6.051   5.608  0.00  0.00    +0.043 A 
ATOM     15  N   UNL     1      -1.967  -5.065   6.051  0.00  0.00    -0.373 N 
ATOM     16 CL   UNL     1       1.170  -9.237   3.387  0.00  0.00    -0.084 Cl
ATOM     17  H   UNL     1      -2.123  -4.847   6.983  0.00  0.00    +0.160 HD
ENDBRANCH   4   7
BRANCH   1  18
ATOM     18  C   UNL     1      -1.411  -1.020   1.720  0.00  0.00    +0.094 C 
BRANCH  18  19
ATOM     19  C   UNL     1       0.024  -0.743   1.267  0.00  0.00    +0.115 C 
BRANCH  19  21
ATOM     20  C   UNL     1      -0.018   1.461   0.010  0.00  0.00    +0.132 C 
ATOM     21  N   UNL     1       0.002  -0.004   0.002  0.00  0.00    -0.301 N 
ATOM     22  C   UNL     1       0.000  -0.672  -1.169  0.00  0.00    +0.253 C 
ATOM     23  O   UNL     1       0.017  -1.884  -1.175  0.00  0.00    -0.272 OA
BRANCH  22  24
ATOM     24  C   UNL     1      -0.023   0.089  -2.470  0.00  0.00    +0.324 C 
BRANCH  24  25
ATOM     25  O   UNL     1      -0.020  -0.834  -3.561  0.00  0.00    -0.483 OA
BRANCH  25  26
ATOM     26  C   UNL     1      -0.039  -0.308  -4.814  0.00  0.00    +0.121 A 
ATOM     27  C   UNL     1      -0.054   1.068  -4.989  0.00  0.00    +0.045 A 
ATOM     28  C   UNL     1      -0.073   1.601  -6.264  0.00  0.00    +0.004 A 
ATOM     29  C   UNL     1      -0.078   0.763  -7.364  0.00  0.00    +0.000 A 
ATOM     30  C   UNL     1      -0.064  -0.609  -7.192  0.00  0.00    +0.004 A 
ATOM     31  C   UNL     1      -0.038  -1.146  -5.919  0.00  0.00    +0.045 A 
ENDBRANCH  25  26
ENDBRANCH  24  25
ENDBRANCH  22  24
ENDBRANCH  19  21
ENDBRANCH  18  19
ENDBRANCH   1  18
TORSDOF 7
