REMARK  Name = ZINC22401984
REMARK  14 active torsions:
REMARK  status: ('A' for Active; 'I' for Inactive)
REMARK    1  A    between atoms: C_1  and  O_2
REMARK    2  A    between atoms: O_2  and  C_3
REMARK    3  A    between atoms: C_6  and  S_11
REMARK    4  A    between atoms: C_8  and  O_9
REMARK    5  A    between atoms: O_9  and  C_10
REMARK    6  A    between atoms: S_11  and  N_14
REMARK    7  A    between atoms: N_14  and  C_15
REMARK    8  A    between atoms: N_14  and  C_29
REMARK    9  A    between atoms: C_15  and  C_16
REMARK   10  A    between atoms: N_18  and  C_19
REMARK   11  A    between atoms: C_19  and  C_20
REMARK   12  A    between atoms: C_20  and  C_21
REMARK   13  A    between atoms: C_21  and  S_22
REMARK   14  A    between atoms: S_22  and  C_23
REMARK                            x       y       z     vdW  Elec       q    Type
REMARK                         _______ _______ _______ _____ _____    ______ ____
ROOT
ATOM      1  N   UNL     1       2.400   1.380  -0.013  0.00  0.00    -0.191 N 
ENDROOT
BRANCH   1   2
ATOM      2  C   UNL     1       1.178   2.060   0.002  0.00  0.00    +0.087 A 
ATOM      3  C   UNL     1       1.154   3.448   0.009  0.00  0.00    +0.027 A 
ATOM      4  C   UNL     1      -0.055   4.117   0.024  0.00  0.00    +0.002 A 
ATOM      5  C   UNL     1      -1.241   3.406   0.031  0.00  0.00    +0.003 A 
ATOM      6  C   UNL     1      -1.222   2.023   0.019  0.00  0.00    +0.040 A 
ATOM      7  C   UNL     1      -0.016   1.347   0.009  0.00  0.00    +0.146 A 
ATOM      8  F   UNL     1       0.002  -0.004   0.002  0.00  0.00    -0.203 F 
ENDBRANCH   1   2
BRANCH   1   9
ATOM      9  S   UNL     1       3.049   0.876  -1.451  0.00  0.00    +0.075 S 
ATOM     10  O   UNL     1       3.917  -0.208  -1.147  0.00  0.00    -0.150 OA
ATOM     11  O   UNL     1       1.967   0.753  -2.364  0.00  0.00    -0.150 OA
BRANCH   9  15
ATOM     12  C   UNL     1       5.662   4.241  -2.994  0.00  0.00    +0.162 A 
ATOM     13  C   UNL     1       4.322   4.185  -3.342  0.00  0.00    +0.051 A 
ATOM     14  C   UNL     1       3.529   3.154  -2.874  0.00  0.00    +0.032 A 
ATOM     15  C   UNL     1       4.067   2.183  -2.050  0.00  0.00    +0.112 A 
ATOM     16  C   UNL     1       5.403   2.233  -1.699  0.00  0.00    +0.078 A 
ATOM     17  C   UNL     1       6.205   3.261  -2.169  0.00  0.00    +0.163 A 
BRANCH  12  19
ATOM     18  C   UNL     1       5.820   6.222  -4.301  0.00  0.00    +0.277 C 
ATOM     19  O   UNL     1       6.445   5.251  -3.459  0.00  0.00    -0.491 OA
ENDBRANCH  12  19
BRANCH  17  20
ATOM     20  O   UNL     1       7.520   3.312  -1.825  0.00  0.00    -0.491 OA
ATOM     21  C   UNL     1       8.008   2.272  -0.974  0.00  0.00    +0.277 C 
ENDBRANCH  17  20
ENDBRANCH   9  15
ENDBRANCH   1   9
BRANCH   1  22
ATOM     22  C   UNL     1       3.106   1.114   1.242  0.00  0.00    +0.227 C 
BRANCH  22  23
ATOM     23  C   UNL     1       2.573  -0.154   1.859  0.00  0.00    +0.232 C 
ATOM     24  O   UNL     1       1.691  -0.774   1.304  0.00  0.00    -0.274 OA
ATOM     25  N   UNL     1       3.077  -0.599   3.027  0.00  0.00    -0.314 N 
ATOM     26  H   UNL     1       3.878  -0.036   3.531  0.00  0.00    +0.149 HD
BRANCH  25  27
ATOM     27  C   UNL     1       2.559  -1.831   3.627  0.00  0.00    +0.105 C 
BRANCH  27  28
ATOM     28  C   UNL     1       3.297  -2.109   4.938  0.00  0.00    +0.029 C 
BRANCH  28  29
ATOM     29  C   UNL     1       2.756  -3.396   5.564  0.00  0.00    +0.071 C 
BRANCH  29  30
ATOM     30  S   UNL     1       3.630  -3.725   7.120  0.00  0.00    -0.157 S 
BRANCH  30  31
ATOM     31  C   UNL     1       2.882  -5.263   7.726  0.00  0.00    +0.046 C 
ATOM     32  C   UNL     1       1.409  -5.016   8.060  0.00  0.00    +0.014 C 
ATOM     33  C   UNL     1       0.778  -6.312   8.572  0.00  0.00    +0.001 C 
ATOM     34  C   UNL     1       1.515  -6.776   9.830  0.00  0.00    +0.000 C 
ATOM     35  C   UNL     1       2.988  -7.023   9.496  0.00  0.00    +0.001 C 
ATOM     36  C   UNL     1       3.619  -5.727   8.984  0.00  0.00    +0.014 C 
ENDBRANCH  30  31
ENDBRANCH  29  30
ENDBRANCH  28  29
ENDBRANCH  27  28
ENDBRANCH  25  27
ENDBRANCH  22  23
ENDBRANCH   1  22
TORSDOF 12
