REMARK  Name = ZINC28721520
REMARK  11 active torsions:
REMARK  status: ('A' for Active; 'I' for Inactive)
REMARK    1  A    between atoms: C_1  and  C_2
REMARK    2  A    between atoms: C_2  and  C_3
REMARK    3  A    between atoms: C_3  and  N_4
REMARK    4  A    between atoms: C_7  and  C_19
REMARK    5  A    between atoms: N_11  and  C_12
REMARK    6  A    between atoms: C_16  and  C_18
REMARK    7  A    between atoms: C_19  and  C_20
REMARK    8  A    between atoms: N_22  and  C_23
REMARK    9  A    between atoms: C_25  and  N_31
REMARK   10  A    between atoms: C_28  and  O_29
REMARK   11  A    between atoms: O_29  and  C_30
REMARK                            x       y       z     vdW  Elec       q    Type
REMARK                         _______ _______ _______ _____ _____    ______ ____
ROOT
ATOM      1  N   UNL     1      -1.431  -2.010   0.046  0.00  0.00    -0.250 N 
ATOM      2  C   UNL     1      -1.426  -2.630  -1.122  0.00  0.00    +0.235 C 
ATOM      3  O   UNL     1      -1.440  -2.026  -2.173  0.00  0.00    -0.274 OA
ATOM      4  C   UNL     1      -1.400  -4.149  -1.063  0.00  0.00    +0.149 C 
ATOM      5  S   UNL     1      -1.387  -4.408   0.759  0.00  0.00    -0.077 S 
ATOM      6  C   UNL     1      -1.409  -2.689   1.246  0.00  0.00    +0.164 C 
ATOM      7  N   UNL     1      -1.407  -2.190   2.459  0.00  0.00    -0.226 NA
ENDROOT
BRANCH   7   8
ATOM      8  C   UNL     1      -1.383  -3.026   3.543  0.00  0.00    +0.067 A 
ATOM      9  C   UNL     1      -2.214  -4.148   3.582  0.00  0.00    +0.028 A 
ATOM     10  C   UNL     1      -2.186  -4.986   4.677  0.00  0.00    +0.002 A 
ATOM     11  C   UNL     1      -1.336  -4.717   5.736  0.00  0.00    +0.003 A 
ATOM     12  C   UNL     1      -0.510  -3.608   5.704  0.00  0.00    -0.048 A 
ATOM     13  C   UNL     1      -0.524  -2.765   4.612  0.00  0.00    +0.031 A 
ATOM     14  C   UNL     1       0.411  -3.324   6.862  0.00  0.00    +0.044 C 
ENDBRANCH   7   8
BRANCH   1  15
ATOM     15  C   UNL     1      -1.456  -0.545   0.065  0.00  0.00    +0.115 C 
BRANCH  15  17
ATOM     16  C   UNL     1      -0.048   1.519   0.080  0.00  0.00    +0.005 C 
ATOM     17  C   UNL     1      -0.022  -0.011   0.060  0.00  0.00    +0.016 C 
ENDBRANCH  15  17
ENDBRANCH   1  15
BRANCH   4  18
ATOM     18  C   UNL     1      -2.654  -4.751  -1.701  0.00  0.00    +0.120 C 
BRANCH  18  19
ATOM     19  C   UNL     1      -2.530  -6.252  -1.732  0.00  0.00    +0.219 C 
ATOM     20  O   UNL     1      -1.538  -6.789  -1.288  0.00  0.00    -0.275 OA
ATOM     21  N   UNL     1      -3.524  -6.999  -2.254  0.00  0.00    -0.282 N 
ATOM     22  H   UNL     1      -4.345  -6.576  -2.550  0.00  0.00    +0.155 HD
BRANCH  21  23
ATOM     23  C   UNL     1      -3.371  -8.387  -2.369  0.00  0.00    +0.078 A 
ATOM     24  C   UNL     1      -2.658  -9.090  -1.408  0.00  0.00    +0.059 A 
ATOM     25  C   UNL     1      -2.508 -10.459  -1.523  0.00  0.00    +0.128 A 
ATOM     26  C   UNL     1      -3.067 -11.131  -2.595  0.00  0.00    +0.036 A 
ATOM     27  C   UNL     1      -3.778 -10.438  -3.556  0.00  0.00    +0.050 A 
ATOM     28  C   UNL     1      -3.938  -9.066  -3.445  0.00  0.00    +0.141 A 
BRANCH  25  29
ATOM     29  N   UNL     1      -1.748 -11.207  -0.497  0.00  0.00    +0.056 N 
ATOM     30  O   UNL     1      -1.258 -10.621   0.440  0.00  0.00    -0.126 OA
ATOM     31  O   UNL     1      -1.616 -12.405  -0.597  0.00  0.00    -0.126 OA
ENDBRANCH  25  29
BRANCH  28  32
ATOM     32  O   UNL     1      -4.642  -8.383  -4.386  0.00  0.00    -0.493 OA
ATOM     33  C   UNL     1      -5.196  -9.145  -5.461  0.00  0.00    +0.277 C 
ENDBRANCH  28  32
ENDBRANCH  21  23
ENDBRANCH  18  19
ENDBRANCH   4  18
TORSDOF 8
