REMARK  Name = ZINC62591893
REMARK  6 active torsions:
REMARK  status: ('A' for Active; 'I' for Inactive)
REMARK    1  A    between atoms: C_1  and  N_2
REMARK    2  A    between atoms: C_3  and  C_28
REMARK    3  A    between atoms: N_5  and  C_8
REMARK    4  A    between atoms: C_8  and  N_9
REMARK    5  A    between atoms: C_13  and  C_16
REMARK    6  A    between atoms: C_18  and  C_21
REMARK                            x       y       z     vdW  Elec       q    Type
REMARK                         _______ _______ _______ _____ _____    ______ ____
ROOT
ATOM      1  N   UNL     1       1.560  -3.857  -1.347  0.00  0.00    +0.393 N 
ATOM      2  C   UNL     1       0.212  -4.354  -1.647  0.00  0.00    -0.076 C 
ATOM      3  C   UNL     1       0.177  -4.919  -3.069  0.00  0.00    -0.018 C 
ATOM      4  C   UNL     1       1.183  -6.068  -3.181  0.00  0.00    +0.009 C 
ATOM      5  C   UNL     1       2.574  -5.555  -2.794  0.00  0.00    +0.061 C 
ATOM      6  C   UNL     1       2.519  -4.967  -1.382  0.00  0.00    -0.063 C 
ATOM      7  H   UNL     1       1.821  -3.165  -2.033  0.00  0.00    -0.079 HD
ENDROOT
BRANCH   5   8
ATOM      8  C   UNL     1       3.558  -6.695  -2.827  0.00  0.00    +0.229 A 
ATOM      9  N   UNL     1       4.623  -6.760  -3.574  0.00  0.00    -0.191 NA
ATOM     10  C   UNL     1       5.273  -7.916  -3.351  0.00  0.00    +0.202 A 
ATOM     11  N   UNL     1       4.613  -8.600  -2.449  0.00  0.00    -0.056 NA
ATOM     12  O   UNL     1       3.488  -7.811  -2.090  0.00  0.00    -0.337 OA
BRANCH  10  13
ATOM     13  C   UNL     1       6.528  -8.346  -4.016  0.00  0.00    +0.023 A 
ATOM     14  C   UNL     1       7.137  -7.520  -4.959  0.00  0.00    +0.014 A 
ATOM     15  C   UNL     1       8.304  -7.923  -5.574  0.00  0.00    +0.039 A 
ATOM     16  C   UNL     1       8.871  -9.147  -5.256  0.00  0.00    +0.123 A 
ATOM     17  C   UNL     1       8.268  -9.972  -4.320  0.00  0.00    +0.039 A 
ATOM     18  C   UNL     1       7.104  -9.573  -3.695  0.00  0.00    +0.014 A 
ATOM     19  F   UNL     1      10.014  -9.538  -5.861  0.00  0.00    -0.205 F 
ENDBRANCH  10  13
ENDBRANCH   5   8
BRANCH   1  20
ATOM     20  C   UNL     1       1.568  -3.246  -0.011  0.00  0.00    +0.072 C 
BRANCH  20  25
ATOM     21  C   UNL     1      -0.018   1.461  -0.012  0.00  0.00    +0.153 C 
ATOM     22  N   UNL     1       0.002  -0.004  -0.008  0.00  0.00    -0.306 N 
ATOM     23  C   UNL     1      -1.106  -0.828   0.003  0.00  0.00    +0.163 A 
ATOM     24  N   UNL     1      -0.701  -2.067   0.003  0.00  0.00    -0.152 NA
ATOM     25  N   UNL     1       0.701  -2.066  -0.008  0.00  0.00    -0.257 N 
ATOM     26  C   UNL     1       1.105  -0.779  -0.020  0.00  0.00    +0.176 A 
ATOM     27  S   UNL     1       2.726  -0.229  -0.042  0.00  0.00    -0.011 S 
BRANCH  23  28
ATOM     28  C   UNL     1      -2.516  -0.380   0.013  0.00  0.00    +0.019 A 
ATOM     29  C   UNL     1      -2.819   0.978   0.122  0.00  0.00    +0.013 A 
ATOM     30  C   UNL     1      -4.135   1.389   0.131  0.00  0.00    +0.021 A 
ATOM     31  C   UNL     1      -5.155   0.459   0.032  0.00  0.00    +0.041 A 
ATOM     32  C   UNL     1      -4.861  -0.890  -0.077  0.00  0.00    +0.021 A 
ATOM     33  C   UNL     1      -3.548  -1.313  -0.092  0.00  0.00    +0.013 A 
ATOM     34 CL   UNL     1      -6.810   0.984   0.044  0.00  0.00    -0.084 Cl
ENDBRANCH  23  28
ENDBRANCH  20  25
ENDBRANCH   1  20
TORSDOF 5
