REMARK  Name = ZINC04544182
REMARK  9 active torsions:
REMARK  status: ('A' for Active; 'I' for Inactive)
REMARK    1  A    between atoms: C_1  and  C_2
REMARK    2  A    between atoms: C_10  and  O_27
REMARK    3  A    between atoms: C_21  and  O_23
REMARK    4  A    between atoms: O_23  and  S_24
REMARK    5  A    between atoms: O_27  and  C_28
REMARK    6  A    between atoms: C_30  and  O_43
REMARK    7  A    between atoms: C_32  and  O_42
REMARK    8  A    between atoms: C_34  and  O_41
REMARK    9  A    between atoms: C_36  and  C_39
REMARK                            x       y       z     vdW  Elec       q    Type
REMARK                         _______ _______ _______ _____ _____    ______ ____
ROOT
ATOM      1  C   UNL     1      -4.909  -0.193  -2.082  0.00  0.00    +0.014 C 
ATOM      2  C   UNL     1      -4.501   1.276  -2.212  0.00  0.00    -0.000 C 
ATOM      3  C   UNL     1      -5.027   2.110  -1.043  0.00  0.00    +0.010 C 
ATOM      4  C   UNL     1      -4.247   1.828   0.240  0.00  0.00    +0.009 C 
ATOM      5  C   UNL     1      -2.785   2.209   0.001  0.00  0.00    +0.023 C 
ATOM      6  C   UNL     1      -1.989   2.064   1.268  0.00  0.00    -0.041 A 
ATOM      7  C   UNL     1      -2.572   2.477   2.458  0.00  0.00    +0.008 A 
ATOM      8  C   UNL     1      -1.885   2.373   3.649  0.00  0.00    +0.046 A 
ATOM      9  C   UNL     1      -0.599   1.853   3.657  0.00  0.00    +0.124 A 
ATOM     10  C   UNL     1      -0.019   1.440   2.470  0.00  0.00    +0.049 A 
ATOM     11  C   UNL     1      -0.701   1.563   1.260  0.00  0.00    -0.040 A 
ATOM     12  C   UNL     1      -0.013   1.086   0.008  0.00  0.00    +0.036 C 
ATOM     13  C   UNL     1      -0.735   1.584  -1.243  0.00  0.00    +0.009 C 
ATOM     14  C   UNL     1      -2.227   1.290  -1.083  0.00  0.00    +0.000 C 
ATOM     15  C   UNL     1      -2.979   1.450  -2.378  0.00  0.00    +0.001 C 
ATOM     16  C   UNL     1      -2.845   2.865  -2.973  0.00  0.00    +0.007 C 
ATOM     17  C   UNL     1      -4.023   2.949  -3.971  0.00  0.00    +0.035 C 
ATOM     18  C   UNL     1      -5.067   1.917  -3.507  0.00  0.00    +0.158 C 
ENDROOT
BRANCH  18  19
ATOM     19  O   UNL     1      -6.310   2.567  -3.230  0.00  0.00    -0.210 OA
BRANCH  19  20
ATOM     20  S   UNL     1      -7.318   2.484  -4.367  0.00  0.00    +0.239 S 
ATOM     21  O   UNL     1      -8.395   3.342  -4.018  0.00  0.00    -0.116 OA
ATOM     22  O   UNL     1      -6.583   2.635  -5.574  0.00  0.00    -0.116 OA
ATOM     23  O   UNL     1      -7.875   1.067  -4.372  0.00  0.00    -0.022 OA
ENDBRANCH  19  20
ENDBRANCH  18  19
BRANCH   9  24
ATOM     24  O   UNL     1       0.088   1.749   4.824  0.00  0.00    -0.461 OA
BRANCH  24  25
ATOM     25  C   UNL     1      -0.575   2.195   6.009  0.00  0.00    +0.340 C 
ATOM     26  C   UNL     1       0.424   2.235   7.169  0.00  0.00    +0.214 C 
ATOM     27  C   UNL     1      -0.307   2.655   8.448  0.00  0.00    +0.180 C 
ATOM     28  C   UNL     1      -1.460   1.681   8.707  0.00  0.00    +0.186 C 
ATOM     29  C   UNL     1      -2.386   1.662   7.488  0.00  0.00    +0.266 C 
ATOM     30  O   UNL     1      -1.637   1.294   6.328  0.00  0.00    -0.322 OA
BRANCH  29  31
ATOM     31  C   UNL     1      -3.491   0.662   7.712  0.00  0.00    +0.387 C 
ATOM     32  O   UNL     1      -3.569  -0.319   7.010  0.00  0.00    -0.243 OA
ATOM     33  O   UNL     1      -4.389   0.861   8.690  0.00  0.00    -0.243 OA
ENDBRANCH  29  31
BRANCH  28  34
ATOM     34  O   UNL     1      -0.937   0.370   8.930  0.00  0.00    -0.386 OA
ATOM     35  H   UNL     1      -1.614  -0.300   9.096  0.00  0.00    +0.210 HD
ENDBRANCH  28  34
BRANCH  27  36
ATOM     36  O   UNL     1       0.602   2.625   9.550  0.00  0.00    -0.386 OA
ATOM     37  H   UNL     1       1.358   3.219   9.453  0.00  0.00    +0.210 HD
ENDBRANCH  27  36
BRANCH  26  38
ATOM     38  O   UNL     1       0.997   0.939   7.351  0.00  0.00    -0.383 OA
ATOM     39  H   UNL     1       1.472   0.607   6.577  0.00  0.00    +0.210 HD
ENDBRANCH  26  38
ENDBRANCH  24  25
ENDBRANCH   9  24
TORSDOF 8
