REMARK  Name = ZINC35844900
REMARK  13 active torsions:
REMARK  status: ('A' for Active; 'I' for Inactive)
REMARK    1  A    between atoms: C_1  and  C_2
REMARK    2  A    between atoms: C_5  and  C_7
REMARK    3  A    between atoms: C_7  and  N_8
REMARK    4  A    between atoms: N_8  and  C_9
REMARK    5  A    between atoms: C_9  and  C_10
REMARK    6  A    between atoms: C_10  and  C_11
REMARK    7  A    between atoms: C_17  and  C_19
REMARK    8  A    between atoms: C_19  and  N_20
REMARK    9  A    between atoms: N_20  and  C_21
REMARK   10  A    between atoms: N_20  and  C_31
REMARK   11  A    between atoms: C_21  and  C_22
REMARK   12  A    between atoms: C_25  and  N_28
REMARK   13  A    between atoms: C_31  and  C_32
REMARK                            x       y       z     vdW  Elec       q    Type
REMARK                         _______ _______ _______ _____ _____    ______ ____
ROOT
ATOM      1  C   UNL     1      -0.019  -5.033  -1.481  0.00  0.00    +0.019 C 
ENDROOT
BRANCH   1   3
ATOM      2  N   UNL     1       2.035  -3.663  -1.630  0.00  0.00    -0.295 N 
ATOM      3  C   UNL     1       1.158  -4.482  -2.244  0.00  0.00    +0.199 C 
ATOM      4  O   UNL     1       1.315  -4.775  -3.410  0.00  0.00    -0.278 OA
BRANCH   2   5
ATOM      5  C   UNL     1       1.844  -3.309  -0.222  0.00  0.00    +0.181 C 
BRANCH   5  10
ATOM      6  C   UNL     1       0.527   1.554   0.035  0.00  0.00    +0.086 C 
ATOM      7  C   UNL     1       0.428   0.051  -0.014  0.00  0.00    +0.102 A 
ATOM      8  C   UNL     1      -0.711  -0.664   0.028  0.00  0.00    +0.045 A 
ATOM      9  C   UNL     1      -0.341  -2.027  -0.044  0.00  0.00    +0.046 A 
ATOM     10  C   UNL     1       1.001  -2.063  -0.126  0.00  0.00    +0.122 A 
ATOM     11  O   UNL     1       1.461  -0.802  -0.114  0.00  0.00    -0.463 OA
ENDBRANCH   5  10
ENDBRANCH   2   5
BRANCH   2  12
ATOM     12  C   UNL     1       3.179  -3.126  -2.372  0.00  0.00    +0.113 C 
BRANCH  12  13
ATOM     13  C   UNL     1       4.367  -4.080  -2.237  0.00  0.00    +0.054 C 
BRANCH  13  14
ATOM     14  C   UNL     1       5.543  -3.529  -3.000  0.00  0.00    -0.046 A 
ATOM     15  C   UNL     1       5.720  -3.858  -4.331  0.00  0.00    +0.004 A 
ATOM     16  C   UNL     1       6.799  -3.352  -5.031  0.00  0.00    +0.000 A 
ATOM     17  C   UNL     1       7.702  -2.516  -4.401  0.00  0.00    +0.000 A 
ATOM     18  C   UNL     1       7.524  -2.186  -3.070  0.00  0.00    +0.000 A 
ATOM     19  C   UNL     1       6.443  -2.689  -2.371  0.00  0.00    +0.004 A 
ENDBRANCH  13  14
ENDBRANCH  12  13
ENDBRANCH   2  12
ENDBRANCH   1   3
BRANCH   1  20
ATOM     20  N   UNL     1      -0.733  -6.006  -2.318  0.00  0.00    +0.390 N 
ATOM     21  H   UNL     1      -0.951  -5.587  -3.210  0.00  0.00    -0.081 HD
BRANCH  20  22
ATOM     22  C   UNL     1       0.115  -7.188  -2.526  0.00  0.00    -0.042 C 
BRANCH  22  23
ATOM     23  C   UNL     1      -0.566  -8.132  -3.484  0.00  0.00    -0.064 A 
ATOM     24  C   UNL     1      -1.418  -9.108  -3.003  0.00  0.00    +0.004 A 
ATOM     25  C   UNL     1      -2.043  -9.974  -3.882  0.00  0.00    +0.033 A 
ATOM     26  C   UNL     1      -1.815  -9.863  -5.241  0.00  0.00    +0.126 A 
ATOM     27  C   UNL     1      -0.963  -8.886  -5.721  0.00  0.00    +0.033 A 
ATOM     28  C   UNL     1      -0.342  -8.018  -4.843  0.00  0.00    +0.004 A 
BRANCH  26  29
ATOM     29  N   UNL     1      -2.483 -10.791  -6.181  0.00  0.00    +0.056 N 
ATOM     30  O   UNL     1      -3.228 -11.646  -5.761  0.00  0.00    -0.126 OA
ATOM     31  O   UNL     1      -2.283 -10.694  -7.370  0.00  0.00    -0.126 OA
ENDBRANCH  26  29
ENDBRANCH  22  23
ENDBRANCH  20  22
BRANCH  20  32
ATOM     32  C   UNL     1      -1.977  -6.409  -1.649  0.00  0.00    -0.046 C 
BRANCH  32  33
ATOM     33  C   UNL     1      -2.910  -5.201  -1.538  0.00  0.00    +0.102 C 
ATOM     34  C   UNL     1      -4.246  -5.628  -0.893  0.00  0.00    +0.032 C 
ATOM     35  C   UNL     1      -5.283  -4.809  -1.710  0.00  0.00    +0.030 C 
ATOM     36  C   UNL     1      -4.612  -4.794  -3.106  0.00  0.00    +0.160 C 
ATOM     37  O   UNL     1      -3.201  -4.690  -2.844  0.00  0.00    -0.378 OA
ENDBRANCH  32  33
ENDBRANCH  20  32
ENDBRANCH   1  20
TORSDOF 12
