REMARK  Name = ZINC20418454
REMARK  12 active torsions:
REMARK  status: ('A' for Active; 'I' for Inactive)
REMARK    1  A    between atoms: C_1  and  C_2
REMARK    2  A    between atoms: C_7  and  C_8
REMARK    3  A    between atoms: C_8  and  N_9
REMARK    4  A    between atoms: N_9  and  C_10
REMARK    5  A    between atoms: N_9  and  C_20
REMARK    6  A    between atoms: C_12  and  C_18
REMARK    7  A    between atoms: C_12  and  C_19
REMARK    8  A    between atoms: C_14  and  C_16
REMARK    9  A    between atoms: C_14  and  C_17
REMARK   10  A    between atoms: C_20  and  N_22
REMARK   11  A    between atoms: N_22  and  C_23
REMARK   12  A    between atoms: C_27  and  C_29
REMARK                            x       y       z     vdW  Elec       q    Type
REMARK                         _______ _______ _______ _____ _____    ______ ____
ROOT
ATOM      1  N   UNL     1       1.604   4.924  -1.255  0.00  0.00    -0.305 N 
ENDROOT
BRANCH   1   2
ATOM      2  C   UNL     1       2.706   4.281  -1.982  0.00  0.00    +0.073 C 
ATOM      3  C   UNL     1       3.159   5.195  -3.120  0.00  0.00    +0.009 C 
ATOM      4  C   UNL     1       4.291   4.541  -3.909  0.00  0.00    -0.072 C 
ATOM      5  N   UNL     1       3.999   3.175  -4.291  0.00  0.00    +0.386 N 
ATOM      6  C   UNL     1       3.335   2.284  -3.362  0.00  0.00    -0.072 C 
ATOM      7  C   UNL     1       2.214   2.965  -2.582  0.00  0.00    +0.009 C 
ATOM      8  C   UNL     1       4.336   1.660  -2.382  0.00  0.00    -0.010 C 
ATOM      9  C   UNL     1       2.705   1.128  -4.170  0.00  0.00    -0.010 C 
ATOM     10  C   UNL     1       5.592   4.625  -3.103  0.00  0.00    -0.010 C 
ATOM     11  C   UNL     1       4.497   5.368  -5.198  0.00  0.00    -0.010 C 
ATOM     12  H   UNL     1       3.341   3.174  -5.173  0.00  0.00    -0.084 HD
ATOM     13  H   UNL     1       4.937   2.654  -4.532  0.00  0.00    -0.084 HD
ENDBRANCH   1   2
BRANCH   1  14
ATOM     14  C   UNL     1       0.453   5.212  -1.893  0.00  0.00    +0.138 C 
ATOM     15  S   UNL     1      -0.882   5.828  -1.016  0.00  0.00    -0.018 S 
BRANCH  14  16
ATOM     16  N   UNL     1       0.353   5.015  -3.223  0.00  0.00    -0.297 N 
ATOM     17  H   UNL     1       1.179   4.541  -3.773  0.00  0.00    +0.154 HD
BRANCH  16  18
ATOM     18  C   UNL     1      -0.803   5.415  -3.904  0.00  0.00    +0.033 A 
ATOM     19  C   UNL     1      -2.055   5.069  -3.413  0.00  0.00    +0.025 A 
ATOM     20  C   UNL     1      -3.193   5.469  -4.083  0.00  0.00    +0.022 A 
ATOM     21  C   UNL     1      -3.087   6.204  -5.251  0.00  0.00    +0.053 A 
ATOM     22  C   UNL     1      -1.841   6.545  -5.746  0.00  0.00    +0.075 A 
ATOM     23  C   UNL     1      -0.699   6.152  -5.076  0.00  0.00    +0.037 A 
ATOM     24 CL   UNL     1      -4.521   6.700  -6.096  0.00  0.00    -0.083 Cl
BRANCH  22  25
ATOM     25  C   UNL     1      -1.730   7.347  -7.018  0.00  0.00    +0.419 C 
ATOM     26  F   UNL     1      -0.380   7.566  -7.314  0.00  0.00    -0.166 F 
ATOM     27  F   UNL     1      -2.329   6.642  -8.067  0.00  0.00    -0.166 F 
ATOM     28  F   UNL     1      -2.377   8.576  -6.852  0.00  0.00    -0.166 F 
ENDBRANCH  22  25
ENDBRANCH  16  18
ENDBRANCH  14  16
ENDBRANCH   1  14
BRANCH   1  29
ATOM     29  C   UNL     1       1.756   5.252   0.165  0.00  0.00    +0.142 C 
BRANCH  29  36
ATOM     30  C   UNL     1       3.501   2.985   0.574  0.00  0.00    +0.044 C 
ATOM     31  C   UNL     1       2.129   3.002   1.198  0.00  0.00    -0.046 A 
ATOM     32  C   UNL     1       1.705   1.933   1.965  0.00  0.00    +0.003 A 
ATOM     33  C   UNL     1       0.446   1.949   2.537  0.00  0.00    +0.000 A 
ATOM     34  C   UNL     1      -0.389   3.033   2.341  0.00  0.00    +0.000 A 
ATOM     35  C   UNL     1       0.035   4.102   1.573  0.00  0.00    +0.005 A 
ATOM     36  C   UNL     1       1.294   4.087   1.002  0.00  0.00    -0.027 A 
ENDBRANCH  29  36
ENDBRANCH   1  29
TORSDOF 7
