REMARK  Name = ZINC35543890
REMARK  6 active torsions:
REMARK  status: ('A' for Active; 'I' for Inactive)
REMARK    1  A    between atoms: C_3  and  C_6
REMARK    2  A    between atoms: C_6  and  N_7
REMARK    3  A    between atoms: C_8  and  C_10
REMARK    4  A    between atoms: C_15  and  N_34
REMARK    5  A    between atoms: N_23  and  C_26
REMARK    6  A    between atoms: C_26  and  C_27
REMARK                            x       y       z     vdW  Elec       q    Type
REMARK                         _______ _______ _______ _____ _____    ______ ____
ROOT
ATOM      1  C   UNL     1       5.944   0.555   2.996  0.00  0.00    +0.098 C 
ATOM      2  C   UNL     1       5.471   1.811   3.727  0.00  0.00    +0.051 C 
ATOM      3  C   UNL     1       6.105   3.025   3.100  0.00  0.00    -0.023 A 
ATOM      4  C   UNL     1       5.469   4.250   3.203  0.00  0.00    +0.038 A 
ATOM      5  C   UNL     1       6.031   5.375   2.630  0.00  0.00    +0.127 A 
ATOM      6  C   UNL     1       7.233   5.280   1.952  0.00  0.00    +0.034 A 
ATOM      7  C   UNL     1       7.875   4.063   1.850  0.00  0.00    +0.025 A 
ATOM      8  C   UNL     1       7.311   2.929   2.428  0.00  0.00    +0.033 A 
ATOM      9  N   UNL     1       7.992   1.707   2.316  0.00  0.00    -0.329 N 
ATOM     10  C   UNL     1       7.476   0.520   2.980  0.00  0.00    +0.069 C 
ATOM     11  C   UNL     1       7.933  -0.780   2.339  0.00  0.00    -0.055 C 
ATOM     12  N   UNL     1       9.322  -0.709   1.889  0.00  0.00    +0.385 N 
ATOM     13  C   UNL     1       9.439   0.343   0.868  0.00  0.00    -0.059 C 
ATOM     14  C   UNL     1       9.238   1.697   1.544  0.00  0.00    +0.087 C 
ATOM     15  H   UNL     1       9.920  -0.488   2.671  0.00  0.00    -0.081 HD
ENDROOT
BRANCH   1  17
ATOM     16  N   UNL     1       4.101   0.607   1.347  0.00  0.00    -0.308 N 
ATOM     17  C   UNL     1       5.428   0.575   1.580  0.00  0.00    +0.218 C 
ATOM     18  O   UNL     1       6.207   0.561   0.650  0.00  0.00    -0.275 OA
ATOM     19  H   UNL     1       3.478   0.617   2.090  0.00  0.00    +0.149 HD
BRANCH  16  20
ATOM     20  C   UNL     1       3.599   0.625  -0.029  0.00  0.00    +0.178 C 
BRANCH  20  23
ATOM     21  C   UNL     1      -0.016   1.341   0.009  0.00  0.00    +0.041 A 
ATOM     22  C   UNL     1       1.331   1.769  -0.001  0.00  0.00    +0.046 A 
ATOM     23  C   UNL     1       2.092   0.660  -0.014  0.00  0.00    +0.122 A 
ATOM     24  O   UNL     1       1.282  -0.411  -0.012  0.00  0.00    -0.466 OA
ATOM     25  C   UNL     1       0.002  -0.004   0.002  0.00  0.00    +0.195 A 
ENDBRANCH  20  23
ENDBRANCH  16  20
ENDBRANCH   1  17
BRANCH   5  26
ATOM     26  N   UNL     1       5.346   6.682   2.742  0.00  0.00    +0.056 N 
ATOM     27  O   UNL     1       4.296   6.765   3.334  0.00  0.00    -0.126 OA
ATOM     28  O   UNL     1       5.838   7.667   2.242  0.00  0.00    -0.126 OA
ENDBRANCH   5  26
BRANCH  12  29
ATOM     29  C   UNL     1       9.720  -2.001   1.312  0.00  0.00    -0.043 C 
BRANCH  29  30
ATOM     30  C   UNL     1      11.185  -1.965   0.962  0.00  0.00    -0.064 A 
ATOM     31  C   UNL     1      11.586  -1.538  -0.290  0.00  0.00    +0.004 A 
ATOM     32  C   UNL     1      12.929  -1.505  -0.612  0.00  0.00    +0.038 A 
ATOM     33  C   UNL     1      13.874  -1.899   0.320  0.00  0.00    +0.123 A 
ATOM     34  C   UNL     1      13.472  -2.326   1.574  0.00  0.00    +0.038 A 
ATOM     35  C   UNL     1      12.128  -2.354   1.896  0.00  0.00    +0.004 A 
ATOM     36  F   UNL     1      15.188  -1.867   0.006  0.00  0.00    -0.205 F 
ENDBRANCH  29  30
ENDBRANCH  12  29
TORSDOF 6
