REMARK  Name = ZINC21332772
REMARK  7 active torsions:
REMARK  status: ('A' for Active; 'I' for Inactive)
REMARK    1  A    between atoms: C_1  and  C_2
REMARK    2  A    between atoms: C_7  and  N_8
REMARK    3  A    between atoms: C_9  and  C_11
REMARK    4  A    between atoms: C_11  and  C_13
REMARK    5  A    between atoms: C_11  and  S_14
REMARK    6  A    between atoms: S_14  and  C_15
REMARK    7  A    between atoms: C_25  and  C_29
REMARK                            x       y       z     vdW  Elec       q    Type
REMARK                         _______ _______ _______ _____ _____    ______ ____
ROOT
ATOM      1  C   UNL     1       1.456   1.424   0.194  0.00  0.00    +0.192 A 
ATOM      2  N   UNL     1       0.418   0.618   0.387  0.00  0.00    -0.207 NA
ATOM      3  C   UNL     1       0.474  -0.676   0.123  0.00  0.00    +0.129 A 
ATOM      4  C   UNL     1       1.682  -1.231  -0.384  0.00  0.00    +0.051 A 
ATOM      5  C   UNL     1       1.971  -2.622  -0.744  0.00  0.00    -0.025 A 
ATOM      6  C   UNL     1       3.208  -2.889  -1.205  0.00  0.00    -0.004 A 
ATOM      7  S   UNL     1       4.055  -1.332  -1.191  0.00  0.00    -0.073 S 
ATOM      8  C   UNL     1       2.741  -0.319  -0.563  0.00  0.00    +0.115 A 
ATOM      9  N   UNL     1       2.606   0.961  -0.277  0.00  0.00    -0.214 NA
ATOM     10  C   UNL     1       3.748  -4.219  -1.637  0.00  0.00    +0.046 C 
ATOM     11  C   UNL     1       2.567  -5.181  -1.832  0.00  0.00    -0.009 C 
ATOM     12  C   UNL     1       1.648  -5.082  -0.612  0.00  0.00    +0.008 C 
ATOM     13  C   UNL     1       0.931  -3.731  -0.609  0.00  0.00    +0.037 C 
ATOM     14  C   UNL     1       3.089  -6.613  -1.967  0.00  0.00    +0.008 C 
ATOM     15  N   UNL     1      -0.630  -1.482   0.339  0.00  0.00    -0.343 N 
ATOM     16  H   UNL     1      -0.576  -2.558   0.117  0.00  0.00    +0.144 HD
ATOM     17  H   UNL     1      -1.560  -1.047   0.731  0.00  0.00    +0.144 HD
ENDROOT
BRANCH   1  18
ATOM     18  S   UNL     1       1.301   3.138   0.568  0.00  0.00    -0.073 S 
BRANCH  18  19
ATOM     19  C   UNL     1      -0.413   3.180   1.146  0.00  0.00    +0.137 C 
ATOM     20  C   UNL     1      -0.538   2.362   2.433  0.00  0.00    +0.029 C 
BRANCH  19  22
ATOM     21  N   UNL     1      -2.122   4.941   1.463  0.00  0.00    -0.284 N 
ATOM     22  C   UNL     1      -0.817   4.607   1.417  0.00  0.00    +0.230 C 
ATOM     23  O   UNL     1       0.032   5.455   1.594  0.00  0.00    -0.274 OA
ATOM     24  H   UNL     1      -2.893   4.160   1.377  0.00  0.00    +0.155 HD
BRANCH  21  31
ATOM     25  C   UNL     1      -4.619   5.774   0.382  0.00  0.00    +0.045 C 
ATOM     26  C   UNL     1      -3.707   6.729   1.108  0.00  0.00    -0.029 A 
ATOM     27  C   UNL     1      -4.074   8.051   1.266  0.00  0.00    +0.005 A 
ATOM     28  C   UNL     1      -3.238   8.927   1.933  0.00  0.00    +0.000 A 
ATOM     29  C   UNL     1      -2.032   8.483   2.445  0.00  0.00    +0.002 A 
ATOM     30  C   UNL     1      -1.662   7.161   2.296  0.00  0.00    +0.023 A 
ATOM     31  C   UNL     1      -2.497   6.279   1.621  0.00  0.00    +0.036 A 
ENDBRANCH  21  31
ENDBRANCH  19  22
ENDBRANCH  18  19
ENDBRANCH   1  18
TORSDOF 4
