REMARK  Name = ZINC29155800
REMARK  7 active torsions:
REMARK  status: ('A' for Active; 'I' for Inactive)
REMARK    1  A    between atoms: C_4  and  N_7
REMARK    2  A    between atoms: C_8  and  C_10
REMARK    3  A    between atoms: N_15  and  C_17
REMARK    4  A    between atoms: C_17  and  C_18
REMARK    5  A    between atoms: N_20  and  C_21
REMARK    6  A    between atoms: C_26  and  S_27
REMARK    7  A    between atoms: S_27  and  C_30
REMARK                            x       y       z     vdW  Elec       q    Type
REMARK                         _______ _______ _______ _____ _____    ______ ____
ROOT
ATOM      1  C   UNL     1       8.372   2.777   0.086  0.00  0.00    +0.059 C 
ATOM      2  C   UNL     1       8.364   1.972   1.389  0.00  0.00    +0.009 C 
ATOM      3  C   UNL     1       7.004   1.286   1.547  0.00  0.00    -0.018 C 
ATOM      4  C   UNL     1       5.899   2.345   1.531  0.00  0.00    -0.078 C 
ATOM      5  N   UNL     1       5.949   3.087   0.265  0.00  0.00    +0.386 N 
ATOM      6  C   UNL     1       7.227   3.792   0.113  0.00  0.00    -0.065 C 
ATOM      7  H   UNL     1       5.869   2.357  -0.554  0.00  0.00    -0.081 HD
ENDROOT
BRANCH   1   9
ATOM      8  N   UNL     1      10.839   2.807  -0.093  0.00  0.00    -0.285 N 
ATOM      9  C   UNL     1       9.685   3.503  -0.049  0.00  0.00    +0.218 C 
ATOM     10  O   UNL     1       9.705   4.714  -0.117  0.00  0.00    -0.275 OA
ATOM     11  H   UNL     1      10.817   1.708  -0.129  0.00  0.00    +0.155 HD
BRANCH   8  15
ATOM     12  C   UNL     1      14.487   4.818  -0.099  0.00  0.00    +0.000 A 
ATOM     13  C   UNL     1      13.373   5.411   0.467  0.00  0.00    +0.002 A 
ATOM     14  C   UNL     1      12.162   4.747   0.471  0.00  0.00    +0.023 A 
ATOM     15  C   UNL     1      12.064   3.482  -0.095  0.00  0.00    +0.033 A 
ATOM     16  C   UNL     1      13.186   2.888  -0.658  0.00  0.00    +0.023 A 
ATOM     17  C   UNL     1      14.392   3.560  -0.664  0.00  0.00    +0.002 A 
ENDBRANCH   8  15
ENDBRANCH   1   9
BRANCH   5  18
ATOM     18  C   UNL     1       4.817   4.017   0.156  0.00  0.00    +0.019 C 
BRANCH  18  19
ATOM     19  C   UNL     1       3.531   3.237   0.070  0.00  0.00    +0.201 C 
ATOM     20  O   UNL     1       3.554   2.024   0.098  0.00  0.00    -0.278 OA
ATOM     21  N   UNL     1       2.355   3.886  -0.037  0.00  0.00    -0.285 N 
ATOM     22  H   UNL     1       2.338   4.981  -0.138  0.00  0.00    +0.155 HD
BRANCH  21  23
ATOM     23  C   UNL     1       1.155   3.166  -0.019  0.00  0.00    +0.059 A 
ATOM     24  C   UNL     1       1.092   1.903  -0.593  0.00  0.00    +0.025 A 
ATOM     25  C   UNL     1      -0.094   1.196  -0.574  0.00  0.00    +0.002 A 
ATOM     26  C   UNL     1      -1.220   1.746   0.013  0.00  0.00    +0.002 A 
ATOM     27  C   UNL     1      -1.159   3.000   0.590  0.00  0.00    +0.029 A 
ATOM     28  C   UNL     1       0.024   3.713   0.574  0.00  0.00    +0.116 A 
BRANCH  28  29
ATOM     29  S   UNL     1       0.099   5.315   1.304  0.00  0.00    +0.060 S 
ATOM     30  O   UNL     1       0.671   6.144   0.303  0.00  0.00    -0.164 OA
ATOM     31  O   UNL     1      -1.218   5.558   1.781  0.00  0.00    -0.164 OA
BRANCH  29  32
ATOM     32  C   UNL     1       1.246   5.138   2.699  0.00  0.00    +0.485 C 
ATOM     33  F   UNL     1       0.749   4.184   3.593  0.00  0.00    -0.183 F 
ATOM     34  F   UNL     1       2.496   4.726   2.225  0.00  0.00    -0.183 F 
ENDBRANCH  29  32
ENDBRANCH  28  29
ENDBRANCH  21  23
ENDBRANCH  18  19
ENDBRANCH   5  18
TORSDOF 7
