REMARK  Name = ZINC19318954
REMARK  5 active torsions:
REMARK  status: ('A' for Active; 'I' for Inactive)
REMARK    1  A    between atoms: C_1  and  C_2
REMARK    2  A    between atoms: C_3  and  C_15
REMARK    3  A    between atoms: C_4  and  O_14
REMARK    4  A    between atoms: N_5  and  C_7
REMARK    5  A    between atoms: N_16  and  C_17
REMARK                            x       y       z     vdW  Elec       q    Type
REMARK                         _______ _______ _______ _____ _____    ______ ____
ROOT
ATOM      1  C   UNL     1      -0.018   1.503   0.010  0.00  0.00    +0.068 C 
ATOM      2  C   UNL     1       0.002  -0.004   0.002  0.00  0.00    +0.073 A 
ATOM      3  C   UNL     1       0.008  -0.827  -1.148  0.00  0.00    +0.077 A 
ATOM      4  C   UNL     1       0.028  -2.144  -0.707  0.00  0.00    +0.225 A 
ATOM      5  N   UNL     1       0.034  -2.112   0.643  0.00  0.00    -0.200 N 
ATOM      6  N   UNL     1       0.023  -0.774   1.054  0.00  0.00    -0.168 NA
ENDROOT
BRANCH   5   7
ATOM      7  C   UNL     1       0.052  -3.229   1.490  0.00  0.00    +0.070 A 
ATOM      8  C   UNL     1      -0.620  -4.388   1.125  0.00  0.00    +0.028 A 
ATOM      9  C   UNL     1      -0.600  -5.488   1.961  0.00  0.00    +0.003 A 
ATOM     10  C   UNL     1       0.087  -5.436   3.160  0.00  0.00    +0.020 A 
ATOM     11  C   UNL     1       0.757  -4.282   3.526  0.00  0.00    +0.043 A 
ATOM     12  C   UNL     1       0.746  -3.180   2.691  0.00  0.00    +0.048 A 
ATOM     13 CL   UNL     1       1.619  -4.220   5.032  0.00  0.00    -0.083 Cl
ENDBRANCH   5   7
BRANCH   4  14
ATOM     14  O   UNL     1       0.040  -3.253  -1.484  0.00  0.00    -0.492 OA
ATOM     15  H   UNL     1       0.926  -3.563  -1.714  0.00  0.00    +0.294 HD
ENDBRANCH   4  14
BRANCH   3  16
ATOM     16  C   UNL     1      -0.004  -0.374  -2.546  0.00  0.00    +0.120 C 
ATOM     17  N   UNL     1       0.003  -1.243  -3.509  0.00  0.00    -0.280 NA
BRANCH  17  18
ATOM     18  C   UNL     1      -0.009  -0.792  -4.903  0.00  0.00    +0.100 C 
ATOM     19  C   UNL     1      -1.274   0.033  -5.184  0.00  0.00    +0.119 C 
ATOM     20  N   UNL     1      -1.252   0.454  -6.595  0.00  0.00    -0.274 NA
ATOM     21  C   UNL     1      -1.248  -0.722  -7.481  0.00  0.00    +0.173 C 
ATOM     22  N   UNL     1      -0.023  -1.500  -7.239  0.00  0.00    -0.274 NA
ATOM     23  C   UNL     1       0.003  -1.998  -5.853  0.00  0.00    +0.119 C 
ATOM     24  C   UNL     1       1.166  -0.675  -7.508  0.00  0.00    +0.173 C 
ATOM     25  N   UNL     1       1.145   0.500  -6.622  0.00  0.00    -0.274 NA
ATOM     26  C   UNL     1       1.229   0.067  -5.195  0.00  0.00    +0.119 C 
ATOM     27  C   UNL     1      -0.072   1.294  -6.860  0.00  0.00    +0.173 C 
ENDBRANCH  17  18
ENDBRANCH   3  16
TORSDOF 4
