REMARK  Name = ZINC16682405
REMARK  12 active torsions:
REMARK  status: ('A' for Active; 'I' for Inactive)
REMARK    1  A    between atoms: C_1  and  C_2
REMARK    2  A    between atoms: C_2  and  O_3
REMARK    3  A    between atoms: O_3  and  C_4
REMARK    4  A    between atoms: C_4  and  C_6
REMARK    5  A    between atoms: C_7  and  C_36
REMARK    6  A    between atoms: C_14  and  C_15
REMARK    7  A    between atoms: C_20  and  O_21
REMARK    8  A    between atoms: C_24  and  C_26
REMARK    9  A    between atoms: C_29  and  O_32
REMARK   10  A    between atoms: O_32  and  C_33
REMARK   11  A    between atoms: C_33  and  C_34
REMARK   12  A    between atoms: C_33  and  C_35
REMARK                            x       y       z     vdW  Elec       q    Type
REMARK                         _______ _______ _______ _____ _____    ______ ____
ROOT
ATOM      1  C   UNL     1       2.303   8.759  -0.649  0.00  0.00    +0.085 C 
ATOM      2  C   UNL     1       3.635   8.728  -0.951  0.00  0.00    +0.053 C 
ATOM      3  N   UNL     1       4.362   7.650  -0.685  0.00  0.00    -0.228 NA
ATOM      4  C   UNL     1       3.902   6.556  -0.133  0.00  0.00    +0.178 A 
ATOM      5  N   UNL     1       2.592   6.378   0.248  0.00  0.00    -0.275 N 
ATOM      6  C   UNL     1       2.237   5.210   0.800  0.00  0.00    +0.268 A 
ATOM      7  O   UNL     1       1.089   5.005   1.148  0.00  0.00    -0.266 OA
ATOM      8  C   UNL     1       3.276   4.186   0.976  0.00  0.00    +0.081 A 
ATOM      9  C   UNL     1       3.177   2.938   1.504  0.00  0.00    +0.032 C 
ATOM     10  S   UNL     1       4.701   5.023   0.300  0.00  0.00    -0.046 S 
ATOM     11  C   UNL     1       1.690   7.535  -0.008  0.00  0.00    +0.162 C 
ATOM     12  C   UNL     1       4.285   9.928  -1.591  0.00  0.00    +0.066 C 
ENDROOT
BRANCH   9  13
ATOM     13  C   UNL     1       1.934   2.514   2.159  0.00  0.00    +0.019 A 
ATOM     14  C   UNL     1       1.271   3.379   3.038  0.00  0.00    +0.031 A 
ATOM     15  C   UNL     1       0.104   2.973   3.649  0.00  0.00    +0.042 A 
ATOM     16  C   UNL     1      -0.417   1.713   3.396  0.00  0.00    +0.023 A 
ATOM     17  C   UNL     1       0.227   0.851   2.530  0.00  0.00    +0.047 A 
ATOM     18  C   UNL     1       1.401   1.240   1.906  0.00  0.00    +0.124 A 
ATOM     19 CL   UNL     1      -0.722   4.047   4.735  0.00  0.00    -0.084 Cl
BRANCH  18  20
ATOM     20  O   UNL     1       2.034   0.392   1.056  0.00  0.00    -0.506 OA
ATOM     21  H   UNL     1       1.751   0.475   0.135  0.00  0.00    +0.292 HD
ENDBRANCH  18  20
ENDBRANCH   9  13
BRANCH  11  22
ATOM     22  C   UNL     1       1.088   7.954   1.309  0.00  0.00    -0.020 A 
ATOM     23  C   UNL     1       1.865   7.957   2.453  0.00  0.00    +0.009 A 
ATOM     24  C   UNL     1       1.317   8.346   3.660  0.00  0.00    +0.046 A 
ATOM     25  C   UNL     1      -0.017   8.722   3.726  0.00  0.00    +0.121 A 
ATOM     26  C   UNL     1      -0.796   8.712   2.578  0.00  0.00    +0.046 A 
ATOM     27  C   UNL     1      -0.241   8.329   1.372  0.00  0.00    +0.009 A 
BRANCH  25  28
ATOM     28  O   UNL     1      -0.560   9.098   4.913  0.00  0.00    -0.489 OA
BRANCH  28  29
ATOM     29  C   UNL     1       0.288   9.042   6.062  0.00  0.00    +0.167 C 
ATOM     30  C   UNL     1       1.154  10.302   6.118  0.00  0.00    +0.051 C 
ATOM     31  C   UNL     1      -0.570   8.956   7.326  0.00  0.00    +0.051 C 
ENDBRANCH  28  29
ENDBRANCH  25  28
ENDBRANCH  11  22
BRANCH   1  32
ATOM     32  C   UNL     1       1.525   9.895  -0.926  0.00  0.00    +0.339 C 
ATOM     33  O   UNL     1       2.057  10.911  -1.337  0.00  0.00    -0.245 OA
BRANCH  32  34
ATOM     34  O   UNL     1       0.188   9.861  -0.738  0.00  0.00    -0.462 OA
BRANCH  34  36
ATOM     35  C   UNL     1      -2.028  10.824  -0.767  0.00  0.00    +0.048 C 
ATOM     36  C   UNL     1      -0.540  11.053  -1.041  0.00  0.00    +0.229 C 
ENDBRANCH  34  36
ENDBRANCH  32  34
ENDBRANCH   1  32
TORSDOF 8
