REMARK  Name = ZINC22991196
REMARK  7 active torsions:
REMARK  status: ('A' for Active; 'I' for Inactive)
REMARK    1  A    between atoms: C_1  and  C_2
REMARK    2  A    between atoms: C_2  and  C_3
REMARK    3  A    between atoms: C_2  and  C_4
REMARK    4  A    between atoms: C_7  and  C_10
REMARK    5  A    between atoms: C_12  and  C_15
REMARK    6  A    between atoms: N_20  and  C_23
REMARK    7  A    between atoms: C_23  and  C_24
REMARK                            x       y       z     vdW  Elec       q    Type
REMARK                         _______ _______ _______ _____ _____    ______ ____
ROOT
ATOM      1  C   UNL     1      -7.993  -3.963  -1.571  0.00  0.00    +0.266 C 
ATOM      2  O   UNL     1      -7.437  -3.150  -0.857  0.00  0.00    -0.268 OA
ATOM      3  N   UNL     1      -7.338  -4.494  -2.622  0.00  0.00    -0.294 N 
ATOM      4  C   UNL     1      -5.906  -4.233  -2.830  0.00  0.00    +0.123 C 
ATOM      5  C   UNL     1      -5.704  -3.750  -4.270  0.00  0.00    +0.104 C 
ATOM      6  N   UNL     1      -6.299  -4.720  -5.198  0.00  0.00    -0.294 NA
ATOM      7  C   UNL     1      -7.752  -4.822  -5.003  0.00  0.00    +0.104 C 
ATOM      8  C   UNL     1      -8.037  -5.355  -3.589  0.00  0.00    +0.123 C 
ENDROOT
BRANCH   1  11
ATOM      9  C   UNL     1     -11.183  -5.701  -1.661  0.00  0.00    +0.109 A 
ATOM     10  N   UNL     1      -9.937  -5.372  -1.949  0.00  0.00    -0.234 NA
ATOM     11  C   UNL     1      -9.380  -4.368  -1.286  0.00  0.00    +0.133 A 
ATOM     12  C   UNL     1     -10.112  -3.713  -0.331  0.00  0.00    +0.080 A 
ATOM     13  S   UNL     1     -11.588  -4.520  -0.387  0.00  0.00    -0.075 S 
BRANCH   9  17
ATOM     14  C   UNL     1     -13.602  -8.761  -3.345  0.00  0.00    -0.045 A 
ATOM     15  C   UNL     1     -14.115  -7.945  -2.353  0.00  0.00    +0.004 A 
ATOM     16  C   UNL     1     -13.335  -6.949  -1.802  0.00  0.00    +0.011 A 
ATOM     17  C   UNL     1     -12.025  -6.767  -2.247  0.00  0.00    +0.007 A 
ATOM     18  C   UNL     1     -11.513  -7.594  -3.248  0.00  0.00    +0.011 A 
ATOM     19  C   UNL     1     -12.302  -8.589  -3.787  0.00  0.00    +0.004 A 
BRANCH  14  21
ATOM     20  C   UNL     1     -14.893 -10.818  -2.842  0.00  0.00    +0.012 C 
ATOM     21  C   UNL     1     -14.460  -9.847  -3.942  0.00  0.00    +0.013 C 
ATOM     22  C   UNL     1     -15.698  -9.221  -4.587  0.00  0.00    +0.012 C 
ENDBRANCH  14  21
ENDBRANCH   9  17
ENDBRANCH   1  11
BRANCH   6  23
ATOM     23  C   UNL     1      -5.978  -4.383  -6.591  0.00  0.00    +0.138 C 
BRANCH  23  24
ATOM     24  C   UNL     1      -6.389  -5.519  -7.491  0.00  0.00    +0.037 A 
ATOM     25  C   UNL     1      -7.385  -5.347  -8.429  0.00  0.00    +0.093 A 
ATOM     26  C   UNL     1      -7.752  -6.410  -9.254  0.00  0.00    +0.259 A 
ATOM     27  O   UNL     1      -8.632  -6.263 -10.086  0.00  0.00    -0.267 OA
ATOM     28  N   UNL     1      -7.124  -7.618  -9.129  0.00  0.00    -0.264 N 
ATOM     29  C   UNL     1      -7.371  -8.753  -9.863  0.00  0.00    +0.104 A 
ATOM     30  C   UNL     1      -6.687  -9.876  -9.645  0.00  0.00    +0.067 A 
ATOM     31  S   UNL     1      -5.591  -9.386  -8.323  0.00  0.00    -0.059 S 
ATOM     32  C   UNL     1      -6.147  -7.702  -8.172  0.00  0.00    +0.158 A 
ATOM     33  N   UNL     1      -5.795  -6.706  -7.398  0.00  0.00    -0.338 N 
ATOM     34  H   UNL     1      -5.090  -6.837  -6.744  0.00  0.00    +0.168 HD
ENDBRANCH  23  24
ENDBRANCH   6  23
TORSDOF 5
