REMARK  Name = ZINC39992405
REMARK  9 active torsions:
REMARK  status: ('A' for Active; 'I' for Inactive)
REMARK    1  A    between atoms: C_1  and  O_2
REMARK    2  A    between atoms: O_2  and  C_3
REMARK    3  A    between atoms: C_3  and  C_4
REMARK    4  A    between atoms: C_4  and  N_5
REMARK    5  A    between atoms: C_6  and  C_8
REMARK    6  A    between atoms: C_10  and  N_19
REMARK    7  A    between atoms: C_20  and  C_22
REMARK    8  A    between atoms: C_22  and  C_33
REMARK    9  A    between atoms: C_23  and  C_24
REMARK                            x       y       z     vdW  Elec       q    Type
REMARK                         _______ _______ _______ _____ _____    ______ ____
ROOT
ATOM      1  N   UNL     1       2.702  -3.336  -3.939  0.00  0.00    -0.298 N 
ATOM      2  C   UNL     1       2.490  -3.647  -5.233  0.00  0.00    +0.255 C 
ATOM      3  O   UNL     1       1.449  -4.180  -5.568  0.00  0.00    -0.269 OA
ATOM      4  H   UNL     1       3.532  -2.911  -3.672  0.00  0.00    +0.150 HD
ENDROOT
BRANCH   1   6
ATOM      5  C   UNL     1       2.296  -4.277  -1.669  0.00  0.00    +0.132 C 
ATOM      6  C   UNL     1       1.678  -3.638  -2.936  0.00  0.00    +0.152 C 
ATOM      7  S   UNL     1       0.607  -5.041  -3.463  0.00  0.00    -0.106 S 
ATOM      8  C   UNL     1       1.461  -6.350  -2.616  0.00  0.00    -0.013 C 
ATOM      9  C   UNL     1       2.285  -5.783  -1.747  0.00  0.00    -0.046 C 
ATOM     10  C   UNL     1       3.191  -6.633  -0.858  0.00  0.00    +0.032 C 
ATOM     11  C   UNL     1       2.646  -8.059  -0.804  0.00  0.00    +0.005 C 
ATOM     12  C   UNL     1       2.437  -8.581  -2.229  0.00  0.00    +0.005 C 
ATOM     13  C   UNL     1       1.270  -7.822  -2.855  0.00  0.00    +0.042 C 
BRANCH   5  15
ATOM     14  N   UNL     1       1.401  -2.532  -0.162  0.00  0.00    -0.313 N 
ATOM     15  C   UNL     1       1.505  -3.841  -0.462  0.00  0.00    +0.223 C 
ATOM     16  O   UNL     1       0.963  -4.669   0.239  0.00  0.00    -0.275 OA
ATOM     17  H   UNL     1       1.835  -1.870  -0.723  0.00  0.00    +0.149 HD
BRANCH  14  18
ATOM     18  C   UNL     1       0.633  -2.108   1.011  0.00  0.00    +0.132 C 
BRANCH  18  19
ATOM     19  C   UNL     1       0.673  -0.582   1.123  0.00  0.00    +0.178 C 
BRANCH  19  21
ATOM     20  C   UNL     1      -0.017   1.425   0.010  0.00  0.00    +0.194 C 
ATOM     21  O   UNL     1       0.002  -0.004   0.002  0.00  0.00    -0.381 OA
ENDBRANCH  19  21
ENDBRANCH  18  19
ENDBRANCH  14  18
ENDBRANCH   5  15
ENDBRANCH   1   6
BRANCH   2  22
ATOM     22  C   UNL     1       3.520  -3.343  -6.242  0.00  0.00    +0.114 C 
ATOM     23  C   UNL     1       3.302  -3.664  -7.573  0.00  0.00    +0.030 C 
BRANCH  23  24
ATOM     24  C   UNL     1       4.280  -3.374  -8.532  0.00  0.00    -0.018 C 
ATOM     25  C   UNL     1       4.218  -3.623  -9.898  0.00  0.00    +0.003 A 
ATOM     26  C   UNL     1       3.232  -4.205 -10.724  0.00  0.00    +0.010 A 
ATOM     27  C   UNL     1       3.441  -4.325 -12.056  0.00  0.00    +0.001 A 
ATOM     28  C   UNL     1       4.621  -3.890 -12.673  0.00  0.00    +0.002 A 
ATOM     29  C   UNL     1       5.626  -3.320 -11.971  0.00  0.00    +0.026 A 
ATOM     30  C   UNL     1       5.477  -3.152 -10.518  0.00  0.00    +0.043 A 
ATOM     31  N   UNL     1       6.272  -2.645  -9.613  0.00  0.00    -0.380 N 
ATOM     32  C   UNL     1       5.624  -2.719  -8.300  0.00  0.00    +0.149 C 
ATOM     33  H   UNL     1       7.151  -2.273  -9.784  0.00  0.00    +0.160 HD
ENDBRANCH  23  24
BRANCH  22  34
ATOM     34  C   UNL     1       4.745  -2.716  -5.848  0.00  0.00    +0.104 C 
ATOM     35  N   UNL     1       5.718  -2.218  -5.536  0.00  0.00    -0.191 NA
ENDBRANCH  22  34
ENDBRANCH   2  22
TORSDOF 8
