REMARK  Name = ZINC57727622
REMARK  5 active torsions:
REMARK  status: ('A' for Active; 'I' for Inactive)
REMARK    1  A    between atoms: C_1  and  C_2
REMARK    2  A    between atoms: C_11  and  N_28
REMARK    3  A    between atoms: C_13  and  C_15
REMARK    4  A    between atoms: C_15  and  C_16
REMARK    5  A    between atoms: C_16  and  N_17
REMARK                            x       y       z     vdW  Elec       q    Type
REMARK                         _______ _______ _______ _____ _____    ______ ____
ROOT
ATOM      1  C   UNL     1       0.591   1.266  -0.734  0.00  0.00    +0.008 C 
ATOM      2  C   UNL     1       0.464  -0.251  -0.580  0.00  0.00    -0.009 C 
ATOM      3  C   UNL     1      -1.014  -0.634  -0.460  0.00  0.00    +0.008 C 
ATOM      4  C   UNL     1      -1.166  -2.152  -0.556  0.00  0.00    +0.037 C 
ATOM      5  C   UNL     1      -0.236  -2.807   0.463  0.00  0.00    -0.025 A 
ATOM      6  C   UNL     1       0.801  -2.118   0.989  0.00  0.00    -0.004 A 
ATOM      7  S   UNL     1       1.596  -3.248   2.103  0.00  0.00    -0.073 S 
ATOM      8  C   UNL     1       0.540  -4.640   1.865  0.00  0.00    +0.114 A 
ATOM      9  C   UNL     1      -0.407  -4.177   0.916  0.00  0.00    +0.051 A 
ATOM     10  C   UNL     1      -1.416  -5.098   0.513  0.00  0.00    +0.128 A 
ATOM     11  N   UNL     1      -1.360  -6.304   1.076  0.00  0.00    -0.217 NA
ATOM     12  C   UNL     1      -0.446  -6.664   1.955  0.00  0.00    +0.134 A 
ATOM     13  N   UNL     1       0.521  -5.856   2.373  0.00  0.00    -0.225 NA
ATOM     14  C   UNL     1       1.197  -0.704   0.691  0.00  0.00    +0.046 C 
ENDROOT
BRANCH  10  15
ATOM     15  N   UNL     1      -2.393  -4.761  -0.406  0.00  0.00    -0.343 N 
ATOM     16  H   UNL     1      -2.279  -3.981  -0.971  0.00  0.00    +0.144 HD
ATOM     17  H   UNL     1      -3.193  -5.304  -0.484  0.00  0.00    +0.144 HD
ENDBRANCH  10  15
BRANCH  12  18
ATOM     18  C   UNL     1      -0.502  -8.063   2.513  0.00  0.00    +0.091 C 
BRANCH  18  19
ATOM     19  C   UNL     1       0.328  -8.998   1.630  0.00  0.00    +0.092 C 
BRANCH  19  20
ATOM     20  N   UNL     1       0.273 -10.361   2.174  0.00  0.00    -0.299 NA
ATOM     21  C   UNL     1       0.931 -10.432   3.485  0.00  0.00    +0.103 C 
ATOM     22  C   UNL     1       0.697 -11.817   4.097  0.00  0.00    +0.122 C 
ATOM     23  N   UNL     1       1.130 -12.835   3.128  0.00  0.00    -0.307 N 
ATOM     24  C   UNL     1       0.618 -12.749   1.752  0.00  0.00    +0.122 C 
ATOM     25  C   UNL     1       0.856 -11.327   1.232  0.00  0.00    +0.103 C 
ATOM     26  C   UNL     1       1.998 -13.849   3.502  0.00  0.00    +0.161 A 
ATOM     27  N   UNL     1       2.538 -14.070   4.682  0.00  0.00    -0.233 NA
ATOM     28  C   UNL     1       3.354 -15.090   4.878  0.00  0.00    +0.120 A 
ATOM     29  C   UNL     1       3.605 -15.891   3.815  0.00  0.00    +0.068 A 
ATOM     30  S   UNL     1       2.612 -15.101   2.559  0.00  0.00    -0.061 S 
ENDBRANCH  19  20
ENDBRANCH  18  19
ENDBRANCH  12  18
TORSDOF 4
