REMARK  Name = ZINC64703905
REMARK  13 active torsions:
REMARK  status: ('A' for Active; 'I' for Inactive)
REMARK    1  A    between atoms: C_1  and  C_2
REMARK    2  A    between atoms: C_2  and  O_3
REMARK    3  A    between atoms: O_3  and  C_4
REMARK    4  A    between atoms: C_4  and  C_6
REMARK    5  A    between atoms: C_13  and  C_15
REMARK    6  A    between atoms: C_15  and  N_16
REMARK    7  A    between atoms: N_16  and  C_17
REMARK    8  A    between atoms: C_21  and  N_33
REMARK    9  A    between atoms: C_22  and  C_26
REMARK   10  A    between atoms: N_33  and  C_34
REMARK   11  A    between atoms: C_34  and  C_35
REMARK   12  A    between atoms: C_34  and  C_36
REMARK   13  A    between atoms: C_34  and  C_37
REMARK                            x       y       z     vdW  Elec       q    Type
REMARK                         _______ _______ _______ _____ _____    ______ ____
ROOT
ATOM      1  N   UNL     1      -9.466  -2.318   1.228  0.00  0.00    -0.302 N 
ATOM      2  C   UNL     1     -10.211  -1.666   0.148  0.00  0.00    +0.132 C 
ATOM      3  C   UNL     1      -9.574  -1.848   2.527  0.00  0.00    +0.184 A 
ATOM      4  N   UNL     1     -10.284  -0.852   2.981  0.00  0.00    -0.140 NA
ATOM      5  N   UNL     1     -10.275  -0.513   4.331  0.00  0.00    -0.190 N 
ATOM      6  C   UNL     1     -10.858   0.426   5.168  0.00  0.00    +0.150 A 
ATOM      7  C   UNL     1     -10.404   0.191   6.431  0.00  0.00    +0.114 A 
ATOM      8  N   UNL     1      -9.558  -0.870   6.377  0.00  0.00    -0.218 NA
ATOM      9  C   UNL     1      -9.483  -1.282   5.147  0.00  0.00    +0.199 A 
ATOM     10  S   UNL     1      -8.784  -2.455   4.008  0.00  0.00    -0.013 S 
ENDROOT
BRANCH   7  11
ATOM     11  C   UNL     1     -10.767   0.957   7.646  0.00  0.00    +0.004 A 
ATOM     12  C   UNL     1     -10.997   2.331   7.564  0.00  0.00    +0.013 A 
ATOM     13  C   UNL     1     -11.335   3.040   8.698  0.00  0.00    +0.039 A 
ATOM     14  C   UNL     1     -11.447   2.390   9.917  0.00  0.00    +0.123 A 
ATOM     15  C   UNL     1     -11.219   1.026  10.003  0.00  0.00    +0.039 A 
ATOM     16  C   UNL     1     -10.886   0.307   8.874  0.00  0.00    +0.013 A 
ATOM     17  F   UNL     1     -11.777   3.089  11.025  0.00  0.00    -0.205 F 
ENDBRANCH   7  11
BRANCH   6  18
ATOM     18  N   UNL     1     -11.750   1.433   4.785  0.00  0.00    -0.323 N 
ATOM     19  H   UNL     1     -12.171   1.989   5.458  0.00  0.00    +0.148 HD
BRANCH  18  20
ATOM     20  C   UNL     1     -12.049   1.646   3.366  0.00  0.00    +0.025 C 
ATOM     21  C   UNL     1     -12.757   0.412   2.803  0.00  0.00    +0.031 C 
ATOM     22  C   UNL     1     -12.956   2.868   3.214  0.00  0.00    +0.031 C 
ATOM     23  C   UNL     1     -10.745   1.880   2.600  0.00  0.00    +0.031 C 
ENDBRANCH  18  20
ENDBRANCH   6  18
BRANCH   1  24
ATOM     24  C   UNL     1      -8.607  -3.468   0.934  0.00  0.00    +0.202 C 
BRANCH  24  31
ATOM     25  C   UNL     1      -4.479  -4.013  -1.370  0.00  0.00    +0.115 C 
ATOM     26  C   UNL     1      -4.639  -5.535  -1.325  0.00  0.00    +0.018 C 
ATOM     27  C   UNL     1      -6.106  -5.888  -1.070  0.00  0.00    +0.020 C 
ATOM     28  C   UNL     1      -6.537  -5.316   0.285  0.00  0.00    +0.108 C 
ATOM     29  N   UNL     1      -6.251  -3.875   0.302  0.00  0.00    -0.299 N 
ATOM     30  C   UNL     1      -4.891  -3.420  -0.019  0.00  0.00    +0.122 C 
ATOM     31  C   UNL     1      -7.217  -2.987   0.607  0.00  0.00    +0.233 C 
ATOM     32  O   UNL     1      -6.969  -1.800   0.618  0.00  0.00    -0.274 OA
BRANCH  25  33
ATOM     33  C   UNL     1      -3.040  -3.667  -1.653  0.00  0.00    +0.312 C 
ATOM     34  O   UNL     1      -2.226  -4.547  -1.805  0.00  0.00    -0.250 OA
BRANCH  33  35
ATOM     35  O   UNL     1      -2.663  -2.382  -1.737  0.00  0.00    -0.465 OA
BRANCH  35  37
ATOM     36  C   UNL     1      -1.045  -0.617  -2.066  0.00  0.00    +0.048 C 
ATOM     37  C   UNL     1      -1.283  -2.127  -2.008  0.00  0.00    +0.229 C 
ENDBRANCH  35  37
ENDBRANCH  33  35
ENDBRANCH  25  33
ENDBRANCH  24  31
ENDBRANCH   1  24
TORSDOF 8
