REMARK  Name = ZINC38653449
REMARK  7 active torsions:
REMARK  status: ('A' for Active; 'I' for Inactive)
REMARK    1  A    between atoms: C_1  and  C_2
REMARK    2  A    between atoms: C_2  and  O_3
REMARK    3  A    between atoms: O_3  and  C_4
REMARK    4  A    between atoms: C_4  and  C_6
REMARK    5  A    between atoms: C_8  and  N_17
REMARK    6  A    between atoms: C_11  and  C_16
REMARK    7  A    between atoms: C_18  and  C_20
REMARK                            x       y       z     vdW  Elec       q    Type
REMARK                         _______ _______ _______ _____ _____    ______ ____
ROOT
ATOM      1  C   UNL     1       0.471  -3.793  -4.214  0.00  0.00    +0.234 C 
ATOM      2  C   UNL     1       0.651  -2.381  -3.701  0.00  0.00    +0.053 C 
ATOM      3  C   UNL     1       1.444  -2.489  -2.573  0.00  0.00    +0.018 A 
ATOM      4  C   UNL     1       1.952  -1.528  -1.666  0.00  0.00    +0.015 A 
ATOM      5  C   UNL     1       2.722  -1.927  -0.624  0.00  0.00    -0.050 A 
ATOM      6  C   UNL     1       3.033  -3.274  -0.416  0.00  0.00    +0.005 A 
ATOM      7  C   UNL     1       2.582  -4.248  -1.244  0.00  0.00    +0.026 A 
ATOM      8  C   UNL     1       1.770  -3.910  -2.357  0.00  0.00    +0.045 A 
ATOM      9  N   UNL     1       1.215  -4.657  -3.292  0.00  0.00    -0.367 N 
ATOM     10  C   UNL     1       3.256  -0.894   0.334  0.00  0.00    +0.044 C 
ATOM     11  H   UNL     1       1.288  -5.622  -3.359  0.00  0.00    +0.161 HD
ENDROOT
BRANCH   2  12
ATOM     12  N   UNL     1       0.137  -1.240  -4.239  0.00  0.00    -0.286 N 
ATOM     13  C   UNL     1      -0.760  -1.312  -5.243  0.00  0.00    +0.223 C 
ATOM     14  O   UNL     1      -1.189  -2.389  -5.596  0.00  0.00    -0.275 OA
ATOM     15  H   UNL     1       0.417  -0.375  -3.900  0.00  0.00    +0.155 HD
BRANCH  13  16
ATOM     16  C   UNL     1      -1.229  -0.053  -5.926  0.00  0.00    +0.049 C 
ATOM     17  C   UNL     1      -0.031   0.665  -6.551  0.00  0.00    +0.019 C 
ATOM     18  C   UNL     1      -0.508   1.943  -7.245  0.00  0.00    -0.008 C 
ATOM     19  C   UNL     1      -1.516   1.584  -8.338  0.00  0.00    +0.007 C 
ATOM     20  C   UNL     1      -2.713   0.866  -7.713  0.00  0.00    -0.008 C 
ATOM     21  C   UNL     1      -2.237  -0.412  -7.020  0.00  0.00    +0.019 C 
ATOM     22  C   UNL     1      -3.380   1.785  -6.687  0.00  0.00    +0.026 C 
ATOM     23  C   UNL     1      -2.372   2.143  -5.593  0.00  0.00    +0.047 C 
ATOM     24  C   UNL     1      -1.175   2.861  -6.218  0.00  0.00    +0.026 C 
ATOM     25  C   UNL     1      -1.896   0.866  -4.900  0.00  0.00    +0.039 C 
ATOM     26 CL   UNL     1      -3.158   3.226  -4.384  0.00  0.00    -0.118 Cl
ENDBRANCH  13  16
ENDBRANCH   2  12
BRANCH   1  27
ATOM     27  C   UNL     1       1.034  -3.915  -5.607  0.00  0.00    +0.336 C 
ATOM     28  O   UNL     1       2.176  -4.275  -5.768  0.00  0.00    -0.248 OA
BRANCH  27  29
ATOM     29  O   UNL     1       0.266  -3.623  -6.668  0.00  0.00    -0.463 OA
BRANCH  29  31
ATOM     30  C   UNL     1      -0.156  -3.387  -9.036  0.00  0.00    +0.048 C 
ATOM     31  C   UNL     1       0.864  -3.760  -7.959  0.00  0.00    +0.229 C 
ENDBRANCH  29  31
ENDBRANCH  27  29
ENDBRANCH   1  27
TORSDOF 5
