REMARK  Name = ZINC09380972
REMARK  9 active torsions:
REMARK  status: ('A' for Active; 'I' for Inactive)
REMARK    1  A    between atoms: C_1  and  C_2
REMARK    2  A    between atoms: C_2  and  S_3
REMARK    3  A    between atoms: S_3  and  N_6
REMARK    4  A    between atoms: N_6  and  C_7
REMARK    5  A    between atoms: C_11  and  C_13
REMARK    6  A    between atoms: N_15  and  S_26
REMARK    7  A    between atoms: C_16  and  C_19
REMARK    8  A    between atoms: C_22  and  C_25
REMARK    9  A    between atoms: S_26  and  C_29
REMARK                            x       y       z     vdW  Elec       q    Type
REMARK                         _______ _______ _______ _____ _____    ______ ____
ROOT
ATOM      1  C   UNL     1      -2.496   1.086   0.210  0.00  0.00    +0.070 C 
ATOM      2  N   UNL     1      -2.619  -0.195   0.264  0.00  0.00    -0.167 NA
ATOM      3  N   UNL     1      -3.938  -0.638   0.337  0.00  0.00    -0.115 N 
ATOM      4  C   UNL     1      -4.833   0.530   0.333  0.00  0.00    +0.154 C 
ATOM      5  C   UNL     1      -3.865   1.727   0.253  0.00  0.00    +0.088 C 
ENDROOT
BRANCH   4   6
ATOM      6  C   UNL     1      -5.635   0.588   1.607  0.00  0.00    -0.023 A 
ATOM      7  C   UNL     1      -5.049   0.240   2.809  0.00  0.00    +0.006 A 
ATOM      8  C   UNL     1      -5.784   0.298   3.979  0.00  0.00    +0.004 A 
ATOM      9  C   UNL     1      -7.108   0.694   3.944  0.00  0.00    -0.050 A 
ATOM     10  C   UNL     1      -7.696   1.037   2.741  0.00  0.00    +0.004 A 
ATOM     11  C   UNL     1      -6.959   0.984   1.572  0.00  0.00    +0.006 A 
ATOM     12  C   UNL     1      -7.911   0.752   5.218  0.00  0.00    +0.044 C 
ENDBRANCH   4   6
BRANCH   1  17
ATOM     13  C   UNL     1       1.187   1.806   0.018  0.00  0.00    +0.048 A 
ATOM     14  C   UNL     1       1.185   3.196  -0.033  0.00  0.00    +0.024 A 
ATOM     15  C   UNL     1      -0.009   3.891  -0.001  0.00  0.00    +0.002 A 
ATOM     16  C   UNL     1      -1.208   3.212   0.081  0.00  0.00    +0.010 A 
ATOM     17  C   UNL     1      -1.216   1.815   0.128  0.00  0.00    -0.000 A 
ATOM     18  C   UNL     1      -0.010   1.113   0.101  0.00  0.00    +0.034 A 
BRANCH  13  19
ATOM     19  N   UNL     1       2.397   1.109  -0.015  0.00  0.00    -0.221 N 
ATOM     20  H   UNL     1       2.557   0.385   0.611  0.00  0.00    +0.173 HD
BRANCH  19  21
ATOM     21  S   UNL     1       3.559   1.517  -1.122  0.00  0.00    +0.043 S 
ATOM     22  O   UNL     1       3.781   2.905  -0.919  0.00  0.00    -0.155 OA
ATOM     23  O   UNL     1       4.604   0.577  -0.914  0.00  0.00    -0.155 OA
BRANCH  21  25
ATOM     24  C   UNL     1       3.811   1.467  -3.846  0.00  0.00    +0.030 C 
ATOM     25  C   UNL     1       2.781   1.238  -2.737  0.00  0.00    +0.185 C 
ENDBRANCH  21  25
ENDBRANCH  19  21
ENDBRANCH  13  19
ENDBRANCH   1  17
BRANCH   3  26
ATOM     26  S   UNL     1      -4.419  -2.221   0.416  0.00  0.00    +0.089 S 
ATOM     27  O   UNL     1      -3.369  -2.933   1.056  0.00  0.00    -0.149 OA
ATOM     28  O   UNL     1      -5.750  -2.216   0.915  0.00  0.00    -0.149 OA
BRANCH  26  29
ATOM     29  C   UNL     1      -4.503  -2.823  -1.237  0.00  0.00    +0.110 A 
ATOM     30  C   UNL     1      -5.682  -2.719  -1.952  0.00  0.00    +0.030 A 
ATOM     31  C   UNL     1      -5.746  -3.186  -3.251  0.00  0.00    +0.022 A 
ATOM     32  C   UNL     1      -4.634  -3.768  -3.833  0.00  0.00    +0.041 A 
ATOM     33  C   UNL     1      -3.456  -3.877  -3.115  0.00  0.00    +0.022 A 
ATOM     34  C   UNL     1      -3.391  -3.404  -1.818  0.00  0.00    +0.030 A 
ATOM     35 CL   UNL     1      -4.716  -4.361  -5.462  0.00  0.00    -0.084 Cl
ENDBRANCH  26  29
ENDBRANCH   3  26
TORSDOF 7
