REMARK  Name = ZINC63165552
REMARK  7 active torsions:
REMARK  status: ('A' for Active; 'I' for Inactive)
REMARK    1  A    between atoms: C_1  and  C_2
REMARK    2  A    between atoms: C_2  and  C_3
REMARK    3  A    between atoms: C_2  and  C_4
REMARK    4  A    between atoms: C_8  and  N_11
REMARK    5  A    between atoms: C_12  and  C_14
REMARK    6  A    between atoms: C_14  and  S_15
REMARK    7  A    between atoms: S_15  and  C_16
REMARK                            x       y       z     vdW  Elec       q    Type
REMARK                         _______ _______ _______ _____ _____    ______ ____
ROOT
ATOM      1  C   UNL     1      -6.535  -3.240  -0.898  0.00  0.00    +0.168 C 
ENDROOT
BRANCH   1   3
ATOM      2  N   UNL     1      -4.121  -2.722  -0.761  0.00  0.00    -0.283 N 
ATOM      3  C   UNL     1      -5.205  -2.930  -1.534  0.00  0.00    +0.225 C 
ATOM      4  O   UNL     1      -5.110  -2.867  -2.741  0.00  0.00    -0.275 OA
ATOM      5  H   UNL     1      -4.197  -2.772   0.205  0.00  0.00    +0.152 HD
BRANCH   2   9
ATOM      6  C   UNL     1      -1.433  -0.534   0.013  0.00  0.00    +0.191 C 
ATOM      7  N   UNL     1      -2.149  -0.178  -1.234  0.00  0.00    -0.175 NA
ATOM      8  N   UNL     1      -2.770  -1.018  -1.854  0.00  0.00    -0.157 NA
ATOM      9  C   UNL     1      -2.827  -2.420  -1.379  0.00  0.00    +0.275 C 
ATOM     10  S   UNL     1      -1.472  -2.377  -0.121  0.00  0.00    -0.085 S 
BRANCH   6  12
ATOM     11  C   UNL     1      -0.019   1.526   0.010  0.00  0.00    +0.010 C 
ATOM     12  C   UNL     1       0.002  -0.004   0.002  0.00  0.00    +0.019 C 
ATOM     13  C   UNL     1       0.742  -0.511   1.242  0.00  0.00    +0.010 C 
ENDBRANCH   6  12
ENDBRANCH   2   9
ENDBRANCH   1   3
BRANCH   1  14
ATOM     14  S   UNL     1      -7.786  -3.467  -2.192  0.00  0.00    -0.106 S 
BRANCH  14  15
ATOM     15  C   UNL     1      -9.308  -3.829  -1.274  0.00  0.00    +0.236 C 
ATOM     16  N   UNL     1      -9.598  -2.741  -0.331  0.00  0.00    -0.355 N 
ATOM     17  C   UNL     1      -9.592  -3.250   0.867  0.00  0.00    +0.061 A 
ATOM     18  C   UNL     1      -9.813  -2.671   2.199  0.00  0.00    +0.027 A 
ATOM     19  C   UNL     1      -9.743  -3.463   3.288  0.00  0.00    +0.002 A 
ATOM     20  C   UNL     1      -9.464  -4.839   3.208  0.00  0.00    +0.002 A 
ATOM     21  C   UNL     1      -9.247  -5.470   2.037  0.00  0.00    +0.027 A 
ATOM     22  C   UNL     1      -9.297  -4.706   0.782  0.00  0.00    +0.061 A 
ATOM     23  N   UNL     1      -9.132  -5.041  -0.465  0.00  0.00    -0.355 N 
ATOM     24  H   UNL     1      -9.764  -1.812  -0.559  0.00  0.00    +0.162 HD
ATOM     25  H   UNL     1      -8.930  -5.929  -0.798  0.00  0.00    +0.162 HD
ENDBRANCH  14  15
ENDBRANCH   1  14
TORSDOF 5
