REMARK  Name = ZINC41186906
REMARK  7 active torsions:
REMARK  status: ('A' for Active; 'I' for Inactive)
REMARK    1  A    between atoms: C_1  and  C_2
REMARK    2  A    between atoms: C_2  and  C_3
REMARK    3  A    between atoms: C_2  and  C_4
REMARK    4  A    between atoms: C_7  and  C_9
REMARK    5  A    between atoms: C_9  and  C_11
REMARK    6  A    between atoms: C_9  and  N_21
REMARK    7  A    between atoms: N_21  and  C_22
REMARK                            x       y       z     vdW  Elec       q    Type
REMARK                         _______ _______ _______ _____ _____    ______ ____
ROOT
ATOM      1  C   UNL     1      -3.528  -3.307  -1.292  0.00  0.00    +0.016 C 
ENDROOT
BRANCH   1   2
ATOM      2  C   UNL     1      -4.326  -2.901  -2.504  0.00  0.00    -0.050 A 
ATOM      3  C   UNL     1      -3.763  -2.993  -3.763  0.00  0.00    +0.052 A 
ATOM      4  C   UNL     1      -4.495  -2.620  -4.879  0.00  0.00    +0.168 A 
ATOM      5  C   UNL     1      -5.798  -2.152  -4.728  0.00  0.00    +0.180 A 
ATOM      6  C   UNL     1      -6.356  -2.062  -3.463  0.00  0.00    +0.063 A 
ATOM      7  C   UNL     1      -5.621  -2.442  -2.354  0.00  0.00    +0.021 A 
ATOM      8 BR   UNL     1      -8.125  -1.427  -3.253  0.00  0.00    -0.046 Br
ATOM      9  O   UNL     1      -6.300  -1.854  -5.963  0.00  0.00    -0.451 OA
ATOM     10  C   UNL     1      -5.155  -1.757  -6.830  0.00  0.00    +0.466 C 
ATOM     11  O   UNL     1      -4.181  -2.615  -6.207  0.00  0.00    -0.453 OA
ENDBRANCH   1   2
BRANCH   1  15
ATOM     12  C   UNL     1      -1.412  -0.526   0.013  0.00  0.00    +0.051 A 
ATOM     13  C   UNL     1      -2.401   0.117   0.685  0.00  0.00    +0.070 A 
ATOM     14  S   UNL     1      -3.788  -0.949   0.329  0.00  0.00    -0.082 S 
ATOM     15  C   UNL     1      -2.975  -2.077  -0.619  0.00  0.00    +0.069 A 
ATOM     16  N   UNL     1      -1.746  -1.624  -0.634  0.00  0.00    -0.250 NA
BRANCH  12  18
ATOM     17  C   UNL     1      -0.019   1.526   0.010  0.00  0.00    +0.014 C 
ATOM     18  C   UNL     1       0.002  -0.004   0.002  0.00  0.00    +0.032 C 
ATOM     19  C   UNL     1       0.742  -0.511   1.242  0.00  0.00    +0.014 C 
ENDBRANCH  12  18
ENDBRANCH   1  15
BRANCH   1  20
ATOM     20  N   UNL     1      -4.396  -4.030  -0.353  0.00  0.00    +0.386 N 
ATOM     21  C   UNL     1      -4.839  -5.289  -0.967  0.00  0.00    -0.099 C 
ATOM     22  H   UNL     1      -3.884  -4.230   0.493  0.00  0.00    -0.085 HD
ATOM     23  H   UNL     1      -5.200  -3.462  -0.133  0.00  0.00    -0.085 HD
ENDBRANCH   1  20
TORSDOF 4
