REMARK  Name = ZINC39725641
REMARK  9 active torsions:
REMARK  status: ('A' for Active; 'I' for Inactive)
REMARK    1  A    between atoms: C_1  and  C_2
REMARK    2  A    between atoms: C_2  and  C_3
REMARK    3  A    between atoms: C_3  and  C_4
REMARK    4  A    between atoms: C_4  and  C_5
REMARK    5  A    between atoms: C_8  and  N_11
REMARK    6  A    between atoms: C_12  and  C_14
REMARK    7  A    between atoms: C_14  and  S_15
REMARK    8  A    between atoms: S_15  and  C_16
REMARK    9  A    between atoms: N_30  and  C_31
REMARK                            x       y       z     vdW  Elec       q    Type
REMARK                         _______ _______ _______ _____ _____    ______ ____
ROOT
ATOM      1  C   UNL     1       3.507  -4.911  11.164  0.00  0.00    +0.259 C 
ATOM      2  N   UNL     1       4.029  -6.272  11.020  0.00  0.00    -0.248 NA
ATOM      3  C   UNL     1       5.297  -6.482  10.912  0.00  0.00    +0.101 C 
ATOM      4  C   UNL     1       6.148  -7.685  10.757  0.00  0.00    +0.028 A 
ATOM      5  C   UNL     1       5.896  -9.041  10.670  0.00  0.00    +0.012 A 
ATOM      6  C   UNL     1       6.950  -9.931  10.524  0.00  0.00    +0.001 A 
ATOM      7  C   UNL     1       8.251  -9.465  10.466  0.00  0.00    +0.002 A 
ATOM      8  C   UNL     1       8.521  -8.113  10.552  0.00  0.00    +0.028 A 
ATOM      9  C   UNL     1       7.472  -7.197  10.699  0.00  0.00    +0.074 A 
ATOM     10  N   UNL     1       7.463  -5.845  10.805  0.00  0.00    -0.240 NA
ATOM     11  C   UNL     1       6.263  -5.350  10.930  0.00  0.00    +0.152 C 
ATOM     12  C   UNL     1       5.753  -3.971  11.074  0.00  0.00    +0.274 C 
ATOM     13  O   UNL     1       6.522  -3.030  11.091  0.00  0.00    -0.268 OA
ATOM     14  N   UNL     1       4.424  -3.768  11.186  0.00  0.00    -0.232 N 
ENDROOT
BRANCH  14  15
ATOM     15  C   UNL     1       3.923  -2.469  11.322  0.00  0.00    +0.075 A 
ATOM     16  C   UNL     1       3.577  -1.734  10.196  0.00  0.00    +0.026 A 
ATOM     17  C   UNL     1       3.083  -0.452  10.334  0.00  0.00    +0.002 A 
ATOM     18  C   UNL     1       2.931   0.101  11.592  0.00  0.00    +0.003 A 
ATOM     19  C   UNL     1       3.274  -0.626  12.717  0.00  0.00    +0.040 A 
ATOM     20  C   UNL     1       3.764  -1.913  12.587  0.00  0.00    +0.145 A 
ATOM     21  F   UNL     1       4.093  -2.626  13.687  0.00  0.00    -0.204 F 
ENDBRANCH  14  15
BRANCH   1  22
ATOM     22  S   UNL     1       2.337  -4.636   9.805  0.00  0.00    -0.106 S 
BRANCH  22  23
ATOM     23  C   UNL     1       3.365  -4.736   8.314  0.00  0.00    +0.168 C 
BRANCH  23  25
ATOM     24  N   UNL     1       3.079  -4.442   5.875  0.00  0.00    -0.285 N 
ATOM     25  C   UNL     1       2.523  -4.427   7.103  0.00  0.00    +0.227 C 
ATOM     26  O   UNL     1       1.346  -4.165   7.232  0.00  0.00    -0.275 OA
ATOM     27  H   UNL     1       4.001  -4.722   5.763  0.00  0.00    +0.155 HD
BRANCH  24  31
ATOM     28  C   UNL     1       0.839  -3.281   2.560  0.00  0.00    -0.047 A 
ATOM     29  C   UNL     1       0.625  -2.674   3.784  0.00  0.00    +0.005 A 
ATOM     30  C   UNL     1       1.366  -3.057   4.885  0.00  0.00    +0.023 A 
ATOM     31  C   UNL     1       2.326  -4.052   4.761  0.00  0.00    +0.033 A 
ATOM     32  C   UNL     1       2.538  -4.660   3.531  0.00  0.00    +0.023 A 
ATOM     33  C   UNL     1       1.790  -4.277   2.435  0.00  0.00    +0.005 A 
BRANCH  28  34
ATOM     34  C   UNL     1       0.028  -2.861   1.361  0.00  0.00    +0.035 C 
BRANCH  34  35
ATOM     35  C   UNL     1      -1.241  -3.712   1.280  0.00  0.00    +0.004 C 
BRANCH  35  37
ATOM     36  C   UNL     1      -3.333  -4.136  -0.018  0.00  0.00    +0.004 C 
ATOM     37  C   UNL     1      -2.064  -3.285   0.062  0.00  0.00    -0.003 C 
ENDBRANCH  35  37
ENDBRANCH  34  35
ENDBRANCH  28  34
ENDBRANCH  24  31
ENDBRANCH  23  25
ENDBRANCH  22  23
ENDBRANCH   1  22
TORSDOF 8
