REMARK  Name = ZINC60348092
REMARK  5 active torsions:
REMARK  status: ('A' for Active; 'I' for Inactive)
REMARK    1  A    between atoms: C_1  and  C_2
REMARK    2  A    between atoms: C_5  and  C_35
REMARK    3  A    between atoms: C_6  and  S_8
REMARK    4  A    between atoms: S_8  and  C_11
REMARK    5  A    between atoms: C_11  and  C_16
REMARK                            x       y       z     vdW  Elec       q    Type
REMARK                         _______ _______ _______ _____ _____    ______ ____
ROOT
ATOM      1  C   UNL     1      -2.342  -3.403   2.288  0.00  0.00    +0.243 C 
ATOM      2  O   UNL     1      -3.330  -3.270   2.979  0.00  0.00    -0.273 OA
ATOM      3  N   UNL     1      -2.163  -2.614   1.210  0.00  0.00    -0.298 N 
ATOM      4  C   UNL     1      -3.160  -1.575   0.953  0.00  0.00    +0.109 C 
ATOM      5  C   UNL     1      -2.631  -0.270   1.512  0.00  0.00    +0.038 C 
ATOM      6  C   UNL     1      -1.750   0.435   0.477  0.00  0.00    +0.109 C 
ATOM      7  N   UNL     1      -0.871  -0.496  -0.246  0.00  0.00    -0.301 N 
ATOM      8  C   UNL     1      -0.140  -1.569   0.406  0.00  0.00    +0.127 C 
ATOM      9  C   UNL     1      -1.016  -2.846   0.403  0.00  0.00    +0.127 C 
ATOM     10  C   UNL     1      -0.735  -0.345  -1.605  0.00  0.00    +0.174 A 
ATOM     11  N   UNL     1      -0.139  -1.219  -2.414  0.00  0.00    -0.327 N 
ATOM     12  H   UNL     1       0.267  -2.057  -2.143  0.00  0.00    +0.169 HD
ATOM     13  C   UNL     1      -0.196  -0.734  -3.694  0.00  0.00    +0.065 A 
ATOM     14  C   UNL     1       0.253  -1.206  -4.924  0.00  0.00    +0.028 A 
ATOM     15  C   UNL     1       0.036  -0.464  -6.064  0.00  0.00    +0.002 A 
ATOM     16  C   UNL     1      -0.627   0.753  -5.995  0.00  0.00    +0.002 A 
ATOM     17  C   UNL     1      -1.077   1.236  -4.785  0.00  0.00    +0.028 A 
ATOM     18  C   UNL     1      -0.867   0.498  -3.624  0.00  0.00    +0.065 A 
ATOM     19  N   UNL     1      -1.186   0.693  -2.306  0.00  0.00    -0.327 N 
ATOM     20  H   UNL     1      -1.659   1.459  -1.944  0.00  0.00    +0.169 HD
ENDROOT
BRANCH   1  21
ATOM     21  C   UNL     1      -1.315  -4.449   2.635  0.00  0.00    +0.168 C 
ATOM     22  C   UNL     1      -0.228  -3.858   3.567  0.00  0.00    +0.039 C 
ATOM     23  C   UNL     1       0.705  -3.118   2.576  0.00  0.00    +0.003 C 
ATOM     24  C   UNL     1       0.746  -4.036   1.337  0.00  0.00    +0.003 C 
ATOM     25  C   UNL     1      -0.538  -4.883   1.375  0.00  0.00    +0.039 C 
BRANCH  21  26
ATOM     26  S   UNL     1      -2.108  -5.881   3.416  0.00  0.00    +0.011 S 
ATOM     27  O   UNL     1      -1.332  -6.331   4.518  0.00  0.00    -0.168 OA
ATOM     28  O   UNL     1      -2.554  -6.795   2.423  0.00  0.00    -0.168 OA
BRANCH  26  34
ATOM     29  C   UNL     1      -7.311  -5.399   3.550  0.00  0.00    +0.044 C 
ATOM     30  C   UNL     1      -5.972  -5.057   4.150  0.00  0.00    -0.049 A 
ATOM     31  C   UNL     1      -5.901  -4.244   5.266  0.00  0.00    +0.004 A 
ATOM     32  C   UNL     1      -4.673  -3.930   5.816  0.00  0.00    +0.005 A 
ATOM     33  C   UNL     1      -3.514  -4.430   5.251  0.00  0.00    -0.026 A 
ATOM     34  C   UNL     1      -3.585  -5.244   4.136  0.00  0.00    +0.092 A 
ATOM     35  C   UNL     1      -4.814  -5.561   3.588  0.00  0.00    +0.030 A 
ATOM     36  C   UNL     1      -2.175  -4.088   5.850  0.00  0.00    +0.046 C 
ENDBRANCH  26  34
ENDBRANCH  21  26
ENDBRANCH   1  21
TORSDOF 3
