REMARK  Name = ZINC63141963
REMARK  6 active torsions:
REMARK  status: ('A' for Active; 'I' for Inactive)
REMARK    1  A    between atoms: C_4  and  C_7
REMARK    2  A    between atoms: C_7  and  C_8
REMARK    3  A    between atoms: C_8  and  C_9
REMARK    4  A    between atoms: N_28  and  C_31
REMARK    5  A    between atoms: C_31  and  C_32
REMARK    6  A    between atoms: C_32  and  C_33
REMARK                            x       y       z     vdW  Elec       q    Type
REMARK                         _______ _______ _______ _____ _____    ______ ____
ROOT
ATOM      1  C   UNL     1       5.534  -1.647   1.276  0.00  0.00    +0.104 C 
ATOM      2  C   UNL     1       5.972  -2.136   2.656  0.00  0.00    +0.127 C 
ATOM      3  C   UNL     1       7.457  -2.470   2.529  0.00  0.00    -0.034 C 
ATOM      4  C   UNL     1       7.583  -3.761   2.803  0.00  0.00    -0.001 A 
ATOM      5  C   UNL     1       8.764  -4.638   2.867  0.00  0.00    +0.010 A 
ATOM      6  C   UNL     1       8.528  -5.939   3.179  0.00  0.00    +0.001 A 
ATOM      7  C   UNL     1       7.251  -6.451   3.429  0.00  0.00    +0.002 A 
ATOM      8  C   UNL     1       6.110  -5.718   3.393  0.00  0.00    +0.026 A 
ATOM      9  C   UNL     1       6.230  -4.333   3.078  0.00  0.00    +0.043 A 
ATOM     10  N   UNL     1       5.302  -3.400   2.990  0.00  0.00    -0.376 N 
ATOM     11  C   UNL     1       8.459  -1.422   2.130  0.00  0.00    +0.065 C 
ATOM     12  C   UNL     1       7.889  -0.561   1.032  0.00  0.00    +0.167 C 
ATOM     13  N   UNL     1       6.487  -0.706   0.707  0.00  0.00    -0.283 N 
ATOM     14  C   UNL     1       6.029   0.117  -0.294  0.00  0.00    +0.234 C 
ATOM     15  O   UNL     1       4.859   0.138  -0.613  0.00  0.00    -0.274 OA
ATOM     16  C   UNL     1       7.053   0.996  -0.980  0.00  0.00    +0.203 C 
ATOM     17  N   UNL     1       8.257   0.189  -1.251  0.00  0.00    -0.291 N 
ATOM     18  C   UNL     1       8.710  -0.597  -0.232  0.00  0.00    +0.237 C 
ATOM     19  O   UNL     1       9.710  -1.277  -0.334  0.00  0.00    -0.274 OA
ATOM     20  H   UNL     1       4.348  -3.518   3.117  0.00  0.00    +0.160 HD
ENDROOT
BRANCH   1  21
ATOM     21  C   UNL     1       4.171  -0.963   1.399  0.00  0.00    +0.029 C 
BRANCH  21  22
ATOM     22  C   UNL     1       4.328   0.350   2.168  0.00  0.00    +0.037 C 
BRANCH  22  26
ATOM     23  C   UNL     1       0.533   2.291   2.462  0.00  0.00    +0.000 A 
ATOM     24  C   UNL     1       0.932   1.400   3.441  0.00  0.00    +0.000 A 
ATOM     25  C   UNL     1       2.160   0.772   3.346  0.00  0.00    +0.003 A 
ATOM     26  C   UNL     1       2.989   1.034   2.271  0.00  0.00    -0.047 A 
ATOM     27  C   UNL     1       2.590   1.924   1.292  0.00  0.00    +0.003 A 
ATOM     28  C   UNL     1       1.363   2.553   1.387  0.00  0.00    +0.000 A 
ENDBRANCH  22  26
ENDBRANCH  21  22
ENDBRANCH   1  21
BRANCH  17  29
ATOM     29  C   UNL     1       8.931   0.225  -2.551  0.00  0.00    +0.113 C 
BRANCH  29  30
ATOM     30  C   UNL     1       9.997   1.322  -2.541  0.00  0.00    +0.054 C 
BRANCH  30  31
ATOM     31  C   UNL     1      10.691   1.360  -3.879  0.00  0.00    -0.046 A 
ATOM     32  C   UNL     1      11.814   0.584  -4.097  0.00  0.00    +0.005 A 
ATOM     33  C   UNL     1      12.450   0.618  -5.324  0.00  0.00    +0.020 A 
ATOM     34  C   UNL     1      11.963   1.429  -6.333  0.00  0.00    +0.041 A 
ATOM     35  C   UNL     1      10.839   2.206  -6.114  0.00  0.00    +0.020 A 
ATOM     36  C   UNL     1      10.200   2.167  -4.889  0.00  0.00    +0.005 A 
ATOM     37 CL   UNL     1      12.762   1.473  -7.873  0.00  0.00    -0.084 Cl
ENDBRANCH  30  31
ENDBRANCH  29  30
ENDBRANCH  17  29
TORSDOF 6
