REMARK  Name = ZINC65227839
REMARK  6 active torsions:
REMARK  status: ('A' for Active; 'I' for Inactive)
REMARK    1  A    between atoms: C_1  and  C_2
REMARK    2  A    between atoms: C_6  and  C_8
REMARK    3  A    between atoms: C_8  and  N_9
REMARK    4  A    between atoms: C_10  and  C_12
REMARK    5  A    between atoms: C_20  and  C_25
REMARK    6  A    between atoms: C_27  and  C_30
REMARK                            x       y       z     vdW  Elec       q    Type
REMARK                         _______ _______ _______ _____ _____    ______ ____
ROOT
ATOM      1  C   UNL     1       3.147  -3.950   4.484  0.00  0.00    +0.092 C 
ATOM      2  C   UNL     1       3.868  -2.612   4.666  0.00  0.00    +0.016 C 
ATOM      3  C   UNL     1       5.325  -2.865   5.058  0.00  0.00    +0.020 C 
ATOM      4  C   UNL     1       5.368  -3.623   6.389  0.00  0.00    +0.106 C 
ATOM      5  N   UNL     1       4.556  -4.841   6.266  0.00  0.00    -0.315 N 
ATOM      6  C   UNL     1       3.165  -4.720   5.808  0.00  0.00    +0.119 C 
ATOM      7  C   UNL     1       5.092  -6.082   6.576  0.00  0.00    +0.110 A 
ATOM      8  C   UNL     1       5.067  -6.540   7.902  0.00  0.00    +0.060 A 
ATOM      9  C   UNL     1       5.612  -7.791   8.191  0.00  0.00    +0.016 A 
ATOM     10  C   UNL     1       6.156  -8.530   7.153  0.00  0.00    +0.018 A 
ATOM     11  C   UNL     1       6.145  -8.012   5.872  0.00  0.00    +0.084 A 
ATOM     12  N   UNL     1       5.619  -6.828   5.619  0.00  0.00    -0.349 N 
ATOM     13  H   UNL     1       5.623  -6.494   4.708  0.00  0.00    +0.167 HD
ENDROOT
BRANCH   8  14
ATOM     14  C   UNL     1       4.472  -5.709   8.976  0.00  0.00    +0.205 A 
ATOM     15  N   UNL     1       4.492  -5.994  10.290  0.00  0.00    -0.191 NA
ATOM     16  C   UNL     1       3.882  -5.058  10.959  0.00  0.00    +0.231 A 
ATOM     17  O   UNL     1       3.446  -4.133  10.094  0.00  0.00    -0.337 OA
ATOM     18  N   UNL     1       3.844  -4.571   8.804  0.00  0.00    -0.056 NA
BRANCH  16  19
ATOM     19  C   UNL     1       3.697  -5.021  12.454  0.00  0.00    +0.078 C 
ATOM     20  C   UNL     1       2.333  -4.461  12.893  0.00  0.00    +0.013 C 
ATOM     21  C   UNL     1       3.084  -3.735  14.023  0.00  0.00    +0.001 C 
ATOM     22  C   UNL     1       4.330  -3.790  13.123  0.00  0.00    +0.013 C 
ENDBRANCH  16  19
ENDBRANCH   8  14
BRANCH   1  24
ATOM     23  N   UNL     1       1.459  -3.034   2.925  0.00  0.00    -0.311 N 
ATOM     24  C   UNL     1       1.720  -3.700   4.067  0.00  0.00    +0.218 C 
ATOM     25  O   UNL     1       0.808  -4.099   4.759  0.00  0.00    -0.275 OA
ATOM     26  H   UNL     1       2.189  -2.714   2.372  0.00  0.00    +0.149 HD
BRANCH  23  27
ATOM     27  C   UNL     1       0.073  -2.791   2.520  0.00  0.00    +0.139 C 
BRANCH  27  33
ATOM     28  C   UNL     1       0.030   1.554   0.036  0.00  0.00    +0.044 C 
ATOM     29  C   UNL     1       0.035   0.047   0.030  0.00  0.00    -0.050 A 
ATOM     30  C   UNL     1       0.023  -0.639  -1.170  0.00  0.00    +0.003 A 
ATOM     31  C   UNL     1       0.027  -2.021  -1.176  0.00  0.00    +0.001 A 
ATOM     32  C   UNL     1       0.043  -2.718   0.018  0.00  0.00    +0.005 A 
ATOM     33  C   UNL     1       0.055  -2.032   1.218  0.00  0.00    -0.030 A 
ATOM     34  C   UNL     1       0.056  -0.649   1.224  0.00  0.00    +0.008 A 
ENDBRANCH  27  33
ENDBRANCH  23  27
ENDBRANCH   1  24
TORSDOF 5
