REMARK  Name = ZINC39746033
REMARK  8 active torsions:
REMARK  status: ('A' for Active; 'I' for Inactive)
REMARK    1  A    between atoms: C_4  and  C_7
REMARK    2  A    between atoms: C_7  and  N_8
REMARK    3  A    between atoms: C_9  and  S_17
REMARK    4  A    between atoms: C_13  and  C_14
REMARK    5  A    between atoms: S_17  and  C_18
REMARK    6  A    between atoms: C_18  and  C_20
REMARK    7  A    between atoms: C_18  and  C_26
REMARK    8  A    between atoms: C_26  and  C_28
REMARK                            x       y       z     vdW  Elec       q    Type
REMARK                         _______ _______ _______ _____ _____    ______ ____
ROOT
ATOM      1  C   UNL     1       7.306  -1.497   1.299  0.00  0.00    +0.150 C 
ENDROOT
BRANCH   1   2
ATOM      2  C   UNL     1       7.528  -2.034   2.690  0.00  0.00    -0.027 A 
ATOM      3  C   UNL     1       8.372  -1.369   3.560  0.00  0.00    +0.005 A 
ATOM      4  C   UNL     1       8.576  -1.861   4.836  0.00  0.00    +0.000 A 
ATOM      5  C   UNL     1       7.935  -3.017   5.241  0.00  0.00    +0.000 A 
ATOM      6  C   UNL     1       7.090  -3.681   4.371  0.00  0.00    +0.000 A 
ATOM      7  C   UNL     1       6.883  -3.186   3.097  0.00  0.00    +0.005 A 
ENDBRANCH   1   2
BRANCH   1   8
ATOM      8  C   UNL     1       8.620  -1.454   0.562  0.00  0.00    +0.179 C 
ATOM      9  O   UNL     1       9.270  -0.429   0.540  0.00  0.00    -0.291 OA
BRANCH   8  10
ATOM     10  C   UNL     1       9.094  -2.604  -0.104  0.00  0.00    +0.024 C 
ATOM     11  C   UNL     1      10.273  -2.733  -0.816  0.00  0.00    +0.006 A 
ATOM     12  C   UNL     1      11.326  -1.833  -1.103  0.00  0.00    +0.010 A 
ATOM     13  C   UNL     1      12.384  -2.237  -1.842  0.00  0.00    +0.001 A 
ATOM     14  C   UNL     1      12.493  -3.540  -2.353  0.00  0.00    +0.002 A 
ATOM     15  C   UNL     1      11.543  -4.475  -2.136  0.00  0.00    +0.026 A 
ATOM     16  C   UNL     1      10.357  -4.118  -1.341  0.00  0.00    +0.043 A 
ATOM     17  N   UNL     1       9.310  -4.806  -0.984  0.00  0.00    -0.380 N 
ATOM     18  C   UNL     1       8.422  -3.958  -0.182  0.00  0.00    +0.152 C 
ATOM     19  H   UNL     1       9.145  -5.734  -1.211  0.00  0.00    +0.160 HD
ENDBRANCH   8  10
ENDBRANCH   1   8
BRANCH   1  20
ATOM     20  S   UNL     1       6.614   0.176   1.399  0.00  0.00    -0.102 S 
BRANCH  20  22
ATOM     21  N   UNL     1       4.152  -0.952   1.338  0.00  0.00    -0.285 N 
ATOM     22  C   UNL     1       4.988  -0.067   2.167  0.00  0.00    +0.238 C 
ATOM     23  N   UNL     1       5.117  -0.797   3.440  0.00  0.00    -0.238 N 
ATOM     24  N   UNL     1       4.394  -1.985   3.281  0.00  0.00    -0.174 NA
ATOM     25  C   UNL     1       3.859  -2.061   2.117  0.00  0.00    +0.121 C 
ATOM     26  H   UNL     1       5.604  -0.512   4.229  0.00  0.00    +0.171 HD
BRANCH  25  27
ATOM     27  C   UNL     1       3.015  -3.219   1.651  0.00  0.00    +0.054 C 
ATOM     28  C   UNL     1       1.973  -3.771   2.626  0.00  0.00    +0.012 C 
ATOM     29  C   UNL     1       3.240  -4.574   2.326  0.00  0.00    +0.012 C 
ENDBRANCH  25  27
BRANCH  21  30
ATOM     30  C   UNL     1       3.711  -0.707  -0.038  0.00  0.00    +0.144 C 
BRANCH  30  34
ATOM     31  C   UNL     1      -0.017   1.378   0.010  0.00  0.00    +0.000 A 
ATOM     32  C   UNL     1       1.171   2.086   0.002  0.00  0.00    +0.000 A 
ATOM     33  C   UNL     1       2.377   1.411  -0.013  0.00  0.00    +0.005 A 
ATOM     34  C   UNL     1       2.396   0.029  -0.020  0.00  0.00    -0.030 A 
ATOM     35  C   UNL     1       1.208  -0.679  -0.012  0.00  0.00    +0.005 A 
ATOM     36  C   UNL     1       0.002  -0.004   0.002  0.00  0.00    +0.000 A 
ENDBRANCH  30  34
ENDBRANCH  21  30
ENDBRANCH  20  22
ENDBRANCH   1  20
TORSDOF 8
