REMARK  Name = ZINC39896057
REMARK  11 active torsions:
REMARK  status: ('A' for Active; 'I' for Inactive)
REMARK    1  A    between atoms: C_1  and  C_2
REMARK    2  A    between atoms: C_2  and  C_3
REMARK    3  A    between atoms: C_6  and  N_9
REMARK    4  A    between atoms: C_12  and  C_29
REMARK    5  A    between atoms: C_16  and  C_17
REMARK    6  A    between atoms: C_16  and  C_19
REMARK    7  A    between atoms: N_21  and  C_22
REMARK    8  A    between atoms: C_22  and  C_23
REMARK    9  A    between atoms: C_29  and  C_30
REMARK   10  A    between atoms: C_33  and  C_37
REMARK   11  A    between atoms: C_34  and  C_36
REMARK                            x       y       z     vdW  Elec       q    Type
REMARK                         _______ _______ _______ _____ _____    ______ ____
ROOT
ATOM      1  N   UNL     1       2.701  -1.980   4.602  0.00  0.00    -0.232 N 
ATOM      2  C   UNL     1       3.968  -2.337   4.484  0.00  0.00    +0.238 C 
ATOM      3  O   UNL     1       4.579  -2.213   3.444  0.00  0.00    -0.274 OA
ATOM      4  C   UNL     1       4.612  -2.911   5.737  0.00  0.00    +0.143 C 
ATOM      5  S   UNL     1       3.191  -2.822   6.904  0.00  0.00    -0.095 S 
ATOM      6  C   UNL     1       2.001  -2.111   5.777  0.00  0.00    +0.098 C 
ATOM      7  C   UNL     1       0.672  -1.769   6.030  0.00  0.00    +0.141 C 
ENDROOT
BRANCH   1  11
ATOM      8  C   UNL     1       0.754  -0.381   1.282  0.00  0.00    -0.048 A 
ATOM      9  C   UNL     1       1.098  -1.720   1.301  0.00  0.00    +0.005 A 
ATOM     10  C   UNL     1       1.743  -2.253   2.400  0.00  0.00    +0.024 A 
ATOM     11  C   UNL     1       2.047  -1.442   3.486  0.00  0.00    +0.042 A 
ATOM     12  C   UNL     1       1.701  -0.098   3.463  0.00  0.00    +0.024 A 
ATOM     13  C   UNL     1       1.061   0.430   2.359  0.00  0.00    +0.005 A 
BRANCH   8  15
ATOM     14  C   UNL     1       1.087   0.705  -0.923  0.00  0.00    +0.009 C 
ATOM     15  C   UNL     1       0.050   0.197   0.081  0.00  0.00    +0.032 C 
ENDBRANCH   8  15
ENDBRANCH   1  11
BRANCH   7  16
ATOM     16  C   UNL     1      -0.206  -1.379   4.928  0.00  0.00    +0.257 C 
ATOM     17  O   UNL     1      -0.441  -0.201   4.724  0.00  0.00    -0.269 OA
ATOM     18  N   UNL     1      -0.755  -2.322   4.137  0.00  0.00    -0.307 N 
ATOM     19  H   UNL     1      -0.516  -3.254   4.256  0.00  0.00    +0.149 HD
BRANCH  18  20
ATOM     20  C   UNL     1      -1.713  -1.938   3.096  0.00  0.00    +0.139 C 
BRANCH  20  21
ATOM     21  C   UNL     1      -2.298  -3.178   2.471  0.00  0.00    -0.030 A 
ATOM     22  C   UNL     1      -1.630  -3.814   1.441  0.00  0.00    +0.005 A 
ATOM     23  C   UNL     1      -2.167  -4.951   0.867  0.00  0.00    +0.000 A 
ATOM     24  C   UNL     1      -3.371  -5.454   1.324  0.00  0.00    +0.000 A 
ATOM     25  C   UNL     1      -4.038  -4.819   2.355  0.00  0.00    +0.000 A 
ATOM     26  C   UNL     1      -3.499  -3.684   2.932  0.00  0.00    +0.005 A 
ENDBRANCH  20  21
ENDBRANCH  18  20
ENDBRANCH   7  16
BRANCH   7  27
ATOM     27  C   UNL     1       0.167  -1.801   7.370  0.00  0.00    +0.107 C 
ATOM     28  N   UNL     1      -0.233  -1.827   8.433  0.00  0.00    -0.191 NA
ENDBRANCH   7  27
BRANCH   4  29
ATOM     29  C   UNL     1       5.061  -4.357   5.516  0.00  0.00    +0.059 C 
BRANCH  29  30
ATOM     30  C   UNL     1       5.800  -4.845   6.736  0.00  0.00    -0.046 A 
ATOM     31  C   UNL     1       7.168  -4.673   6.829  0.00  0.00    +0.004 A 
ATOM     32  C   UNL     1       7.846  -5.121   7.948  0.00  0.00    +0.004 A 
ATOM     33  C   UNL     1       7.155  -5.740   8.973  0.00  0.00    -0.048 A 
ATOM     34  C   UNL     1       5.787  -5.912   8.879  0.00  0.00    -0.047 A 
ATOM     35  C   UNL     1       5.108  -5.460   7.763  0.00  0.00    +0.007 A 
ATOM     36  C   UNL     1       5.034  -6.587   9.996  0.00  0.00    +0.044 C 
ATOM     37  C   UNL     1       7.894  -6.229  10.192  0.00  0.00    +0.044 C 
ENDBRANCH  29  30
ENDBRANCH   4  29
TORSDOF 8
