REMARK  Name = ZINC22011600
REMARK  5 active torsions:
REMARK  status: ('A' for Active; 'I' for Inactive)
REMARK    1  A    between atoms: C_3  and  C_6
REMARK    2  A    between atoms: N_15  and  C_16
REMARK    3  A    between atoms: C_16  and  C_17
REMARK    4  A    between atoms: C_26  and  S_28
REMARK    5  A    between atoms: S_28  and  N_31
REMARK                            x       y       z     vdW  Elec       q    Type
REMARK                         _______ _______ _______ _____ _____    ______ ____
ROOT
ATOM      1  C   UNL     1      -3.203   3.960   5.574  0.00  0.00    +0.203 C 
ATOM      2  O   UNL     1      -2.482   4.896   5.301  0.00  0.00    -0.277 OA
ATOM      3  N   UNL     1      -3.177   2.846   4.815  0.00  0.00    -0.272 N 
ATOM      4  C   UNL     1      -3.998   1.654   5.044  0.00  0.00    +0.118 C 
ATOM      5  C   UNL     1      -3.608   0.674   3.926  0.00  0.00    +0.056 C 
ATOM      6  C   UNL     1      -2.560   1.412   3.123  0.00  0.00    -0.023 A 
ATOM      7  C   UNL     1      -2.362   2.659   3.694  0.00  0.00    +0.040 A 
ATOM      8  C   UNL     1      -1.432   3.527   3.121  0.00  0.00    +0.026 A 
ATOM      9  C   UNL     1      -0.719   3.144   2.005  0.00  0.00    +0.030 A 
ATOM     10  C   UNL     1      -0.927   1.900   1.439  0.00  0.00    +0.105 A 
ATOM     11  C   UNL     1      -1.846   1.034   2.002  0.00  0.00    +0.034 A 
ENDROOT
BRANCH  10  12
ATOM     12  S   UNL     1      -0.017   1.417   0.010  0.00  0.00    +0.056 S 
ATOM     13  O   UNL     1       0.002  -0.004   0.002  0.00  0.00    -0.153 OA
ATOM     14  O   UNL     1       1.172   2.195   0.003  0.00  0.00    -0.153 OA
BRANCH  12  15
ATOM     15  N   UNL     1      -0.897   1.885  -1.312  0.00  0.00    -0.204 NA
ATOM     16  H   UNL     1      -0.361   1.601  -2.229  0.00  0.00    +0.144 HD
ATOM     17  H   UNL     1      -1.036   2.977  -1.292  0.00  0.00    +0.144 HD
ENDBRANCH  12  15
ENDBRANCH  10  12
BRANCH   1  18
ATOM     18  C   UNL     1      -4.128   4.041   6.761  0.00  0.00    +0.020 C 
BRANCH  18  27
ATOM     19  C   UNL     1      -5.013   5.558   8.428  0.00  0.00    +0.002 C 
ATOM     20  C   UNL     1      -4.783   6.913   9.089  0.00  0.00    -0.046 A 
ATOM     21  C   UNL     1      -5.758   7.602   9.808  0.00  0.00    +0.010 A 
ATOM     22  C   UNL     1      -5.468   8.803  10.361  0.00  0.00    +0.045 A 
ATOM     23  S   UNL     1      -3.761   9.028   9.883  0.00  0.00    -0.101 S 
ATOM     24  C   UNL     1      -3.564   7.513   8.988  0.00  0.00    -0.010 A 
ATOM     25  C   UNL     1      -2.364   6.979   8.277  0.00  0.00    +0.024 C 
ATOM     26  C   UNL     1      -2.619   5.492   7.979  0.00  0.00    -0.072 C 
ATOM     27  N   UNL     1      -3.969   5.346   7.417  0.00  0.00    +0.393 N 
ATOM     28  H   UNL     1      -4.091   6.132   6.657  0.00  0.00    -0.080 HD
BRANCH  19  31
ATOM     29  C   UNL     1      -8.659   5.097   7.425  0.00  0.00    +0.008 A 
ATOM     30  C   UNL     1      -7.525   4.988   8.207  0.00  0.00    +0.010 A 
ATOM     31  C   UNL     1      -6.367   5.540   7.767  0.00  0.00    -0.019 A 
ATOM     32  S   UNL     1      -6.866   6.247   6.205  0.00  0.00    -0.103 S 
ATOM     33  C   UNL     1      -8.581   5.751   6.241  0.00  0.00    +0.045 A 
ENDBRANCH  19  31
ENDBRANCH  18  27
ENDBRANCH   1  18
TORSDOF 5
