REMARK  Name = ZINC12833081
REMARK  14 active torsions:
REMARK  status: ('A' for Active; 'I' for Inactive)
REMARK    1  A    between atoms: C_1  and  C_2
REMARK    2  A    between atoms: C_5  and  C_34
REMARK    3  A    between atoms: C_9  and  C_14
REMARK    4  A    between atoms: C_14  and  N_66
REMARK    5  A    between atoms: C_15  and  C_16
REMARK    6  A    between atoms: C_15  and  N_66
REMARK    7  A    between atoms: C_21  and  O_22
REMARK    8  A    between atoms: O_22  and  C_23
REMARK    9  A    between atoms: C_24  and  C_25
REMARK   10  A    between atoms: C_24  and  N_66
REMARK   11  A    between atoms: N_29  and  C_30
REMARK   12  A    between atoms: C_30  and  C_31
REMARK   13  A    between atoms: C_30  and  C_32
REMARK   14  A    between atoms: C_30  and  C_33
REMARK                            x       y       z     vdW  Elec       q    Type
REMARK                         _______ _______ _______ _____ _____    ______ ____
ROOT
ATOM      1  N   UNL     1       1.373   3.914   1.345  0.00  0.00    +0.390 N 
ATOM      2  H   UNL     1       0.841   3.272   1.943  0.00  0.00    -0.080 HD
ENDROOT
BRANCH   1   3
ATOM      3  C   UNL     1       1.089   3.598  -0.071  0.00  0.00    -0.036 C 
BRANCH   3  12
ATOM      4  C   UNL     1      -1.927  -0.647  -0.027  0.00  0.00    +0.044 C 
ATOM      5  C   UNL     1      -0.524  -1.097  -0.346  0.00  0.00    -0.041 A 
ATOM      6  C   UNL     1      -0.260  -2.421  -0.558  0.00  0.00    +0.004 A 
ATOM      7  C   UNL     1       1.028  -2.845  -0.853  0.00  0.00    +0.005 A 
ATOM      8  C   UNL     1       2.065  -1.941  -0.937  0.00  0.00    -0.026 A 
ATOM      9  C   UNL     1       1.820  -0.589  -0.724  0.00  0.00    +0.052 A 
ATOM     10  C   UNL     1       0.512  -0.162  -0.425  0.00  0.00    +0.002 A 
ATOM     11  C   UNL     1       0.265   1.264  -0.203  0.00  0.00    +0.017 A 
ATOM     12  C   UNL     1       1.309   2.124  -0.293  0.00  0.00    +0.001 A 
ATOM     13  C   UNL     1       2.602   1.645  -0.597  0.00  0.00    +0.251 A 
ATOM     14  O   UNL     1       3.526   2.435  -0.674  0.00  0.00    -0.268 OA
ATOM     15  N   UNL     1       2.839   0.337  -0.802  0.00  0.00    -0.322 N 
ATOM     16  H   UNL     1       3.739   0.041  -1.008  0.00  0.00    +0.169 HD
ATOM     17  C   UNL     1       3.459  -2.417  -1.258  0.00  0.00    +0.046 C 
ENDBRANCH   3  12
ENDBRANCH   1   3
BRANCH   1  18
ATOM     18  C   UNL     1       2.815   3.744   1.621  0.00  0.00    -0.038 C 
BRANCH  18  19
ATOM     19  C   UNL     1       3.056   3.943   3.095  0.00  0.00    -0.022 A 
ATOM     20  C   UNL     1       3.536   5.153   3.560  0.00  0.00    +0.005 A 
ATOM     21  C   UNL     1       3.752   5.338   4.913  0.00  0.00    +0.000 A 
ATOM     22  C   UNL     1       3.499   4.310   5.803  0.00  0.00    +0.004 A 
ATOM     23  C   UNL     1       3.024   3.098   5.343  0.00  0.00    +0.046 A 
ATOM     24  C   UNL     1       2.801   2.911   3.986  0.00  0.00    +0.121 A 
BRANCH  24  25
ATOM     25  O   UNL     1       2.334   1.719   3.531  0.00  0.00    -0.495 OA
ATOM     26  C   UNL     1       2.094   0.701   4.505  0.00  0.00    +0.277 C 
ENDBRANCH  24  25
ENDBRANCH  18  19
ENDBRANCH   1  18
BRANCH   1  27
ATOM     27  C   UNL     1       0.961   5.302   1.645  0.00  0.00    +0.001 C 
BRANCH  27  28
ATOM     28  C   UNL     1      -0.533   5.412   1.486  0.00  0.00    +0.136 A 
ATOM     29  N   UNL     1      -1.187   5.630   0.371  0.00  0.00    -0.115 NA
ATOM     30  N   UNL     1      -2.446   5.655   0.646  0.00  0.00    -0.023 NA
ATOM     31  N   UNL     1      -2.611   5.466   1.909  0.00  0.00    -0.043 NA
ATOM     32  N   UNL     1      -1.455   5.312   2.461  0.00  0.00    -0.226 N 
BRANCH  32  33
ATOM     33  C   UNL     1      -1.195   5.074   3.883  0.00  0.00    +0.059 C 
ATOM     34  C   UNL     1      -0.411   6.253   4.463  0.00  0.00    +0.036 C 
ATOM     35  C   UNL     1      -2.524   4.930   4.628  0.00  0.00    +0.036 C 
ATOM     36  C   UNL     1      -0.379   3.790   4.044  0.00  0.00    +0.036 C 
ENDBRANCH  32  33
ENDBRANCH  27  28
ENDBRANCH   1  27
TORSDOF 8
