REMARK  Name = ZINC06501182
REMARK  16 active torsions:
REMARK  status: ('A' for Active; 'I' for Inactive)
REMARK    1  A    between atoms: C_1  and  C_2
REMARK    2  A    between atoms: C_2  and  C_3
REMARK    3  A    between atoms: C_3  and  C_4
REMARK    4  A    between atoms: C_4  and  C_6
REMARK    5  A    between atoms: C_4  and  N_14
REMARK    6  A    between atoms: N_8  and  C_9
REMARK    7  A    between atoms: C_9  and  C_10
REMARK    8  A    between atoms: C_10  and  C_11
REMARK    9  A    between atoms: C_11  and  C_12
REMARK   10  A    between atoms: C_11  and  C_13
REMARK   11  A    between atoms: N_14  and  C_15
REMARK   12  A    between atoms: C_18  and  C_22
REMARK   13  A    between atoms: C_20  and  C_21
REMARK   14  A    between atoms: C_23  and  C_25
REMARK   15  A    between atoms: C_26  and  N_33
REMARK   16  A    between atoms: C_27  and  C_30
REMARK                            x       y       z     vdW  Elec       q    Type
REMARK                         _______ _______ _______ _____ _____    ______ ____
ROOT
ATOM      1  N   UNL     1      -0.527   1.278   1.517  0.00  0.00    -0.255 N 
ATOM      2  C   UNL     1      -1.028   0.154   2.067  0.00  0.00    +0.261 C 
ATOM      3  O   UNL     1      -0.740  -0.933   1.600  0.00  0.00    -0.269 OA
ENDROOT
BRANCH   1   4
ATOM      4  C   UNL     1      -0.796   2.521   2.097  0.00  0.00    +0.040 A 
ATOM      5  C   UNL     1      -1.673   3.403   1.478  0.00  0.00    +0.024 A 
ATOM      6  C   UNL     1      -1.942   4.628   2.057  0.00  0.00    +0.005 A 
ATOM      7  C   UNL     1      -1.330   4.981   3.246  0.00  0.00    -0.050 A 
ATOM      8  C   UNL     1      -0.453   4.108   3.862  0.00  0.00    +0.008 A 
ATOM      9  C   UNL     1      -0.184   2.879   3.291  0.00  0.00    -0.029 A 
ATOM     10  C   UNL     1       0.772   1.928   3.964  0.00  0.00    +0.045 C 
ATOM     11  C   UNL     1      -1.621   6.321   3.872  0.00  0.00    +0.044 C 
ENDBRANCH   1   4
BRANCH   2  12
ATOM     12  C   UNL     1      -1.919   0.241   3.225  0.00  0.00    +0.116 A 
ATOM     13  C   UNL     1      -2.444  -0.783   4.016  0.00  0.00    +0.076 A 
ATOM     14  C   UNL     1      -3.260  -0.301   5.040  0.00  0.00    +0.155 A 
ATOM     15  N   UNL     1      -3.455   0.994   5.152  0.00  0.00    -0.203 NA
ATOM     16  S   UNL     1      -2.631   1.679   3.996  0.00  0.00    +0.019 S 
BRANCH  14  17
ATOM     17  C   UNL     1      -3.902  -1.236   5.983  0.00  0.00    +0.262 C 
ATOM     18  O   UNL     1      -3.717  -2.433   5.873  0.00  0.00    -0.269 OA
ATOM     19  N   UNL     1      -4.693  -0.763   6.966  0.00  0.00    -0.324 N 
ATOM     20  H   UNL     1      -4.841   0.192   7.054  0.00  0.00    +0.145 HD
ATOM     21  H   UNL     1      -5.115  -1.378   7.587  0.00  0.00    +0.145 HD
ENDBRANCH  14  17
BRANCH  13  22
ATOM     22  N   UNL     1      -2.180  -2.130   3.810  0.00  0.00    -0.355 N 
ATOM     23  H   UNL     1      -1.601  -2.405   3.081  0.00  0.00    +0.142 HD
ATOM     24  H   UNL     1      -2.574  -2.797   4.394  0.00  0.00    +0.142 HD
ENDBRANCH  13  22
ENDBRANCH   2  12
BRANCH   1  25
ATOM     25  C   UNL     1       0.301   1.197   0.311  0.00  0.00    +0.167 C 
BRANCH  25  26
ATOM     26  C   UNL     1       1.611   1.901   0.552  0.00  0.00    +0.234 C 
ATOM     27  O   UNL     1       1.710   2.706   1.454  0.00  0.00    -0.274 OA
ATOM     28  N   UNL     1       2.674   1.636  -0.234  0.00  0.00    -0.314 N 
ATOM     29  H   UNL     1       2.595   0.992  -0.955  0.00  0.00    +0.149 HD
BRANCH  28  30
ATOM     30  C   UNL     1       3.947   2.321   0.001  0.00  0.00    +0.104 C 
BRANCH  30  31
ATOM     31  C   UNL     1       4.979   1.843  -1.022  0.00  0.00    +0.022 C 
BRANCH  31  32
ATOM     32  C   UNL     1       6.310   2.558  -0.777  0.00  0.00    -0.016 C 
ATOM     33  C   UNL     1       6.868   2.143   0.586  0.00  0.00    +0.007 C 
ATOM     34  C   UNL     1       7.305   2.174  -1.874  0.00  0.00    +0.007 C 
ENDBRANCH  31  32
ENDBRANCH  30  31
ENDBRANCH  28  30
ENDBRANCH  25  26
BRANCH  25  35
ATOM     35  C   UNL     1      -0.430   1.865  -0.855  0.00  0.00    +0.032 C 
BRANCH  35  37
ATOM     36  C   UNL     1      -2.403   1.716  -2.381  0.00  0.00    +0.004 C 
ATOM     37  C   UNL     1      -1.672   1.047  -1.215  0.00  0.00    -0.001 C 
ENDBRANCH  35  37
ENDBRANCH  25  35
ENDBRANCH   1  25
TORSDOF 11
