REMARK  Name = ZINC32031283
REMARK  4 active torsions:
REMARK  status: ('A' for Active; 'I' for Inactive)
REMARK    1  A    between atoms: C_5  and  N_7
REMARK    2  A    between atoms: C_8  and  C_10
REMARK    3  A    between atoms: C_12  and  S_15
REMARK    4  A    between atoms: S_15  and  N_18
REMARK                            x       y       z     vdW  Elec       q    Type
REMARK                         _______ _______ _______ _____ _____    ______ ____
ROOT
ATOM      1  N   UNL     1       1.237  -2.073  -0.019  0.00  0.00    -0.281 N 
ATOM      2  C   UNL     1       0.187  -2.760  -0.509  0.00  0.00    +0.249 C 
ATOM      3  O   UNL     1      -0.740  -2.166  -1.027  0.00  0.00    -0.270 OA
ATOM      4  H   UNL     1       2.011  -2.548   0.322  0.00  0.00    +0.155 HD
ENDROOT
BRANCH   1   9
ATOM      5  C   UNL     1      -0.028   1.372   0.038  0.00  0.00    +0.002 A 
ATOM      6  C   UNL     1       1.157   2.079   0.032  0.00  0.00    +0.004 A 
ATOM      7  C   UNL     1       2.378   1.417   0.010  0.00  0.00    -0.042 A 
ATOM      8  C   UNL     1       2.408   0.042  -0.002  0.00  0.00    -0.023 A 
ATOM      9  C   UNL     1       1.211  -0.674   0.000  0.00  0.00    +0.037 A 
ATOM     10  C   UNL     1      -0.005  -0.008   0.021  0.00  0.00    +0.023 A 
ATOM     11  C   UNL     1       3.695  -0.742  -0.010  0.00  0.00    +0.037 C 
ATOM     12  C   UNL     1       4.861   0.144  -0.440  0.00  0.00    +0.005 C 
ATOM     13  C   UNL     1       4.840   1.420   0.411  0.00  0.00    +0.005 C 
ATOM     14  C   UNL     1       3.630   2.255  -0.003  0.00  0.00    +0.035 C 
ENDBRANCH   1   9
BRANCH   2  15
ATOM     15  C   UNL     1       0.161  -4.229  -0.419  0.00  0.00    +0.046 A 
ATOM     16  C   UNL     1      -0.944  -4.998  -0.938  0.00  0.00    +0.049 A 
ATOM     17  C   UNL     1      -0.846  -6.335  -0.792  0.00  0.00    +0.143 A 
ATOM     18  S   UNL     1       0.717  -6.537   0.034  0.00  0.00    -0.076 S 
ATOM     19  C   UNL     1       1.192  -4.933   0.161  0.00  0.00    +0.060 A 
BRANCH  17  20
ATOM     20  S   UNL     1      -1.988  -7.578  -1.296  0.00  0.00    +0.062 S 
ATOM     21  O   UNL     1      -1.748  -8.709  -0.470  0.00  0.00    -0.153 OA
ATOM     22  O   UNL     1      -3.260  -6.952  -1.379  0.00  0.00    -0.153 OA
BRANCH  20  23
ATOM     23  N   UNL     1      -1.578  -8.023  -2.838  0.00  0.00    -0.203 NA
ATOM     24  H   UNL     1      -0.824  -7.603  -3.280  0.00  0.00    +0.144 HD
ATOM     25  H   UNL     1      -2.092  -8.704  -3.299  0.00  0.00    +0.144 HD
ENDBRANCH  20  23
ENDBRANCH  17  20
ENDBRANCH   2  15
TORSDOF 4
