REMARK  Name = ZINC22107844
REMARK  12 active torsions:
REMARK  status: ('A' for Active; 'I' for Inactive)
REMARK    1  A    between atoms: C_1  and  O_2
REMARK    2  A    between atoms: O_2  and  C_3
REMARK    3  A    between atoms: C_7  and  C_18
REMARK    4  A    between atoms: C_8  and  O_9
REMARK    5  A    between atoms: O_9  and  C_10
REMARK    6  A    between atoms: C_10  and  C_11
REMARK    7  A    between atoms: C_18  and  N_19
REMARK    8  A    between atoms: N_19  and  C_20
REMARK    9  A    between atoms: C_20  and  C_21
REMARK   10  A    between atoms: C_21  and  S_22
REMARK   11  A    between atoms: S_22  and  C_23
REMARK   12  A    between atoms: N_27  and  C_28
REMARK                            x       y       z     vdW  Elec       q    Type
REMARK                         _______ _______ _______ _____ _____    ______ ____
ROOT
ATOM      1  C   UNL     1       1.153   2.029   2.507  0.00  0.00    -0.043 C 
ENDROOT
BRANCH   1   6
ATOM      2  C   UNL     1       1.791   2.390  -1.206  0.00  0.00    +0.162 A 
ATOM      3  C   UNL     1       3.017   3.036  -1.209  0.00  0.00    +0.049 A 
ATOM      4  C   UNL     1       3.636   3.349  -0.014  0.00  0.00    +0.004 A 
ATOM      5  C   UNL     1       3.035   3.020   1.187  0.00  0.00    +0.005 A 
ATOM      6  C   UNL     1       1.809   2.381   1.197  0.00  0.00    -0.019 A 
ATOM      7  C   UNL     1       1.186   2.059   0.002  0.00  0.00    +0.164 A 
BRANCH   2   9
ATOM      8  C   UNL     1       1.861   2.451  -3.583  0.00  0.00    +0.277 C 
ATOM      9  O   UNL     1       1.181   2.080  -2.382  0.00  0.00    -0.491 OA
ENDBRANCH   2   9
BRANCH   7  10
ATOM     10  O   UNL     1      -0.017   1.425   0.010  0.00  0.00    -0.484 OA
BRANCH  10  11
ATOM     11  C   UNL     1       0.002  -0.004   0.002  0.00  0.00    +0.264 C 
BRANCH  11  12
ATOM     12  C   UNL     1      -1.412  -0.526   0.013  0.00  0.00    -0.010 A 
ATOM     13  C   UNL     1      -2.046  -0.777   1.215  0.00  0.00    +0.010 A 
ATOM     14  C   UNL     1      -3.345  -1.250   1.226  0.00  0.00    +0.039 A 
ATOM     15  C   UNL     1      -4.006  -1.484   0.032  0.00  0.00    +0.123 A 
ATOM     16  C   UNL     1      -3.368  -1.237  -1.171  0.00  0.00    +0.039 A 
ATOM     17  C   UNL     1      -2.071  -0.758  -1.180  0.00  0.00    +0.010 A 
ATOM     18  F   UNL     1      -5.273  -1.951   0.042  0.00  0.00    -0.205 F 
ENDBRANCH  11  12
ENDBRANCH  10  11
ENDBRANCH   7  10
ENDBRANCH   1   6
BRANCH   1  19
ATOM     19  N   UNL     1       1.391   0.611   2.808  0.00  0.00    +0.382 N 
ATOM     20  H   UNL     1       0.965  -0.010   2.007  0.00  0.00    -0.085 HD
ATOM     21  H   UNL     1       2.473   0.427   2.879  0.00  0.00    -0.085 HD
BRANCH  19  22
ATOM     22  C   UNL     1       0.764   0.231   4.082  0.00  0.00    -0.071 C 
BRANCH  22  23
ATOM     23  C   UNL     1       1.033  -1.249   4.361  0.00  0.00    +0.058 C 
BRANCH  23  24
ATOM     24  S   UNL     1       0.261  -1.717   5.930  0.00  0.00    -0.086 S 
BRANCH  24  25
ATOM     25  C   UNL     1       0.715  -3.418   5.998  0.00  0.00    +0.214 A 
ATOM     26  N   UNL     1       1.423  -4.076   5.105  0.00  0.00    -0.101 NA
ATOM     27  N   UNL     1       1.572  -5.300   5.462  0.00  0.00    -0.022 NA
ATOM     28  N   UNL     1       0.983  -5.515   6.588  0.00  0.00    -0.038 NA
ATOM     29  N   UNL     1       0.405  -4.296   6.986  0.00  0.00    -0.187 N 
BRANCH  29  30
ATOM     30  C   UNL     1      -0.333  -4.043   8.150  0.00  0.00    +0.070 A 
ATOM     31  C   UNL     1      -0.229  -2.814   8.786  0.00  0.00    +0.028 A 
ATOM     32  C   UNL     1      -0.962  -2.565   9.931  0.00  0.00    +0.002 A 
ATOM     33  C   UNL     1      -1.791  -3.544  10.448  0.00  0.00    +0.000 A 
ATOM     34  C   UNL     1      -1.893  -4.771   9.820  0.00  0.00    +0.002 A 
ATOM     35  C   UNL     1      -1.166  -5.024   8.672  0.00  0.00    +0.028 A 
ENDBRANCH  29  30
ENDBRANCH  24  25
ENDBRANCH  23  24
ENDBRANCH  22  23
ENDBRANCH  19  22
ENDBRANCH   1  19
TORSDOF 11
