REMARK  Name = ZINC36832821
REMARK  11 active torsions:
REMARK  status: ('A' for Active; 'I' for Inactive)
REMARK    1  A    between atoms: C_1  and  C_2
REMARK    2  A    between atoms: C_2  and  C_4
REMARK    3  A    between atoms: C_2  and  S_18
REMARK    4  A    between atoms: C_4  and  C_6
REMARK    5  A    between atoms: C_6  and  C_16
REMARK    6  A    between atoms: S_18  and  C_19
REMARK    7  A    between atoms: C_22  and  C_24
REMARK    8  A    between atoms: C_27  and  O_32
REMARK    9  A    between atoms: C_28  and  O_30
REMARK   10  A    between atoms: O_30  and  C_31
REMARK   11  A    between atoms: O_32  and  C_33
REMARK                            x       y       z     vdW  Elec       q    Type
REMARK                         _______ _______ _______ _____ _____    ______ ____
ROOT
ATOM      1  C   UNL     1      -0.019   1.526   0.010  0.00  0.00    +0.028 C 
ATOM      2  C   UNL     1       0.002  -0.004   0.002  0.00  0.00    +0.124 C 
ENDROOT
BRANCH   2   3
ATOM      3  C   UNL     1       0.707  -0.490  -1.238  0.00  0.00    +0.189 C 
ATOM      4  O   UNL     1       0.065  -0.782  -2.228  0.00  0.00    -0.290 OA
BRANCH   3   5
ATOM      5  C   UNL     1       2.107  -0.605  -1.250  0.00  0.00    +0.123 C 
ATOM      6  C   UNL     1       2.766  -1.059  -2.408  0.00  0.00    +0.091 C 
ATOM      7  N   UNL     1       2.212  -1.420  -3.592  0.00  0.00    -0.307 N 
ATOM      8  C   UNL     1       3.021  -1.844  -4.629  0.00  0.00    +0.046 A 
ATOM      9  C   UNL     1       2.662  -2.259  -5.919  0.00  0.00    +0.024 A 
ATOM     10  C   UNL     1       3.624  -2.650  -6.821  0.00  0.00    +0.002 A 
ATOM     11  C   UNL     1       4.967  -2.647  -6.484  0.00  0.00    +0.001 A 
ATOM     12  C   UNL     1       5.348  -2.242  -5.217  0.00  0.00    +0.017 A 
ATOM     13  C   UNL     1       4.388  -1.851  -4.314  0.00  0.00    +0.035 A 
ATOM     14  S   UNL     1       4.418  -1.269  -2.639  0.00  0.00    -0.071 S 
ATOM     15  H   UNL     1       1.250  -1.381  -3.711  0.00  0.00    +0.153 HD
BRANCH   5  16
ATOM     16  C   UNL     1       2.864  -0.261  -0.084  0.00  0.00    +0.105 C 
ATOM     17  N   UNL     1       3.464   0.013   0.841  0.00  0.00    -0.191 NA
ENDBRANCH   5  16
ENDBRANCH   3   5
ENDBRANCH   2   3
BRANCH   2  18
ATOM     18  S   UNL     1      -1.700  -0.632   0.015  0.00  0.00    -0.054 S 
BRANCH  18  19
ATOM     19  C   UNL     1      -2.335  -0.110   1.573  0.00  0.00    +0.278 A 
ATOM     20  N   UNL     1      -1.689   0.581   2.484  0.00  0.00    -0.101 NA
ATOM     21  N   UNL     1      -2.459   0.783   3.494  0.00  0.00    -0.106 NA
ATOM     22  C   UNL     1      -3.626   0.231   3.270  0.00  0.00    +0.249 A 
ATOM     23  O   UNL     1      -3.575  -0.341   2.047  0.00  0.00    -0.411 OA
BRANCH  22  24
ATOM     24  C   UNL     1      -4.787   0.237   4.184  0.00  0.00    +0.042 A 
ATOM     25  C   UNL     1      -5.972  -0.401   3.814  0.00  0.00    +0.017 A 
ATOM     26  C   UNL     1      -7.055  -0.394   4.669  0.00  0.00    +0.050 A 
ATOM     27  C   UNL     1      -6.969   0.247   5.896  0.00  0.00    +0.162 A 
ATOM     28  C   UNL     1      -5.790   0.886   6.272  0.00  0.00    +0.162 A 
ATOM     29  C   UNL     1      -4.698   0.877   5.423  0.00  0.00    +0.062 A 
BRANCH  28  30
ATOM     30  O   UNL     1      -5.709   1.513   7.476  0.00  0.00    -0.491 OA
ATOM     31  C   UNL     1      -4.469   2.147   7.795  0.00  0.00    +0.277 C 
ENDBRANCH  28  30
BRANCH  27  32
ATOM     32  O   UNL     1      -8.039   0.251   6.735  0.00  0.00    -0.491 OA
ATOM     33  C   UNL     1      -9.217  -0.422   6.288  0.00  0.00    +0.277 C 
ENDBRANCH  27  32
ENDBRANCH  22  24
ENDBRANCH  18  19
ENDBRANCH   2  18
TORSDOF 8
