REMARK  Name = ZINC13945165
REMARK  8 active torsions:
REMARK  status: ('A' for Active; 'I' for Inactive)
REMARK    1  A    between atoms: C_4  and  C_7
REMARK    2  A    between atoms: C_7  and  O_9
REMARK    3  A    between atoms: O_9  and  C_10
REMARK    4  A    between atoms: C_13  and  C_16
REMARK    5  A    between atoms: C_16  and  C_18
REMARK    6  A    between atoms: C_18  and  O_19
REMARK    7  A    between atoms: O_19  and  C_20
REMARK    8  A    between atoms: C_23  and  N_26
REMARK                            x       y       z     vdW  Elec       q    Type
REMARK                         _______ _______ _______ _____ _____    ______ ____
ROOT
ATOM      1  C   UNL     1       0.926   2.156  -0.319  0.00  0.00    +0.121 A 
ATOM      2  C   UNL     1      -0.339   1.590  -0.368  0.00  0.00    +0.047 A 
ATOM      3  C   UNL     1      -0.480   0.217  -0.413  0.00  0.00    +0.027 A 
ATOM      4  C   UNL     1       0.645  -0.597  -0.409  0.00  0.00    +0.044 A 
ATOM      5  C   UNL     1       1.911  -0.029  -0.360  0.00  0.00    +0.027 A 
ATOM      6  C   UNL     1       2.051   1.344  -0.314  0.00  0.00    +0.047 A 
ENDROOT
BRANCH   4   7
ATOM      7  N   UNL     1       0.503  -1.992  -0.456  0.00  0.00    -0.210 N 
ATOM      8  C   UNL     1       0.904  -2.727  -1.501  0.00  0.00    +0.231 C 
ATOM      9  O   UNL     1       1.424  -2.294  -2.506  0.00  0.00    -0.274 OA
ATOM     10  C   UNL     1       0.605  -4.185  -1.226  0.00  0.00    +0.095 C 
ATOM     11  C   UNL     1      -0.379  -4.706  -2.282  0.00  0.00    +0.027 C 
ATOM     12  C   UNL     1      -1.641  -3.860  -2.166  0.00  0.00    -0.026 C 
ATOM     13  C   UNL     1      -2.204  -3.841  -0.963  0.00  0.00    -0.026 C 
ATOM     14  C   UNL     1      -1.494  -4.668   0.102  0.00  0.00    +0.027 C 
ATOM     15  C   UNL     1      -0.046  -4.165   0.168  0.00  0.00    +0.095 C 
ATOM     16  C   UNL     1      -0.041  -2.699   0.543  0.00  0.00    +0.231 C 
ATOM     17  O   UNL     1      -0.465  -2.237   1.581  0.00  0.00    -0.274 OA
ATOM     18  C   UNL     1      -1.443  -6.119  -0.447  0.00  0.00    +0.001 C 
ATOM     19  C   UNL     1      -0.785  -6.141  -1.853  0.00  0.00    +0.001 C 
ATOM     20  C   UNL     1      -0.050  -6.728  -0.616  0.00  0.00    +0.009 C 
ENDBRANCH   4   7
BRANCH   1  21
ATOM     21  O   UNL     1       1.064   3.508  -0.274  0.00  0.00    -0.484 OA
BRANCH  21  22
ATOM     22  C   UNL     1       2.396   4.023  -0.224  0.00  0.00    +0.308 C 
BRANCH  22  23
ATOM     23  C   UNL     1       2.352   5.528  -0.179  0.00  0.00    +0.200 C 
ATOM     24  O   UNL     1       1.284   6.104  -0.189  0.00  0.00    -0.288 OA
BRANCH  23  28
ATOM     25  C   UNL     1       5.958   7.753  -0.019  0.00  0.00    +0.132 A 
ATOM     26  C   UNL     1       4.736   8.415  -0.030  0.00  0.00    +0.047 A 
ATOM     27  C   UNL     1       3.562   7.698  -0.082  0.00  0.00    +0.015 A 
ATOM     28  C   UNL     1       3.601   6.299  -0.124  0.00  0.00    +0.021 A 
ATOM     29  C   UNL     1       4.835   5.637  -0.107  0.00  0.00    +0.015 A 
ATOM     30  C   UNL     1       6.002   6.364  -0.060  0.00  0.00    +0.047 A 
BRANCH  25  31
ATOM     31  O   UNL     1       7.113   8.465   0.031  0.00  0.00    -0.422 OA
BRANCH  31  32
ATOM     32  C   UNL     1       7.449   9.000   1.221  0.00  0.00    +0.344 C 
ATOM     33  O   UNL     1       6.785   8.754   2.208  0.00  0.00    -0.245 OA
BRANCH  32  37
ATOM     34  C   UNL     1      10.832  11.550   1.521  0.00  0.00    +0.000 A 
ATOM     35  C   UNL     1      10.078  11.271   2.647  0.00  0.00    +0.001 A 
ATOM     36  C   UNL     1       8.978  10.444   2.557  0.00  0.00    +0.015 A 
ATOM     37  C   UNL     1       8.626   9.887   1.326  0.00  0.00    +0.059 A 
ATOM     38  C   UNL     1       9.395  10.168   0.195  0.00  0.00    +0.015 A 
ATOM     39  C   UNL     1      10.489  11.002   0.298  0.00  0.00    +0.001 A 
ENDBRANCH  32  37
ENDBRANCH  31  32
ENDBRANCH  25  31
ENDBRANCH  23  28
ENDBRANCH  22  23
ENDBRANCH  21  22
ENDBRANCH   1  21
TORSDOF 8
