REMARK  Name = ZINC43061154
REMARK  10 active torsions:
REMARK  status: ('A' for Active; 'I' for Inactive)
REMARK    1  A    between atoms: C_1  and  C_2
REMARK    2  A    between atoms: C_2  and  C_3
REMARK    3  A    between atoms: C_2  and  C_4
REMARK    4  A    between atoms: C_4  and  C_5
REMARK    5  A    between atoms: C_5  and  C_6
REMARK    6  A    between atoms: C_6  and  C_34
REMARK    7  A    between atoms: C_9  and  C_17
REMARK    8  A    between atoms: C_24  and  N_29
REMARK    9  A    between atoms: N_29  and  S_30
REMARK   10  A    between atoms: S_30  and  C_33
REMARK                            x       y       z     vdW  Elec       q    Type
REMARK                         _______ _______ _______ _____ _____    ______ ____
ROOT
ATOM      1  C   UNL     1       2.793  -0.557  -2.526  0.00  0.00    +0.124 C 
ATOM      2  C   UNL     1       1.942  -0.010  -3.648  0.00  0.00    +0.197 C 
ATOM      3  O   UNL     1       0.754  -0.260  -3.699  0.00  0.00    -0.289 OA
ATOM      4  C   UNL     1       2.549   0.796  -4.635  0.00  0.00    +0.112 C 
ATOM      5  C   UNL     1       3.912   1.077  -4.569  0.00  0.00    +0.218 C 
ATOM      6  C   UNL     1       4.747   0.557  -3.493  0.00  0.00    +0.110 A 
ATOM      7  N   UNL     1       4.226  -0.230  -2.504  0.00  0.00    -0.247 N 
ATOM      8  N   UNL     1       5.160  -0.557  -1.682  0.00  0.00    -0.178 NA
ATOM      9  C   UNL     1       6.308  -0.041  -2.044  0.00  0.00    +0.135 A 
ATOM     10  C   UNL     1       6.099   0.693  -3.212  0.00  0.00    +0.052 A 
ATOM     11  O   UNL     1       4.472   1.850  -5.524  0.00  0.00    -0.285 OA
ATOM     12  C   UNL     1       2.668  -2.082  -2.553  0.00  0.00    +0.045 C 
ENDROOT
BRANCH   4  13
ATOM     13  C   UNL     1       1.740   1.340  -5.739  0.00  0.00    +0.179 C 
ATOM     14  N   UNL     1       0.476   1.049  -5.748  0.00  0.00    -0.111 NA
ATOM     15  S   UNL     1      -0.518   1.606  -6.953  0.00  0.00    +0.102 S 
ATOM     16  O   UNL     1      -1.187   2.749  -6.437  0.00  0.00    -0.146 OA
ATOM     17  O   UNL     1      -1.214   0.478  -7.464  0.00  0.00    -0.146 OA
ATOM     18  C   UNL     1       0.549   2.177  -8.236  0.00  0.00    +0.137 A 
ATOM     19  C   UNL     1       0.059   2.433  -9.497  0.00  0.00    +0.057 A 
ATOM     20  C   UNL     1       0.919   2.880 -10.494  0.00  0.00    +0.076 A 
ATOM     21  C   UNL     1       2.266   3.065 -10.213  0.00  0.00    +0.028 A 
ATOM     22  C   UNL     1       2.754   2.809  -8.948  0.00  0.00    +0.029 A 
ATOM     23  C   UNL     1       1.897   2.363  -7.949  0.00  0.00    +0.082 A 
ATOM     24  N   UNL     1       2.381   2.112  -6.663  0.00  0.00    -0.192 NA
BRANCH  20  25
ATOM     25  N   UNL     1       0.428   3.142 -11.778  0.00  0.00    -0.103 NA
BRANCH  25  26
ATOM     26  S   UNL     1       1.453   3.675 -12.964  0.00  0.00    +0.059 S 
ATOM     27  O   UNL     1       1.909   4.941 -12.508  0.00  0.00    -0.154 OA
ATOM     28  O   UNL     1       2.367   2.604 -13.161  0.00  0.00    -0.154 OA
ATOM     29  C   UNL     1       0.405   3.878 -14.430  0.00  0.00    +0.220 C 
ENDBRANCH  25  26
ENDBRANCH  20  25
ENDBRANCH   4  13
BRANCH   1  30
ATOM     30  C   UNL     1       2.187  -0.073  -1.207  0.00  0.00    +0.038 C 
BRANCH  30  31
ATOM     31  C   UNL     1       2.410   1.434  -1.067  0.00  0.00    +0.006 C 
BRANCH  31  33
ATOM     32  C   UNL     1       2.338   1.319   1.428  0.00  0.00    +0.007 C 
ATOM     33  C   UNL     1       1.694   1.941   0.187  0.00  0.00    -0.017 C 
ATOM     34  C   UNL     1       1.811   3.464   0.261  0.00  0.00    +0.007 C 
ENDBRANCH  31  33
ENDBRANCH  30  31
ENDBRANCH   1  30
TORSDOF 6
