REMARK  Name = ZINC51752347
REMARK  5 active torsions:
REMARK  status: ('A' for Active; 'I' for Inactive)
REMARK    1  A    between atoms: C_1  and  C_2
REMARK    2  A    between atoms: C_7  and  C_10
REMARK    3  A    between atoms: C_11  and  C_13
REMARK    4  A    between atoms: C_17  and  N_19
REMARK    5  A    between atoms: N_19  and  N_20
REMARK                            x       y       z     vdW  Elec       q    Type
REMARK                         _______ _______ _______ _____ _____    ______ ____
ROOT
ATOM      1  C   UNL     1       2.781  -3.967  -1.323  0.00  0.00    +0.146 A 
ATOM      2  C   UNL     1       3.760  -4.957  -1.323  0.00  0.00    +0.072 A 
ATOM      3  C   UNL     1       4.198  -5.477  -2.535  0.00  0.00    +0.026 A 
ATOM      4  C   UNL     1       3.643  -4.989  -3.703  0.00  0.00    +0.046 A 
ATOM      5  C   UNL     1       2.665  -3.996  -3.632  0.00  0.00    +0.133 A 
ATOM      6  N   UNL     1       2.265  -3.525  -2.465  0.00  0.00    -0.225 NA
ATOM      7 CL   UNL     1       4.425  -5.535   0.173  0.00  0.00    -0.081 Cl
ENDROOT
BRANCH   1  16
ATOM      8  C   UNL     1       0.959   1.864   0.334  0.00  0.00    +0.007 C 
ATOM      9  C   UNL     1       0.694   0.369   0.148  0.00  0.00    -0.011 C 
ATOM     10  C   UNL     1       1.463  -0.137  -1.075  0.00  0.00    +0.022 C 
ATOM     11  C   UNL     1       1.168  -1.627  -1.278  0.00  0.00    +0.108 C 
ATOM     12  N   UNL     1       1.475  -2.344  -0.033  0.00  0.00    -0.293 N 
ATOM     13  C   UNL     1       0.858  -1.882   1.219  0.00  0.00    +0.074 C 
ATOM     14  C   UNL     1       1.157  -0.390   1.394  0.00  0.00    +0.025 C 
ATOM     15  C   UNL     1      -0.654  -2.102   1.157  0.00  0.00    +0.028 C 
ATOM     16  C   UNL     1       2.305  -3.405  -0.038  0.00  0.00    +0.267 C 
ATOM     17  O   UNL     1       2.664  -3.901   1.012  0.00  0.00    -0.268 OA
ENDBRANCH   1  16
BRANCH   5  18
ATOM     18  N   UNL     1       2.103  -3.501  -4.803  0.00  0.00    -0.268 N 
ATOM     19  H   UNL     1       2.390  -3.845  -5.663  0.00  0.00    +0.167 HD
BRANCH  18  20
ATOM     20  N   UNL     1       1.145  -2.528  -4.742  0.00  0.00    -0.255 NA
ATOM     21  H   UNL     1       0.833  -2.270  -5.667  0.00  0.00    +0.140 HD
ATOM     22  H   UNL     1       0.370  -2.820  -4.167  0.00  0.00    +0.140 HD
ENDBRANCH  18  20
ENDBRANCH   5  18
TORSDOF 3
