REMARK  Name = ZINC38965733
REMARK  6 active torsions:
REMARK  status: ('A' for Active; 'I' for Inactive)
REMARK    1  A    between atoms: C_1  and  O_2
REMARK    2  A    between atoms: O_2  and  C_3
REMARK    3  A    between atoms: C_6  and  N_10
REMARK    4  A    between atoms: N_10  and  C_11
REMARK    5  A    between atoms: N_14  and  S_15
REMARK    6  A    between atoms: S_15  and  C_18
REMARK                            x       y       z     vdW  Elec       q    Type
REMARK                         _______ _______ _______ _____ _____    ______ ____
ROOT
ATOM      1  C   UNL     1       2.512  -3.963   4.344  0.00  0.00    +0.237 C 
ATOM      2  C   UNL     1       3.905  -4.426   4.707  0.00  0.00    +0.192 C 
ATOM      3  N   UNL     1       4.916  -4.138   3.942  0.00  0.00    -0.110 NA
ATOM      4  N   UNL     1       4.082  -5.138   5.832  0.00  0.00    -0.226 NA
ATOM      5  C   UNL     1       3.075  -5.441   6.623  0.00  0.00    +0.089 A 
ATOM      6  C   UNL     1       3.299  -6.195   7.803  0.00  0.00    +0.030 A 
ATOM      7  C   UNL     1       2.268  -6.510   8.618  0.00  0.00    +0.002 A 
ATOM      8  C   UNL     1       0.945  -6.120   8.355  0.00  0.00    +0.002 A 
ATOM      9  C   UNL     1       0.621  -5.400   7.258  0.00  0.00    +0.027 A 
ATOM     10  C   UNL     1       1.686  -5.016   6.320  0.00  0.00    +0.063 A 
ATOM     11  N   UNL     1       1.411  -4.321   5.253  0.00  0.00    -0.359 N 
ATOM     12  H   UNL     1       0.501  -4.045   5.061  0.00  0.00    +0.162 HD
ENDROOT
BRANCH   3  13
ATOM     13  S   UNL     1       6.436  -4.651   4.352  0.00  0.00    +0.100 S 
ATOM     14  O   UNL     1       6.790  -3.963   5.543  0.00  0.00    -0.146 OA
ATOM     15  O   UNL     1       6.423  -6.069   4.266  0.00  0.00    -0.146 OA
BRANCH  13  16
ATOM     16  C   UNL     1       7.534  -4.081   3.096  0.00  0.00    +0.114 A 
ATOM     17  C   UNL     1       7.784  -4.868   1.987  0.00  0.00    +0.029 A 
ATOM     18  C   UNL     1       8.645  -4.422   1.002  0.00  0.00    +0.003 A 
ATOM     19  C   UNL     1       9.257  -3.189   1.126  0.00  0.00    +0.020 A 
ATOM     20  C   UNL     1       9.007  -2.401   2.235  0.00  0.00    +0.043 A 
ATOM     21  C   UNL     1       8.141  -2.846   3.218  0.00  0.00    +0.049 A 
ATOM     22 CL   UNL     1       9.776  -0.852   2.391  0.00  0.00    -0.083 Cl
ENDBRANCH  13  16
ENDBRANCH   3  13
BRANCH   1  23
ATOM     23  N   UNL     1       2.541  -2.502   4.231  0.00  0.00    -0.318 N 
ATOM     24  H   UNL     1       2.915  -1.968   4.949  0.00  0.00    +0.148 HD
BRANCH  23  28
ATOM     25  C   UNL     1       1.016  -0.646   0.824  0.00  0.00    +0.138 A 
ATOM     26  C   UNL     1       0.835  -2.008   1.011  0.00  0.00    +0.049 A 
ATOM     27  C   UNL     1       1.340  -2.624   2.139  0.00  0.00    +0.026 A 
ATOM     28  C   UNL     1       2.030  -1.879   3.087  0.00  0.00    +0.030 A 
ATOM     29  C   UNL     1       2.211  -0.515   2.900  0.00  0.00    +0.046 A 
ATOM     30  C   UNL     1       1.710   0.098   1.767  0.00  0.00    +0.084 A 
ATOM     31 CL   UNL     1       1.943   1.802   1.528  0.00  0.00    -0.080 Cl
BRANCH  25  33
ATOM     32  C   UNL     1      -0.185  -0.868  -1.217  0.00  0.00    +0.277 C 
ATOM     33  O   UNL     1       0.518  -0.041  -0.288  0.00  0.00    -0.494 OA
ENDBRANCH  25  33
ENDBRANCH  23  28
ENDBRANCH   1  23
TORSDOF 5
