REMARK  Name = ZINC39839632
REMARK  7 active torsions:
REMARK  status: ('A' for Active; 'I' for Inactive)
REMARK    1  A    between atoms: C_1  and  C_2
REMARK    2  A    between atoms: C_2  and  O_3
REMARK    3  A    between atoms: O_3  and  C_4
REMARK    4  A    between atoms: C_6  and  C_11
REMARK    5  A    between atoms: C_9  and  O_10
REMARK    6  A    between atoms: N_26  and  C_27
REMARK    7  A    between atoms: C_27  and  C_28
REMARK                            x       y       z     vdW  Elec       q    Type
REMARK                         _______ _______ _______ _____ _____    ______ ____
ROOT
ATOM      1  C   UNL     1       0.654  -4.954  -0.018  0.00  0.00    +0.145 C 
ATOM      2  C   UNL     1       0.892  -5.511   1.347  0.00  0.00    +0.072 A 
ATOM      3  C   UNL     1       1.194  -4.850   2.621  0.00  0.00    +0.199 A 
ATOM      4  O   UNL     1       1.126  -3.644   2.779  0.00  0.00    -0.287 OA
ATOM      5  C   UNL     1       1.590  -5.790   3.699  0.00  0.00    +0.066 A 
ATOM      6  C   UNL     1       2.097  -5.308   4.906  0.00  0.00    +0.035 A 
ATOM      7  C   UNL     1       2.465  -6.195   5.894  0.00  0.00    +0.042 A 
ATOM      8  C   UNL     1       2.330  -7.562   5.686  0.00  0.00    +0.023 A 
ATOM      9  C   UNL     1       1.828  -8.049   4.500  0.00  0.00    +0.048 A 
ATOM     10  C   UNL     1       1.447  -7.171   3.486  0.00  0.00    +0.140 A 
ATOM     11  O   UNL     1       0.948  -7.676   2.334  0.00  0.00    -0.450 OA
ATOM     12  C   UNL     1       0.791  -6.870   1.266  0.00  0.00    +0.199 A 
ATOM     13  C   UNL     1       0.496  -7.229  -0.132  0.00  0.00    +0.284 C 
ATOM     14  O   UNL     1       0.348  -8.363  -0.544  0.00  0.00    -0.267 OA
ATOM     15  N   UNL     1       0.413  -6.115  -0.891  0.00  0.00    -0.276 N 
ATOM     16 CL   UNL     1       3.097  -5.605   7.399  0.00  0.00    -0.084 Cl
ENDROOT
BRANCH   1  19
ATOM     17  C   UNL     1      -1.498  -1.849   0.006  0.00  0.00    +0.162 A 
ATOM     18  C   UNL     1      -0.389  -2.680  -0.003  0.00  0.00    +0.055 A 
ATOM     19  C   UNL     1      -0.553  -4.052  -0.008  0.00  0.00    -0.019 A 
ATOM     20  C   UNL     1      -1.823  -4.600  -0.005  0.00  0.00    +0.009 A 
ATOM     21  C   UNL     1      -2.934  -3.777   0.004  0.00  0.00    +0.049 A 
ATOM     22  C   UNL     1      -2.776  -2.400   0.016  0.00  0.00    +0.158 A 
BRANCH  22  23
ATOM     23  O   UNL     1      -3.868  -1.589   0.030  0.00  0.00    -0.503 OA
ATOM     24  H   UNL     1      -4.192  -1.350  -0.849  0.00  0.00    +0.292 HD
ENDBRANCH  22  23
BRANCH  17  25
ATOM     25  O   UNL     1      -1.339  -0.499   0.012  0.00  0.00    -0.489 OA
BRANCH  25  27
ATOM     26  C   UNL     1      -0.019   1.526   0.010  0.00  0.00    +0.048 C 
ATOM     27  C   UNL     1       0.002  -0.004   0.002  0.00  0.00    +0.226 C 
ENDBRANCH  25  27
ENDBRANCH  17  25
ENDBRANCH   1  19
BRANCH  15  28
ATOM     28  C   UNL     1       0.133  -6.068  -2.328  0.00  0.00    +0.183 C 
BRANCH  28  29
ATOM     29  C   UNL     1       1.429  -6.135  -3.095  0.00  0.00    +0.122 A 
ATOM     30  C   UNL     1       2.033  -7.258  -3.522  0.00  0.00    +0.046 A 
ATOM     31  C   UNL     1       3.213  -6.859  -4.191  0.00  0.00    +0.041 A 
ATOM     32  C   UNL     1       3.258  -5.515  -4.133  0.00  0.00    +0.195 A 
ATOM     33  O   UNL     1       2.172  -5.082  -3.473  0.00  0.00    -0.466 OA
ENDBRANCH  28  29
ENDBRANCH  15  28
TORSDOF 6
