REMARK  Name = ZINC01375230
REMARK  15 active torsions:
REMARK  status: ('A' for Active; 'I' for Inactive)
REMARK    1  A    between atoms: C_1  and  C_2
REMARK    2  A    between atoms: C_2  and  C_3
REMARK    3  A    between atoms: C_3  and  C_5
REMARK    4  A    between atoms: C_3  and  N_15
REMARK    5  A    between atoms: N_9  and  C_10
REMARK    6  A    between atoms: C_10  and  C_11
REMARK    7  A    between atoms: C_10  and  C_12
REMARK    8  A    between atoms: C_10  and  C_13
REMARK    9  A    between atoms: C_13  and  C_14
REMARK   10  A    between atoms: N_15  and  C_16
REMARK   11  A    between atoms: N_15  and  C_26
REMARK   12  A    between atoms: C_16  and  C_17
REMARK   13  A    between atoms: C_26  and  C_27
REMARK   14  A    between atoms: C_30  and  C_40
REMARK   15  A    between atoms: C_32  and  C_39
REMARK                            x       y       z     vdW  Elec       q    Type
REMARK                         _______ _______ _______ _____ _____    ______ ____
ROOT
ATOM      1  N   UNL     1       2.713   0.679  -1.292  0.00  0.00    -0.284 NA
ENDROOT
BRANCH   1   2
ATOM      2  C   UNL     1       1.812  -0.481  -1.332  0.00  0.00    +0.127 C 
BRANCH   2   3
ATOM      3  C   UNL     1       1.051  -0.571  -0.035  0.00  0.00    +0.169 A 
ATOM      4  N   UNL     1       0.602   0.432   0.680  0.00  0.00    -0.112 NA
ATOM      5  N   UNL     1       0.006  -0.053   1.715  0.00  0.00    -0.023 NA
ATOM      6  N   UNL     1       0.062  -1.339   1.677  0.00  0.00    -0.043 NA
ATOM      7  N   UNL     1       0.694  -1.696   0.611  0.00  0.00    -0.222 N 
BRANCH   7   8
ATOM      8  C   UNL     1       0.974  -3.070   0.185  0.00  0.00    +0.061 C 
ATOM      9  C   UNL     1       0.463  -3.275  -1.243  0.00  0.00    +0.036 C 
ATOM     10  C   UNL     1       2.483  -3.320   0.227  0.00  0.00    +0.036 C 
BRANCH   8  11
ATOM     11  C   UNL     1       0.268  -4.049   1.125  0.00  0.00    +0.026 C 
ATOM     12  C   UNL     1       0.560  -5.484   0.680  0.00  0.00    +0.006 C 
ENDBRANCH   8  11
ENDBRANCH   7   8
ENDBRANCH   2   3
BRANCH   2  14
ATOM     13  C   UNL     1       1.602  -0.177  -3.803  0.00  0.00    +0.006 C 
ATOM     14  C   UNL     1       0.827  -0.321  -2.492  0.00  0.00    +0.023 C 
ENDBRANCH   2  14
ENDBRANCH   1   2
BRANCH   1  15
ATOM     15  C   UNL     1       3.854   0.492  -2.198  0.00  0.00    +0.120 C 
BRANCH  15  16
ATOM     16  C   UNL     1       4.755  -0.587  -1.655  0.00  0.00    -0.030 A 
ATOM     17  C   UNL     1       5.683  -0.283  -0.677  0.00  0.00    +0.009 A 
ATOM     18  C   UNL     1       6.512  -1.269  -0.175  0.00  0.00    +0.050 A 
ATOM     19  C   UNL     1       6.413  -2.566  -0.652  0.00  0.00    +0.166 A 
ATOM     20  C   UNL     1       5.478  -2.873  -1.638  0.00  0.00    +0.167 A 
ATOM     21  C   UNL     1       4.647  -1.880  -2.132  0.00  0.00    +0.054 A 
ATOM     22  O   UNL     1       5.578  -4.201  -1.935  0.00  0.00    -0.453 OA
ATOM     23  C   UNL     1       6.856  -4.616  -1.418  0.00  0.00    +0.466 C 
ATOM     24  O   UNL     1       7.099  -3.702  -0.332  0.00  0.00    -0.453 OA
ENDBRANCH  15  16
ENDBRANCH   1  15
BRANCH   1  25
ATOM     25  C   UNL     1       1.990   1.919  -1.606  0.00  0.00    +0.126 C 
BRANCH  25  26
ATOM     26  C   UNL     1       1.259   2.398  -0.378  0.00  0.00    +0.032 A 
ATOM     27  C   UNL     1       1.958   2.883   0.678  0.00  0.00    +0.020 A 
ATOM     28  C   UNL     1       1.219   3.341   1.855  0.00  0.00    +0.002 A 
ATOM     29  C   UNL     1       1.885   3.851   2.975  0.00  0.00    -0.041 A 
ATOM     30  C   UNL     1       1.166   4.271   4.057  0.00  0.00    +0.007 A 
ATOM     31  C   UNL     1      -0.221   4.196   4.057  0.00  0.00    -0.048 A 
ATOM     32  C   UNL     1      -0.898   3.697   2.966  0.00  0.00    +0.029 A 
ATOM     33  C   UNL     1      -0.186   3.264   1.851  0.00  0.00    +0.050 A 
ATOM     34  N   UNL     1      -0.838   2.761   0.745  0.00  0.00    -0.322 N 
ATOM     35  H   UNL     1      -1.807   2.709   0.744  0.00  0.00    +0.169 HD
ATOM     36  C   UNL     1      -0.151   2.347  -0.334  0.00  0.00    +0.254 A 
ATOM     37  O   UNL     1      -0.760   1.913  -1.296  0.00  0.00    -0.268 OA
ATOM     38  C   UNL     1      -0.993   4.665   5.263  0.00  0.00    +0.044 C 
ATOM     39  C   UNL     1       3.389   3.937   2.986  0.00  0.00    +0.044 C 
ENDBRANCH  25  26
ENDBRANCH   1  25
TORSDOF 9
