REMARK  Name = ZINC36991741
REMARK  6 active torsions:
REMARK  status: ('A' for Active; 'I' for Inactive)
REMARK    1  A    between atoms: C_1  and  C_2
REMARK    2  A    between atoms: C_2  and  C_3
REMARK    3  A    between atoms: C_3  and  C_5
REMARK    4  A    between atoms: C_3  and  N_12
REMARK    5  A    between atoms: N_12  and  C_13
REMARK    6  A    between atoms: C_22  and  O_23
REMARK                            x       y       z     vdW  Elec       q    Type
REMARK                         _______ _______ _______ _____ _____    ______ ____
ROOT
ATOM      1  N   UNL     1      -2.122   0.192   1.258  0.00  0.00    +0.388 N 
ATOM      2  H   UNL     1      -3.113   0.021   1.342  0.00  0.00    -0.084 HD
ATOM      3  H   UNL     1      -1.653  -0.128   2.093  0.00  0.00    -0.084 HD
ENDROOT
BRANCH   1   4
ATOM      4  C   UNL     1      -1.885   1.631   1.085  0.00  0.00    -0.039 C 
ATOM      5  C   UNL     1      -2.805   2.196  -0.018  0.00  0.00    -0.006 C 
ATOM      6  C   UNL     1      -3.119   3.614   0.507  0.00  0.00    +0.038 C 
ATOM      7  C   UNL     1      -2.976   3.520   2.011  0.00  0.00    -0.004 A 
ATOM      8  C   UNL     1      -2.265   2.381   2.344  0.00  0.00    -0.055 A 
ATOM      9  C   UNL     1      -2.010   2.089   3.674  0.00  0.00    +0.002 A 
ATOM     10  C   UNL     1      -2.461   2.932   4.672  0.00  0.00    +0.004 A 
ATOM     11  C   UNL     1      -3.170   4.071   4.346  0.00  0.00    +0.046 A 
ATOM     12  C   UNL     1      -3.432   4.367   3.013  0.00  0.00    +0.120 A 
BRANCH  12  13
ATOM     13  O   UNL     1      -4.129   5.488   2.689  0.00  0.00    -0.506 OA
ATOM     14  H   UNL     1      -5.086   5.355   2.638  0.00  0.00    +0.292 HD
ENDBRANCH  12  13
ENDBRANCH   1   4
BRANCH   1  15
ATOM     15  C   UNL     1      -1.597  -0.534   0.094  0.00  0.00    -0.040 C 
BRANCH  15  16
ATOM     16  C   UNL     1      -2.429  -0.207  -1.119  0.00  0.00    -0.061 A 
ATOM     17  C   UNL     1      -3.804  -0.336  -1.069  0.00  0.00    +0.003 A 
ATOM     18  C   UNL     1      -4.568  -0.035  -2.181  0.00  0.00    +0.015 A 
ATOM     19  C   UNL     1      -3.956   0.395  -3.344  0.00  0.00    +0.018 A 
ATOM     20  C   UNL     1      -2.580   0.524  -3.394  0.00  0.00    +0.015 A 
ATOM     21  C   UNL     1      -1.817   0.228  -2.280  0.00  0.00    +0.003 A 
ATOM     22 BR   UNL     1      -5.000   0.805  -4.866  0.00  0.00    -0.050 Br
ENDBRANCH  15  16
BRANCH  15  24
ATOM     23  C   UNL     1      -0.700  -2.392   1.503  0.00  0.00    +0.002 C 
ATOM     24  C   UNL     1      -1.656  -2.039   0.362  0.00  0.00    -0.015 C 
ENDBRANCH  15  24
ENDBRANCH   1  15
TORSDOF 5
