REMARK  Name = ZINC44878663
REMARK  12 active torsions:
REMARK  status: ('A' for Active; 'I' for Inactive)
REMARK    1  A    between atoms: C_1  and  C_2
REMARK    2  A    between atoms: C_5  and  N_33
REMARK    3  A    between atoms: C_7  and  N_8
REMARK    4  A    between atoms: N_8  and  C_9
REMARK    5  A    between atoms: N_8  and  S_29
REMARK    6  A    between atoms: C_9  and  C_10
REMARK    7  A    between atoms: N_12  and  C_13
REMARK    8  A    between atoms: C_13  and  C_14
REMARK    9  A    between atoms: C_17  and  C_20
REMARK   10  A    between atoms: C_20  and  N_21
REMARK   11  A    between atoms: C_25  and  C_28
REMARK   12  A    between atoms: S_29  and  C_32
REMARK                            x       y       z     vdW  Elec       q    Type
REMARK                         _______ _______ _______ _____ _____    ______ ____
ROOT
ATOM      1  C   UNL     1       1.395   2.019   3.334  0.00  0.00    +0.232 C 
ATOM      2  O   UNL     1       0.744   2.655   2.533  0.00  0.00    -0.274 OA
ATOM      3  N   UNL     1       2.412   2.607   3.995  0.00  0.00    -0.310 N 
ATOM      4  H   UNL     1       2.932   2.097   4.636  0.00  0.00    +0.149 HD
ENDROOT
BRANCH   1   5
ATOM      5  C   UNL     1       1.067   0.570   3.590  0.00  0.00    +0.226 C 
BRANCH   5   6
ATOM      6  N   UNL     1       0.018   0.136   2.664  0.00  0.00    -0.198 N 
BRANCH   6  13
ATOM      7  C   UNL     1       0.359  -2.662   2.281  0.00  0.00    +0.046 C 
ATOM      8  C   UNL     1       0.534  -1.676   1.155  0.00  0.00    -0.028 A 
ATOM      9  C   UNL     1       0.864  -2.121  -0.110  0.00  0.00    +0.007 A 
ATOM     10  C   UNL     1       1.025  -1.216  -1.143  0.00  0.00    +0.033 A 
ATOM     11  C   UNL     1       0.855   0.137  -0.914  0.00  0.00    +0.128 A 
ATOM     12  C   UNL     1       0.525   0.589   0.348  0.00  0.00    +0.057 A 
ATOM     13  C   UNL     1       0.357  -0.318   1.387  0.00  0.00    +0.056 A 
BRANCH  11  14
ATOM     14  N   UNL     1       1.029   1.102  -2.023  0.00  0.00    +0.056 N 
ATOM     15  O   UNL     1       1.318   0.707  -3.128  0.00  0.00    -0.126 OA
ATOM     16  O   UNL     1       0.881   2.285  -1.823  0.00  0.00    -0.126 OA
ENDBRANCH  11  14
ENDBRANCH   6  13
BRANCH   6  17
ATOM     17  S   UNL     1      -1.570   0.182   3.131  0.00  0.00    +0.043 S 
ATOM     18  O   UNL     1      -1.659   1.301   4.002  0.00  0.00    -0.155 OA
ATOM     19  O   UNL     1      -2.307   0.149   1.916  0.00  0.00    -0.155 OA
ATOM     20  C   UNL     1      -1.828  -1.355   4.059  0.00  0.00    +0.218 C 
ENDBRANCH   6  17
ENDBRANCH   5   6
ENDBRANCH   1   5
BRANCH   3  21
ATOM     21  C   UNL     1       2.730   4.014   3.745  0.00  0.00    +0.139 C 
BRANCH  21  22
ATOM     22  C   UNL     1       3.899   4.425   4.604  0.00  0.00    -0.030 A 
ATOM     23  C   UNL     1       3.681   4.932   5.871  0.00  0.00    +0.005 A 
ATOM     24  C   UNL     1       4.753   5.309   6.659  0.00  0.00    +0.002 A 
ATOM     25  C   UNL     1       6.043   5.176   6.180  0.00  0.00    -0.064 A 
ATOM     26  C   UNL     1       6.261   4.668   4.913  0.00  0.00    +0.002 A 
ATOM     27  C   UNL     1       5.189   4.287   4.127  0.00  0.00    +0.005 A 
BRANCH  25  28
ATOM     28  C   UNL     1       7.211   5.587   7.038  0.00  0.00    -0.043 C 
BRANCH  28  29
ATOM     29  N   UNL     1       7.655   4.441   7.843  0.00  0.00    +0.383 N 
ATOM     30  C   UNL     1       6.590   4.060   8.778  0.00  0.00    -0.078 C 
ATOM     31  C   UNL     1       7.015   2.817   9.562  0.00  0.00    -0.018 C 
ATOM     32  C   UNL     1       8.296   3.125  10.343  0.00  0.00    -0.001 C 
ATOM     33  C   UNL     1       9.378   3.593   9.365  0.00  0.00    -0.031 C 
ATOM     34  C   UNL     1       8.865   4.808   8.588  0.00  0.00    -0.075 C 
ATOM     35  C   UNL     1      10.638   3.977  10.143  0.00  0.00    +0.005 C 
ATOM     36  H   UNL     1       7.859   3.663   7.234  0.00  0.00    -0.081 HD
ENDBRANCH  28  29
ENDBRANCH  25  28
ENDBRANCH  21  22
ENDBRANCH   3  21
TORSDOF 9
