REMARK  Name = ZINC65022795
REMARK  8 active torsions:
REMARK  status: ('A' for Active; 'I' for Inactive)
REMARK    1  A    between atoms: C_1  and  C_2
REMARK    2  A    between atoms: C_5  and  N_9
REMARK    3  A    between atoms: N_9  and  S_10
REMARK    4  A    between atoms: S_10  and  C_13
REMARK    5  A    between atoms: C_18  and  C_19
REMARK    6  A    between atoms: N_20  and  C_25
REMARK    7  A    between atoms: C_25  and  C_26
REMARK    8  A    between atoms: C_28  and  C_31
REMARK                            x       y       z     vdW  Elec       q    Type
REMARK                         _______ _______ _______ _____ _____    ______ ____
ROOT
ATOM      1  C   UNL     1       2.469  -4.657  -0.854  0.00  0.00    +0.115 A 
ATOM      2  C   UNL     1       3.381  -5.668  -0.612  0.00  0.00    +0.076 A 
ATOM      3  C   UNL     1       4.705  -5.355  -0.356  0.00  0.00    +0.144 A 
ATOM      4  C   UNL     1       5.113  -4.022  -0.343  0.00  0.00    +0.079 A 
ATOM      5  C   UNL     1       4.195  -3.015  -0.587  0.00  0.00    +0.032 A 
ATOM      6  C   UNL     1       2.874  -3.336  -0.846  0.00  0.00    -0.022 A 
ATOM      7  C   UNL     1       1.874  -2.241  -1.117  0.00  0.00    +0.046 C 
ATOM      8  N   UNL     1       6.457  -3.719  -0.081  0.00  0.00    -0.258 N 
ATOM      9  C   UNL     1       7.377  -4.705  -0.160  0.00  0.00    +0.258 C 
ATOM     10  O   UNL     1       8.541  -4.473   0.093  0.00  0.00    -0.271 OA
ATOM     11  C   UNL     1       6.953  -6.094  -0.563  0.00  0.00    +0.325 C 
ATOM     12  O   UNL     1       5.616  -6.336  -0.117  0.00  0.00    -0.481 OA
ENDROOT
BRANCH   1  13
ATOM     13  S   UNL     1       0.783  -5.056  -1.179  0.00  0.00    +0.073 S 
ATOM     14  O   UNL     1      -0.001  -4.230  -0.330  0.00  0.00    -0.150 OA
ATOM     15  O   UNL     1       0.691  -6.474  -1.161  0.00  0.00    -0.150 OA
BRANCH  13  16
ATOM     16  N   UNL     1       0.459  -4.580  -2.732  0.00  0.00    -0.215 N 
ATOM     17  H   UNL     1      -0.232  -3.922  -2.904  0.00  0.00    +0.174 HD
BRANCH  16  22
ATOM     18  C   UNL     1       3.389  -6.806  -7.050  0.00  0.00    +0.044 C 
ATOM     19  C   UNL     1       2.610  -6.214  -5.903  0.00  0.00    -0.049 A 
ATOM     20  C   UNL     1       2.295  -6.996  -4.807  0.00  0.00    +0.005 A 
ATOM     21  C   UNL     1       1.581  -6.458  -3.754  0.00  0.00    +0.026 A 
ATOM     22  C   UNL     1       1.181  -5.128  -3.796  0.00  0.00    +0.066 A 
ATOM     23  C   UNL     1       1.501  -4.344  -4.898  0.00  0.00    +0.064 A 
ATOM     24  C   UNL     1       2.219  -4.889  -5.946  0.00  0.00    +0.025 A 
ATOM     25 CL   UNL     1       1.003  -2.682  -4.956  0.00  0.00    -0.082 Cl
ENDBRANCH  16  22
ENDBRANCH  13  16
ENDBRANCH   1  13
BRANCH   8  26
ATOM     26  C   UNL     1       6.856  -2.355   0.273  0.00  0.00    +0.193 C 
BRANCH  26  27
ATOM     27  C   UNL     1       6.792  -2.184   1.769  0.00  0.00    +0.189 A 
ATOM     28  N   UNL     1       5.722  -1.777   2.460  0.00  0.00    -0.194 NA
ATOM     29  C   UNL     1       6.000  -1.737   3.733  0.00  0.00    +0.231 A 
ATOM     30  O   UNL     1       7.272  -2.122   3.897  0.00  0.00    -0.338 OA
ATOM     31  N   UNL     1       7.768  -2.415   2.599  0.00  0.00    -0.060 NA
BRANCH  29  32
ATOM     32  C   UNL     1       5.053  -1.328   4.832  0.00  0.00    +0.078 C 
ATOM     33  C   UNL     1       5.633  -1.155   6.237  0.00  0.00    +0.014 C 
ATOM     34  C   UNL     1       4.744  -2.359   5.919  0.00  0.00    +0.014 C 
ENDBRANCH  29  32
ENDBRANCH  26  27
ENDBRANCH   8  26
TORSDOF 6
