REMARK  Name = ZINC28296102
REMARK  12 active torsions:
REMARK  status: ('A' for Active; 'I' for Inactive)
REMARK    1  A    between atoms: C_1  and  C_2
REMARK    2  A    between atoms: C_2  and  N_3
REMARK    3  A    between atoms: N_3  and  C_4
REMARK    4  A    between atoms: N_3  and  C_6
REMARK    5  A    between atoms: C_4  and  C_5
REMARK    6  A    between atoms: C_6  and  C_8
REMARK    7  A    between atoms: C_6  and  C_24
REMARK    8  A    between atoms: C_8  and  N_9
REMARK    9  A    between atoms: C_10  and  C_12
REMARK   10  A    between atoms: C_14  and  C_17
REMARK   11  A    between atoms: C_27  and  O_30
REMARK   12  A    between atoms: O_30  and  C_31
REMARK                            x       y       z     vdW  Elec       q    Type
REMARK                         _______ _______ _______ _____ _____    ______ ____
ROOT
ATOM      1  C   UNL     1      -1.403  -0.050   2.042  0.00  0.00    +0.094 C 
ENDROOT
BRANCH   1   2
ATOM      2  N   UNL     1      -0.451  -0.725   1.157  0.00  0.00    -0.311 N 
ATOM      3  C   UNL     1       0.326  -1.718   1.634  0.00  0.00    +0.266 C 
ATOM      4  O   UNL     1       0.236  -2.053   2.798  0.00  0.00    -0.268 OA
ATOM      5  H   UNL     1      -0.370  -0.422   0.103  0.00  0.00    +0.149 HD
BRANCH   3   6
ATOM      6  C   UNL     1       1.290  -2.402   0.737  0.00  0.00    +0.168 A 
ATOM      7  C   UNL     1       2.176  -3.454   1.084  0.00  0.00    +0.086 A 
ATOM      8  C   UNL     1       2.835  -3.725  -0.083  0.00  0.00    +0.168 A 
ATOM      9  O   UNL     1       2.346  -2.872  -1.000  0.00  0.00    -0.354 OA
ATOM     10  N   UNL     1       1.496  -2.151  -0.533  0.00  0.00    -0.073 NA
BRANCH   8  11
ATOM     11  C   UNL     1       3.881  -4.748  -0.293  0.00  0.00    +0.020 A 
ATOM     12  C   UNL     1       4.290  -5.559   0.766  0.00  0.00    +0.013 A 
ATOM     13  C   UNL     1       5.263  -6.516   0.563  0.00  0.00    +0.016 A 
ATOM     14  C   UNL     1       5.842  -6.664  -0.686  0.00  0.00    +0.018 A 
ATOM     15  C   UNL     1       5.444  -5.858  -1.739  0.00  0.00    +0.016 A 
ATOM     16  C   UNL     1       4.468  -4.902  -1.550  0.00  0.00    +0.013 A 
ATOM     17 BR   UNL     1       7.181  -7.972  -0.955  0.00  0.00    -0.050 Br
ENDBRANCH   8  11
ENDBRANCH   3   6
ENDBRANCH   1   2
BRANCH   1  18
ATOM     18  C   UNL     1      -2.244   0.936   1.230  0.00  0.00    -0.020 C 
BRANCH  18  19
ATOM     19  C   UNL     1      -3.146   1.710   2.157  0.00  0.00    -0.059 A 
ATOM     20  C   UNL     1      -2.662   2.164   3.370  0.00  0.00    +0.005 A 
ATOM     21  C   UNL     1      -3.485   2.879   4.219  0.00  0.00    +0.046 A 
ATOM     22  C   UNL     1      -4.800   3.131   3.859  0.00  0.00    +0.120 A 
ATOM     23  C   UNL     1      -5.285   2.670   2.643  0.00  0.00    +0.046 A 
ATOM     24  C   UNL     1      -4.456   1.960   1.795  0.00  0.00    +0.005 A 
BRANCH  22  25
ATOM     25  O   UNL     1      -5.613   3.828   4.695  0.00  0.00    -0.495 OA
ATOM     26  C   UNL     1      -5.047   4.272   5.930  0.00  0.00    +0.277 C 
ENDBRANCH  22  25
ENDBRANCH  18  19
BRANCH  18  27
ATOM     27  N   UNL     1      -1.357   1.867   0.519  0.00  0.00    +0.385 N 
ATOM     28  H   UNL     1      -0.731   1.279  -0.168  0.00  0.00    -0.081 HD
BRANCH  27  30
ATOM     29  C   UNL     1       0.804   1.741   1.663  0.00  0.00    -0.017 C 
ATOM     30  C   UNL     1      -0.468   2.566   1.456  0.00  0.00    -0.081 C 
ENDBRANCH  27  30
BRANCH  27  31
ATOM     31  C   UNL     1      -2.132   2.822  -0.284  0.00  0.00    -0.081 C 
ATOM     32  C   UNL     1      -2.744   2.101  -1.486  0.00  0.00    -0.017 C 
ENDBRANCH  27  31
ENDBRANCH  18  27
ENDBRANCH   1  18
TORSDOF 9
