REMARK  Name = ZINC06244851
REMARK  8 active torsions:
REMARK  status: ('A' for Active; 'I' for Inactive)
REMARK    1  A    between atoms: C_1  and  C_2
REMARK    2  A    between atoms: C_5  and  C_39
REMARK    3  A    between atoms: C_9  and  C_14
REMARK    4  A    between atoms: C_14  and  C_16
REMARK    5  A    between atoms: C_14  and  N_69
REMARK    6  A    between atoms: N_20  and  C_21
REMARK    7  A    between atoms: C_21  and  C_22
REMARK    8  A    between atoms: N_30  and  C_33
REMARK                            x       y       z     vdW  Elec       q    Type
REMARK                         _______ _______ _______ _____ _____    ______ ____
ROOT
ATOM      1  C   UNL     1       1.595   2.773  -0.375  0.00  0.00    +0.039 C 
ENDROOT
BRANCH   1  10
ATOM      2  C   UNL     1       2.570   5.922   3.657  0.00  0.00    +0.044 C 
ATOM      3  C   UNL     1       3.742   6.025   2.714  0.00  0.00    -0.041 A 
ATOM      4  C   UNL     1       4.793   6.846   3.014  0.00  0.00    +0.004 A 
ATOM      5  C   UNL     1       5.876   6.948   2.152  0.00  0.00    +0.005 A 
ATOM      6  C   UNL     1       5.913   6.225   0.979  0.00  0.00    -0.026 A 
ATOM      7  C   UNL     1       4.855   5.384   0.654  0.00  0.00    +0.052 A 
ATOM      8  C   UNL     1       3.758   5.282   1.530  0.00  0.00    +0.002 A 
ATOM      9  C   UNL     1       2.647   4.397   1.176  0.00  0.00    +0.018 A 
ATOM     10  C   UNL     1       2.720   3.697   0.017  0.00  0.00    +0.011 A 
ATOM     11  C   UNL     1       3.842   3.835  -0.827  0.00  0.00    +0.251 A 
ATOM     12  O   UNL     1       3.886   3.200  -1.866  0.00  0.00    -0.268 OA
ATOM     13  N   UNL     1       4.866   4.649  -0.513  0.00  0.00    -0.322 N 
ATOM     14  H   UNL     1       5.622   4.720  -1.116  0.00  0.00    +0.169 HD
ATOM     15  C   UNL     1       7.095   6.347   0.052  0.00  0.00    +0.046 C 
ENDBRANCH   1  10
BRANCH   1  21
ATOM     16  C   UNL     1       1.059   0.484  -0.956  0.00  0.00    -0.058 C 
ATOM     17  C   UNL     1       1.667  -0.864  -1.351  0.00  0.00    +0.086 C 
ATOM     18  N   UNL     1       2.534  -1.344  -0.267  0.00  0.00    -0.333 N 
ATOM     19  C   UNL     1       3.613  -0.384   0.004  0.00  0.00    +0.086 C 
ATOM     20  C   UNL     1       3.006   0.964   0.400  0.00  0.00    -0.058 C 
ATOM     21  N   UNL     1       2.154   1.446  -0.708  0.00  0.00    +0.391 N 
ATOM     22  H   UNL     1       2.725   1.528  -1.557  0.00  0.00    -0.080 HD
BRANCH  18  23
ATOM     23  C   UNL     1       3.051  -2.608  -0.562  0.00  0.00    +0.030 A 
ATOM     24  C   UNL     1       2.714  -3.237  -1.754  0.00  0.00    +0.023 A 
ATOM     25  C   UNL     1       3.231  -4.484  -2.044  0.00  0.00    +0.002 A 
ATOM     26  C   UNL     1       4.073  -5.112  -1.145  0.00  0.00    +0.000 A 
ATOM     27  C   UNL     1       4.406  -4.491   0.044  0.00  0.00    +0.002 A 
ATOM     28  C   UNL     1       3.898  -3.241   0.339  0.00  0.00    +0.023 A 
ENDBRANCH  18  23
ENDBRANCH   1  21
BRANCH   1  29
ATOM     29  C   UNL     1       0.892   3.325  -1.589  0.00  0.00    +0.143 A 
ATOM     30  N   UNL     1       1.411   3.504  -2.779  0.00  0.00    -0.115 NA
ATOM     31  N   UNL     1       0.494   3.990  -3.543  0.00  0.00    -0.023 NA
ATOM     32  N   UNL     1      -0.593   4.133  -2.869  0.00  0.00    -0.044 NA
ATOM     33  N   UNL     1      -0.388   3.733  -1.659  0.00  0.00    -0.226 N 
BRANCH  33  34
ATOM     34  C   UNL     1      -1.365   3.727  -0.568  0.00  0.00    +0.182 C 
BRANCH  34  35
ATOM     35  C   UNL     1      -1.427   5.096   0.060  0.00  0.00    -0.026 A 
ATOM     36  C   UNL     1      -0.675   5.375   1.185  0.00  0.00    +0.005 A 
ATOM     37  C   UNL     1      -0.728   6.632   1.758  0.00  0.00    +0.000 A 
ATOM     38  C   UNL     1      -1.540   7.607   1.211  0.00  0.00    +0.000 A 
ATOM     39  C   UNL     1      -2.297   7.326   0.088  0.00  0.00    +0.000 A 
ATOM     40  C   UNL     1      -2.240   6.071  -0.487  0.00  0.00    +0.005 A 
ENDBRANCH  34  35
ENDBRANCH  33  34
ENDBRANCH   1  29
TORSDOF 6
