REMARK  Name = ZINC38966447
REMARK  8 active torsions:
REMARK  status: ('A' for Active; 'I' for Inactive)
REMARK    1  A    between atoms: C_1  and  C_2
REMARK    2  A    between atoms: C_2  and  C_3
REMARK    3  A    between atoms: C_3  and  C_4
REMARK    4  A    between atoms: C_4  and  C_5
REMARK    5  A    between atoms: C_8  and  N_11
REMARK    6  A    between atoms: N_11  and  C_12
REMARK    7  A    between atoms: N_15  and  S_16
REMARK    8  A    between atoms: S_16  and  C_19
REMARK                            x       y       z     vdW  Elec       q    Type
REMARK                         _______ _______ _______ _____ _____    ______ ____
ROOT
ATOM      1  C   UNL     1       4.853  -3.982  -5.941  0.00  0.00    +0.237 C 
ATOM      2  C   UNL     1       5.197  -5.300  -6.598  0.00  0.00    +0.192 C 
ATOM      3  N   UNL     1       4.737  -6.417  -6.117  0.00  0.00    -0.110 NA
ATOM      4  N   UNL     1       5.986  -5.299  -7.685  0.00  0.00    -0.226 NA
ATOM      5  C   UNL     1       6.464  -4.182  -8.191  0.00  0.00    +0.089 A 
ATOM      6  C   UNL     1       7.293  -4.219  -9.340  0.00  0.00    +0.030 A 
ATOM      7  C   UNL     1       7.787  -3.075  -9.863  0.00  0.00    +0.002 A 
ATOM      8  C   UNL     1       7.517  -1.810  -9.315  0.00  0.00    +0.002 A 
ATOM      9  C   UNL     1       6.738  -1.662  -8.220  0.00  0.00    +0.027 A 
ATOM     10  C   UNL     1       6.161  -2.859  -7.591  0.00  0.00    +0.063 A 
ATOM     11  N   UNL     1       5.405  -2.755  -6.535  0.00  0.00    -0.359 N 
ATOM     12  H   UNL     1       5.211  -1.886  -6.149  0.00  0.00    +0.162 HD
ENDROOT
BRANCH   3  13
ATOM     13  S   UNL     1       5.122  -7.853  -6.846  0.00  0.00    +0.103 S 
ATOM     14  O   UNL     1       4.511  -7.834  -8.129  0.00  0.00    -0.146 OA
ATOM     15  O   UNL     1       6.521  -8.035  -6.671  0.00  0.00    -0.146 OA
BRANCH  13  16
ATOM     16  C   UNL     1       4.330  -9.132  -5.930  0.00  0.00    +0.141 A 
ATOM     17  C   UNL     1       3.361  -9.879  -6.510  0.00  0.00    +0.031 A 
ATOM     18  C   UNL     1       2.713 -10.899  -5.815  0.00  0.00    +0.004 A 
ATOM     19  C   UNL     1       3.022 -11.187  -4.529  0.00  0.00    +0.031 A 
ATOM     20  C   UNL     1       4.029 -10.444  -3.855  0.00  0.00    +0.102 A 
ATOM     21  C   UNL     1       4.711  -9.381  -4.584  0.00  0.00    +0.127 A 
ATOM     22  N   UNL     1       5.638  -8.757  -3.855  0.00  0.00    -0.189 NA
ATOM     23  S   UNL     1       5.616  -9.476  -2.416  0.00  0.00    +0.117 S 
ATOM     24  N   UNL     1       4.464 -10.584  -2.602  0.00  0.00    -0.191 NA
ENDBRANCH  13  16
ENDBRANCH   3  13
BRANCH   1  25
ATOM     25  N   UNL     1       3.393  -3.857  -5.931  0.00  0.00    -0.318 N 
ATOM     26  H   UNL     1       2.889  -3.986  -6.749  0.00  0.00    +0.148 HD
BRANCH  25  30
ATOM     27  C   UNL     1       1.408  -2.944  -2.386  0.00  0.00    -0.047 A 
ATOM     28  C   UNL     1       2.789  -2.894  -2.436  0.00  0.00    +0.005 A 
ATOM     29  C   UNL     1       3.451  -3.196  -3.610  0.00  0.00    +0.023 A 
ATOM     30  C   UNL     1       2.727  -3.551  -4.742  0.00  0.00    +0.029 A 
ATOM     31  C   UNL     1       1.340  -3.600  -4.688  0.00  0.00    +0.023 A 
ATOM     32  C   UNL     1       0.685  -3.303  -3.509  0.00  0.00    +0.005 A 
BRANCH  27  33
ATOM     33  C   UNL     1       0.690  -2.614  -1.103  0.00  0.00    +0.035 C 
BRANCH  33  34
ATOM     34  C   UNL     1       0.517  -3.888  -0.273  0.00  0.00    +0.004 C 
BRANCH  34  36
ATOM     35  C   UNL     1      -0.385  -4.825   1.860  0.00  0.00    +0.004 C 
ATOM     36  C   UNL     1      -0.212  -3.552   1.030  0.00  0.00    -0.003 C 
ENDBRANCH  34  36
ENDBRANCH  33  34
ENDBRANCH  27  33
ENDBRANCH  25  30
ENDBRANCH   1  25
TORSDOF 7
