REMARK  Name = ZINC11393478
REMARK  11 active torsions:
REMARK  status: ('A' for Active; 'I' for Inactive)
REMARK    1  A    between atoms: C_1  and  C_2
REMARK    2  A    between atoms: C_2  and  O_3
REMARK    3  A    between atoms: O_3  and  C_4
REMARK    4  A    between atoms: C_4  and  C_6
REMARK    5  A    between atoms: C_7  and  C_21
REMARK    6  A    between atoms: C_12  and  C_14
REMARK    7  A    between atoms: C_21  and  O_22
REMARK    8  A    between atoms: O_22  and  C_23
REMARK    9  A    between atoms: C_23  and  C_25
REMARK   10  A    between atoms: C_27  and  N_32
REMARK   11  A    between atoms: C_30  and  N_31
REMARK                            x       y       z     vdW  Elec       q    Type
REMARK                         _______ _______ _______ _____ _____    ______ ____
ROOT
ATOM      1  C   UNL     1      -6.729  -0.765   1.956  0.00  0.00    +0.081 C 
ATOM      2  C   UNL     1      -5.992  -0.889   0.832  0.00  0.00    +0.061 C 
ATOM      3  N   UNL     1      -6.285  -1.841  -0.102  0.00  0.00    -0.269 N 
ATOM      4  C   UNL     1      -7.293  -2.715   0.019  0.00  0.00    +0.304 C 
ATOM      5  O   UNL     1      -7.473  -3.531  -0.863  0.00  0.00    -0.252 OA
ATOM      6  N   UNL     1      -8.117  -2.715   1.086  0.00  0.00    -0.288 N 
ATOM      7  C   UNL     1      -7.888  -1.722   2.149  0.00  0.00    +0.144 C 
ATOM      8  H   UNL     1      -5.731  -1.890  -0.896  0.00  0.00    +0.156 HD
ATOM      9  H   UNL     1      -8.843  -3.355   1.152  0.00  0.00    +0.151 HD
ENDROOT
BRANCH   7  10
ATOM     10  C   UNL     1      -9.145  -0.905   2.300  0.00  0.00    -0.022 A 
ATOM     11  C   UNL     1      -9.771  -0.388   1.181  0.00  0.00    +0.007 A 
ATOM     12  C   UNL     1     -10.927   0.357   1.318  0.00  0.00    +0.020 A 
ATOM     13  C   UNL     1     -11.452   0.595   2.576  0.00  0.00    +0.041 A 
ATOM     14  C   UNL     1     -10.822   0.081   3.696  0.00  0.00    +0.020 A 
ATOM     15  C   UNL     1      -9.669  -0.668   3.557  0.00  0.00    +0.007 A 
ATOM     16 CL   UNL     1     -12.900   1.536   2.749  0.00  0.00    -0.084 Cl
ENDBRANCH   7  10
BRANCH   1  17
ATOM     17  C   UNL     1      -6.429   0.224   2.922  0.00  0.00    +0.339 C 
ATOM     18  O   UNL     1      -5.884  -0.089   3.964  0.00  0.00    -0.245 OA
BRANCH  17  19
ATOM     19  O   UNL     1      -6.748   1.514   2.688  0.00  0.00    -0.462 OA
BRANCH  19  21
ATOM     20  C   UNL     1      -6.850   3.858   3.266  0.00  0.00    +0.048 C 
ATOM     21  C   UNL     1      -6.415   2.459   3.707  0.00  0.00    +0.229 C 
ENDBRANCH  19  21
ENDBRANCH  17  19
ENDBRANCH   1  17
BRANCH   2  22
ATOM     22  C   UNL     1      -4.830   0.043   0.600  0.00  0.00    +0.283 C 
BRANCH  22  23
ATOM     23  O   UNL     1      -3.591  -0.714   0.621  0.00  0.00    -0.455 OA
BRANCH  23  24
ATOM     24  C   UNL     1      -2.450  -0.024   0.428  0.00  0.00    +0.341 C 
ATOM     25  O   UNL     1      -2.489   1.177   0.248  0.00  0.00    -0.245 OA
BRANCH  24  26
ATOM     26  C   UNL     1      -1.155  -0.726   0.435  0.00  0.00    +0.082 A 
ATOM     27  C   UNL     1      -1.111  -2.120   0.516  0.00  0.00    +0.049 A 
ATOM     28  C   UNL     1       0.103  -2.770   0.529  0.00  0.00    +0.127 A 
ATOM     29  C   UNL     1       1.285  -2.049   0.456  0.00  0.00    +0.034 A 
ATOM     30  C   UNL     1       1.259  -0.672   0.369  0.00  0.00    +0.026 A 
ATOM     31  C   UNL     1       0.043   0.002   0.355  0.00  0.00    +0.039 A 
BRANCH  31  32
ATOM     32  N   UNL     1       0.015   1.387   0.269  0.00  0.00    -0.357 N 
ATOM     33  H   UNL     1       0.841   1.893   0.307  0.00  0.00    +0.142 HD
ATOM     34  H   UNL     1      -0.832   1.849   0.166  0.00  0.00    +0.142 HD
ENDBRANCH  31  32
BRANCH  28  35
ATOM     35  N   UNL     1       0.147  -4.247   0.622  0.00  0.00    +0.056 N 
ATOM     36  O   UNL     1       1.219  -4.825   0.634  0.00  0.00    -0.126 OA
ATOM     37  O   UNL     1      -0.889  -4.884   0.686  0.00  0.00    -0.126 OA
ENDBRANCH  28  35
ENDBRANCH  24  26
ENDBRANCH  23  24
ENDBRANCH  22  23
ENDBRANCH   2  22
TORSDOF 10
