REMARK  Name = ZINC08879968
REMARK  9 active torsions:
REMARK  status: ('A' for Active; 'I' for Inactive)
REMARK    1  A    between atoms: C_1  and  C_2
REMARK    2  A    between atoms: C_5  and  C_7
REMARK    3  A    between atoms: C_7  and  N_51
REMARK    4  A    between atoms: C_8  and  N_51
REMARK    5  A    between atoms: C_9  and  C_11
REMARK    6  A    between atoms: C_9  and  C_12
REMARK    7  A    between atoms: C_9  and  N_51
REMARK    8  A    between atoms: N_14  and  C_15
REMARK    9  A    between atoms: C_16  and  C_25
REMARK                            x       y       z     vdW  Elec       q    Type
REMARK                         _______ _______ _______ _____ _____    ______ ____
ROOT
ATOM      1  C   UNL     1      -1.265  -2.047  -0.350  0.00  0.00    +0.204 C 
ATOM      2  O   UNL     1      -0.194  -2.608  -0.258  0.00  0.00    -0.277 OA
ATOM      3  N   UNL     1      -2.385  -2.765  -0.564  0.00  0.00    -0.280 N 
ATOM      4  H   UNL     1      -3.242  -2.317  -0.638  0.00  0.00    +0.155 HD
ENDROOT
BRANCH   3   5
ATOM      5  C   UNL     1      -2.313  -4.147  -0.678  0.00  0.00    +0.090 A 
ATOM      6  C   UNL     1      -3.342  -5.048  -0.897  0.00  0.00    +0.084 A 
ATOM      7  C   UNL     1      -3.001  -6.461  -0.980  0.00  0.00    -0.018 A 
ATOM      8  C   UNL     1      -1.688  -6.739  -0.823  0.00  0.00    -0.004 A 
ATOM      9  S   UNL     1      -0.913  -5.162  -0.591  0.00  0.00    -0.077 S 
ATOM     10  C   UNL     1      -1.028  -8.083  -0.840  0.00  0.00    +0.043 C 
ATOM     11  C   UNL     1      -1.504  -8.863  -2.074  0.00  0.00    +0.005 C 
ATOM     12  C   UNL     1      -2.758  -9.645  -1.697  0.00  0.00    +0.001 C 
ATOM     13  C   UNL     1      -3.571  -8.870  -0.662  0.00  0.00    +0.005 C 
ATOM     14  C   UNL     1      -4.043  -7.541  -1.242  0.00  0.00    +0.037 C 
BRANCH   6  15
ATOM     15  C   UNL     1      -4.697  -4.604  -1.036  0.00  0.00    +0.102 C 
ATOM     16  N   UNL     1      -5.771  -4.253  -1.146  0.00  0.00    -0.191 NA
ENDBRANCH   6  15
ENDBRANCH   3   5
BRANCH   1  17
ATOM     17  C   UNL     1      -1.343  -0.548  -0.226  0.00  0.00    +0.017 C 
ATOM     18  C   UNL     1      -2.248  -0.180   0.951  0.00  0.00    -0.004 C 
BRANCH  17  20
ATOM     19  C   UNL     1       0.578  -0.530   1.247  0.00  0.00    -0.095 C 
ATOM     20  N   UNL     1       0.019  -0.013  -0.020  0.00  0.00    +0.390 N 
ATOM     21  H   UNL     1       0.618  -0.316  -0.797  0.00  0.00    -0.081 HD
BRANCH  20  22
ATOM     22  C   UNL     1      -0.018   1.465   0.010  0.00  0.00    -0.003 C 
BRANCH  22  27
ATOM     23  C   UNL     1       4.473   3.108   1.614  0.00  0.00    +0.086 C 
ATOM     24  C   UNL     1       3.349   2.701   0.697  0.00  0.00    +0.102 A 
ATOM     25  C   UNL     1       3.382   2.725  -0.648  0.00  0.00    +0.044 A 
ATOM     26  C   UNL     1       2.123   2.264  -1.097  0.00  0.00    +0.043 A 
ATOM     27  C   UNL     1       1.396   1.986  -0.001  0.00  0.00    +0.089 A 
ATOM     28  O   UNL     1       2.141   2.258   1.083  0.00  0.00    -0.467 OA
ENDBRANCH  22  27
ENDBRANCH  20  22
ENDBRANCH  17  20
ENDBRANCH   1  17
TORSDOF 6
