REMARK  Name = ZINC35456061
REMARK  9 active torsions:
REMARK  status: ('A' for Active; 'I' for Inactive)
REMARK    1  A    between atoms: C_1  and  C_2
REMARK    2  A    between atoms: C_7  and  C_34
REMARK    3  A    between atoms: C_8  and  C_10
REMARK    4  A    between atoms: C_10  and  C_11
REMARK    5  A    between atoms: C_12  and  O_25
REMARK    6  A    between atoms: C_14  and  O_24
REMARK    7  A    between atoms: C_18  and  O_23
REMARK    8  A    between atoms: C_29  and  C_30
REMARK    9  A    between atoms: C_29  and  C_31
REMARK                            x       y       z     vdW  Elec       q    Type
REMARK                         _______ _______ _______ _____ _____    ______ ____
ROOT
ATOM      1  C   UNL     1      -2.248  -0.340   1.067  0.00  0.00    +0.039 C 
ATOM      2  C   UNL     1      -1.097  -1.307   1.115  0.00  0.00    -0.073 C 
ATOM      3  C   UNL     1      -0.741  -1.913   0.032  0.00  0.00    -0.027 C 
ATOM      4  C   UNL     1       0.366  -2.910  -0.059  0.00  0.00    +0.032 C 
ATOM      5  C   UNL     1       1.183  -3.067   1.233  0.00  0.00    +0.016 C 
ATOM      6  C   UNL     1       0.269  -2.912   2.446  0.00  0.00    -0.021 C 
ATOM      7  C   UNL     1      -0.386  -1.525   2.412  0.00  0.00    +0.023 C 
ATOM      8  C   UNL     1      -0.780  -4.017   2.447  0.00  0.00    +0.007 C 
ATOM      9  C   UNL     1      -0.089  -5.382   2.492  0.00  0.00    +0.002 C 
ATOM     10  C   UNL     1       0.822  -5.563   1.286  0.00  0.00    +0.018 C 
ATOM     11  C   UNL     1       1.848  -4.443   1.155  0.00  0.00    +0.073 C 
ATOM     12  C   UNL     1       2.977  -4.622   2.169  0.00  0.00    +0.023 C 
ATOM     13  C   UNL     1       1.048  -2.951   3.769  0.00  0.00    +0.012 C 
ENDROOT
BRANCH  11  14
ATOM     14  C   UNL     1       2.496  -4.585  -0.219  0.00  0.00    +0.362 C 
ATOM     15  O   UNL     1       3.413  -3.847  -0.540  0.00  0.00    -0.246 OA
ATOM     16  O   UNL     1       2.098  -5.435  -0.997  0.00  0.00    -0.246 OA
ENDBRANCH  11  14
BRANCH   7  17
ATOM     17  C   UNL     1      -1.355  -1.366   3.579  0.00  0.00    +0.049 C 
BRANCH  17  18
ATOM     18  C   UNL     1      -1.139  -0.003   4.239  0.00  0.00    +0.128 C 
ATOM     19  C   UNL     1      -0.880   1.123   3.268  0.00  0.00    +0.182 C 
ATOM     20  C   UNL     1      -0.955   2.499   3.900  0.00  0.00    +0.174 C 
ATOM     21  C   UNL     1      -2.096   2.612   4.862  0.00  0.00    -0.015 C 
ATOM     22  C   UNL     1      -2.949   3.596   4.725  0.00  0.00    +0.013 C 
ATOM     23  C   UNL     1      -2.289   1.629   5.977  0.00  0.00    +0.174 C 
ATOM     24  C   UNL     1      -1.911   0.222   5.526  0.00  0.00    +0.186 C 
ATOM     25  O   UNL     1      -0.496  -0.037   5.503  0.00  0.00    -0.359 OA
BRANCH  23  26
ATOM     26  O   UNL     1      -1.467   2.005   7.083  0.00  0.00    -0.385 OA
ATOM     27  H   UNL     1      -1.661   2.883   7.437  0.00  0.00    +0.210 HD
ENDBRANCH  23  26
BRANCH  20  28
ATOM     28  O   UNL     1       0.266   2.758   4.596  0.00  0.00    -0.385 OA
ATOM     29  H   UNL     1       0.295   3.622   5.029  0.00  0.00    +0.210 HD
ENDBRANCH  20  28
BRANCH  19  30
ATOM     30  O   UNL     1       0.423   0.952   2.706  0.00  0.00    -0.386 OA
ATOM     31  H   UNL     1       0.695   1.669   2.117  0.00  0.00    +0.210 HD
ENDBRANCH  19  30
ENDBRANCH  17  18
ENDBRANCH   7  17
TORSDOF 6
