REMARK  Name = ZINC02256141
REMARK  2 active torsions:
REMARK  status: ('A' for Active; 'I' for Inactive)
REMARK    1  A    between atoms: C_9  and  C_17
REMARK    2  A    between atoms: C_24  and  C_27
REMARK                            x       y       z     vdW  Elec       q    Type
REMARK                         _______ _______ _______ _____ _____    ______ ____
ROOT
ATOM      1  C   UNL     1      -1.342   0.182  -0.274  0.00  0.00    +0.001 A 
ATOM      2  C   UNL     1      -0.430   1.218  -0.378  0.00  0.00    +0.004 A 
ATOM      3  C   UNL     1       0.928   0.960  -0.400  0.00  0.00    +0.046 A 
ATOM      4  C   UNL     1       1.383  -0.345  -0.317  0.00  0.00    +0.131 A 
ATOM      5  C   UNL     1       0.460  -1.394  -0.213  0.00  0.00    +0.042 A 
ATOM      6  C   UNL     1      -0.902  -1.126  -0.191  0.00  0.00    +0.013 A 
ATOM      7  C   UNL     1       0.979  -2.783  -0.131  0.00  0.00    +0.083 C 
ATOM      8  C   UNL     1       2.265  -2.987  -0.484  0.00  0.00    +0.027 C 
ATOM      9  C   UNL     1       2.811  -4.395  -0.397  0.00  0.00    +0.159 C 
ATOM     10  N   UNL     1       1.871  -5.421   0.069  0.00  0.00    -0.208 N 
ATOM     11  C   UNL     1       0.581  -5.049   0.389  0.00  0.00    +0.237 C 
ATOM     12  N   UNL     1       0.187  -3.802   0.284  0.00  0.00    -0.213 NA
ATOM     13  N   UNL     1      -0.065  -6.169   0.783  0.00  0.00    -0.205 NA
ATOM     14  C   UNL     1       0.735  -7.198   0.729  0.00  0.00    +0.203 C 
ATOM     15  N   UNL     1       1.961  -6.797   0.291  0.00  0.00    -0.251 N 
ATOM     16  C   UNL     1       3.119  -1.847  -0.956  0.00  0.00    +0.234 C 
ATOM     17  O   UNL     1       2.710  -0.627  -0.333  0.00  0.00    -0.479 OA
ATOM     18  H   UNL     1       2.742  -7.357   0.159  0.00  0.00    +0.171 HD
ENDROOT
BRANCH   9  19
ATOM     19  C   UNL     1       3.297  -4.796  -1.766  0.00  0.00    -0.021 A 
ATOM     20  C   UNL     1       2.386  -5.078  -2.768  0.00  0.00    +0.008 A 
ATOM     21  C   UNL     1       2.831  -5.445  -4.024  0.00  0.00    +0.038 A 
ATOM     22  C   UNL     1       4.189  -5.530  -4.279  0.00  0.00    +0.123 A 
ATOM     23  C   UNL     1       5.100  -5.248  -3.276  0.00  0.00    +0.038 A 
ATOM     24  C   UNL     1       4.653  -4.876  -2.022  0.00  0.00    +0.008 A 
ATOM     25  F   UNL     1       4.625  -5.890  -5.506  0.00  0.00    -0.205 F 
ENDBRANCH   9  19
BRANCH  16  26
ATOM     26  C   UNL     1       2.985  -1.709  -2.450  0.00  0.00    -0.003 A 
ATOM     27  C   UNL     1       1.816  -1.212  -2.996  0.00  0.00    +0.009 A 
ATOM     28  C   UNL     1       1.692  -1.085  -4.367  0.00  0.00    +0.020 A 
ATOM     29  C   UNL     1       2.739  -1.455  -5.192  0.00  0.00    +0.041 A 
ATOM     30  C   UNL     1       3.909  -1.952  -4.646  0.00  0.00    +0.020 A 
ATOM     31  C   UNL     1       4.033  -2.073  -3.275  0.00  0.00    +0.009 A 
ATOM     32 CL   UNL     1       2.584  -1.296  -6.914  0.00  0.00    -0.084 Cl
ENDBRANCH  16  26
TORSDOF 2
