REMARK  Name = ZINC06315881
REMARK  6 active torsions:
REMARK  status: ('A' for Active; 'I' for Inactive)
REMARK    1  A    between atoms: C_9  and  C_10
REMARK    2  A    between atoms: C_9  and  C_12
REMARK    3  A    between atoms: C_12  and  C_14
REMARK    4  A    between atoms: C_14  and  S_15
REMARK    5  A    between atoms: S_15  and  C_16
REMARK    6  A    between atoms: C_22  and  N_26
REMARK                            x       y       z     vdW  Elec       q    Type
REMARK                         _______ _______ _______ _____ _____    ______ ____
ROOT
ATOM      1  C   UNL     1       4.502  -4.191  -0.063  0.00  0.00    +0.186 C 
ATOM      2  O   UNL     1       5.327  -3.298  -0.066  0.00  0.00    -0.290 OA
ENDROOT
BRANCH   1  11
ATOM      3  C   UNL     1      -0.017   1.371   0.010  0.00  0.00    +0.002 A 
ATOM      4  C   UNL     1       1.158   2.104   0.002  0.00  0.00    +0.001 A 
ATOM      5  C   UNL     1       2.372   1.440  -0.013  0.00  0.00    +0.017 A 
ATOM      6  C   UNL     1       2.392   0.066  -0.020  0.00  0.00    +0.035 A 
ATOM      7  C   UNL     1       1.218  -0.701  -0.013  0.00  0.00    +0.046 A 
ATOM      8  C   UNL     1       0.002  -0.004   0.002  0.00  0.00    +0.024 A 
ATOM      9  N   UNL     1       1.443  -2.064  -0.023  0.00  0.00    -0.307 N 
ATOM     10  C   UNL     1       2.713  -2.539  -0.037  0.00  0.00    +0.091 C 
ATOM     11  C   UNL     1       3.132  -3.883  -0.049  0.00  0.00    +0.123 C 
ATOM     12  S   UNL     1       3.674  -1.160  -0.039  0.00  0.00    -0.071 S 
ATOM     13  H   UNL     1       0.694  -2.680  -0.018  0.00  0.00    +0.153 HD
BRANCH  11  14
ATOM     14  C   UNL     1       2.161  -4.936  -0.045  0.00  0.00    +0.105 C 
ATOM     15  N   UNL     1       1.391  -5.771  -0.042  0.00  0.00    -0.191 NA
ENDBRANCH  11  14
ENDBRANCH   1  11
BRANCH   1  16
ATOM     16  C   UNL     1       4.951  -5.630  -0.075  0.00  0.00    +0.157 C 
BRANCH  16  17
ATOM     17  S   UNL     1       6.763  -5.698  -0.093  0.00  0.00    -0.080 S 
BRANCH  17  18
ATOM     18  C   UNL     1       7.125  -7.423  -0.105  0.00  0.00    +0.168 A 
ATOM     19  N   UNL     1       8.380  -7.962  -0.115  0.00  0.00    -0.333 N 
ATOM     20  H   UNL     1       9.217  -7.471  -0.116  0.00  0.00    +0.168 HD
ATOM     21  C   UNL     1       8.236  -9.340  -0.122  0.00  0.00    +0.067 A 
ATOM     22  C   UNL     1       9.129 -10.400  -0.133  0.00  0.00    +0.030 A 
ATOM     23  C   UNL     1       8.656 -11.696  -0.138  0.00  0.00    +0.035 A 
ATOM     24  C   UNL     1       7.292 -11.947  -0.132  0.00  0.00    +0.128 A 
ATOM     25  C   UNL     1       6.391 -10.906  -0.122  0.00  0.00    +0.062 A 
ATOM     26  C   UNL     1       6.853  -9.587  -0.117  0.00  0.00    +0.092 A 
ATOM     27  N   UNL     1       6.230  -8.380  -0.102  0.00  0.00    -0.222 NA
BRANCH  24  28
ATOM     28  N   UNL     1       6.802 -13.343  -0.138  0.00  0.00    +0.056 N 
ATOM     29  O   UNL     1       7.589 -14.260  -0.147  0.00  0.00    -0.126 OA
ATOM     30  O   UNL     1       5.614 -13.567  -0.133  0.00  0.00    -0.126 OA
ENDBRANCH  24  28
ENDBRANCH  17  18
ENDBRANCH  16  17
ENDBRANCH   1  16
TORSDOF 6
