REMARK  Name = ZINC22243101
REMARK  8 active torsions:
REMARK  status: ('A' for Active; 'I' for Inactive)
REMARK    1  A    between atoms: C_1  and  C_2
REMARK    2  A    between atoms: C_4  and  C_26
REMARK    3  A    between atoms: C_5  and  C_9
REMARK    4  A    between atoms: C_7  and  C_8
REMARK    5  A    between atoms: N_14  and  C_15
REMARK    6  A    between atoms: C_15  and  C_17
REMARK    7  A    between atoms: C_17  and  N_18
REMARK    8  A    between atoms: C_22  and  C_25
REMARK                            x       y       z     vdW  Elec       q    Type
REMARK                         _______ _______ _______ _____ _____    ______ ____
ROOT
ATOM      1  C   UNL     1       1.448  -2.115  -0.475  0.00  0.00    +0.055 A 
ATOM      2  C   UNL     1       0.333  -2.898  -0.593  0.00  0.00    +0.074 A 
ATOM      3  S   UNL     1       1.080  -4.499  -0.865  0.00  0.00    -0.060 S 
ATOM      4  C   UNL     1       2.784  -3.966  -0.794  0.00  0.00    +0.163 A 
ATOM      5  N   UNL     1       2.646  -2.670  -0.584  0.00  0.00    -0.335 N 
ATOM      6  N   UNL     1       3.947  -4.715  -0.930  0.00  0.00    -0.155 NA
ATOM      7  H   UNL     1       3.550  -2.049  -0.500  0.00  0.00    +0.168 HD
ENDROOT
BRANCH   1  12
ATOM      8  C   UNL     1       0.942   3.544   0.465  0.00  0.00    +0.044 C 
ATOM      9  C   UNL     1       1.074   2.063   0.220  0.00  0.00    -0.047 A 
ATOM     10  C   UNL     1       1.949   1.313   0.985  0.00  0.00    +0.007 A 
ATOM     11  C   UNL     1       2.074  -0.044   0.764  0.00  0.00    -0.041 A 
ATOM     12  C   UNL     1       1.317  -0.658  -0.232  0.00  0.00    +0.002 A 
ATOM     13  C   UNL     1       0.438   0.103  -1.000  0.00  0.00    +0.013 A 
ATOM     14  C   UNL     1       0.321   1.459  -0.771  0.00  0.00    -0.047 A 
ATOM     15  C   UNL     1      -0.625   2.284  -1.605  0.00  0.00    +0.044 C 
ATOM     16  C   UNL     1       3.028  -0.859   1.599  0.00  0.00    +0.044 C 
ENDBRANCH   1  12
BRANCH   6  17
ATOM     17  C   UNL     1       3.871  -6.043  -1.149  0.00  0.00    +0.252 C 
ATOM     18  O   UNL     1       2.788  -6.583  -1.228  0.00  0.00    -0.272 OA
BRANCH  17  19
ATOM     19  C   UNL     1       5.131  -6.855  -1.296  0.00  0.00    +0.182 C 
BRANCH  19  20
ATOM     20  N   UNL     1       4.782  -8.263  -1.526  0.00  0.00    -0.289 NA
ATOM     21  C   UNL     1       4.135  -8.846  -0.342  0.00  0.00    +0.113 C 
ATOM     22  C   UNL     1       3.735 -10.292  -0.645  0.00  0.00    +0.175 C 
ATOM     23  O   UNL     1       4.894 -11.028  -1.045  0.00  0.00    -0.374 OA
ATOM     24  C   UNL     1       5.549 -10.489  -2.196  0.00  0.00    +0.129 C 
ATOM     25  C   UNL     1       5.967  -9.044  -1.909  0.00  0.00    +0.116 C 
ATOM     26  C   UNL     1       6.789 -11.325  -2.518  0.00  0.00    +0.039 C 
ENDBRANCH  19  20
ENDBRANCH  17  19
ENDBRANCH   6  17
TORSDOF 4
