REMARK  Name = ZINC20715606
REMARK  3 active torsions:
REMARK  status: ('A' for Active; 'I' for Inactive)
REMARK    1  A    between atoms: C_2  and  C_3
REMARK    2  A    between atoms: C_3  and  N_4
REMARK    3  A    between atoms: N_22  and  C_23
REMARK                            x       y       z     vdW  Elec       q    Type
REMARK                         _______ _______ _______ _____ _____    ______ ____
ROOT
ATOM      1  N   UNL     1      -1.318  -1.700  -1.126  0.00  0.00    -0.266 N 
ATOM      2  C   UNL     1      -1.813  -1.375  -2.377  0.00  0.00    +0.041 A 
ATOM      3  C   UNL     1      -2.372  -0.177  -2.824  0.00  0.00    +0.024 A 
ATOM      4  C   UNL     1      -2.792  -0.127  -4.144  0.00  0.00    +0.002 A 
ATOM      5  C   UNL     1      -2.669  -1.210  -4.991  0.00  0.00    +0.000 A 
ATOM      6  C   UNL     1      -2.114  -2.409  -4.558  0.00  0.00    +0.007 A 
ATOM      7  C   UNL     1      -1.694  -2.467  -3.246  0.00  0.00    -0.006 A 
ATOM      8  C   UNL     1      -1.067  -3.567  -2.451  0.00  0.00    +0.112 C 
ATOM      9  C   UNL     1      -0.855  -2.967  -1.078  0.00  0.00    +0.236 C 
ATOM     10  O   UNL     1      -0.364  -3.520  -0.117  0.00  0.00    -0.274 OA
ATOM     11  C   UNL     1      -1.990  -4.780  -2.362  0.00  0.00    +0.122 C 
ATOM     12  C   UNL     1      -1.907  -5.621  -3.606  0.00  0.00    +0.220 C 
ATOM     13  O   UNL     1      -2.917  -6.142  -4.030  0.00  0.00    -0.275 OA
ATOM     14  N   UNL     1      -0.746  -5.814  -4.265  0.00  0.00    -0.270 N 
ATOM     15  C   UNL     1       0.362  -5.054  -3.893  0.00  0.00    +0.133 A 
ATOM     16  C   UNL     1       0.251  -3.987  -3.038  0.00  0.00    +0.032 A 
ATOM     17  C   UNL     1       1.517  -3.446  -2.865  0.00  0.00    +0.141 A 
ATOM     18  N   UNL     1       2.365  -4.140  -3.587  0.00  0.00    -0.173 NA
ATOM     19  N   UNL     1       1.658  -5.155  -4.252  0.00  0.00    -0.218 N 
ATOM     20  H   UNL     1      -0.683  -6.465  -4.981  0.00  0.00    +0.156 HD
ENDROOT
BRANCH  19  21
ATOM     21  C   UNL     1       2.201  -6.103  -5.130  0.00  0.00    +0.067 A 
ATOM     22  C   UNL     1       1.688  -7.393  -5.165  0.00  0.00    +0.028 A 
ATOM     23  C   UNL     1       2.225  -8.324  -6.032  0.00  0.00    +0.002 A 
ATOM     24  C   UNL     1       3.274  -7.974  -6.863  0.00  0.00    +0.000 A 
ATOM     25  C   UNL     1       3.788  -6.691  -6.829  0.00  0.00    +0.002 A 
ATOM     26  C   UNL     1       3.250  -5.753  -5.969  0.00  0.00    +0.028 A 
ENDBRANCH  19  21
BRANCH   1  27
ATOM     27  C   UNL     1      -1.293  -0.775   0.010  0.00  0.00    +0.140 C 
BRANCH  27  29
ATOM     28  C   UNL     1      -0.016   1.306   0.009  0.00  0.00    +0.005 C 
ATOM     29  C   UNL     1       0.002  -0.004   0.002  0.00  0.00    -0.015 C 
ENDBRANCH  27  29
ENDBRANCH   1  27
TORSDOF 3
