REMARK  Name = ZINC22051425
REMARK  10 active torsions:
REMARK  status: ('A' for Active; 'I' for Inactive)
REMARK    1  A    between atoms: C_1  and  N_2
REMARK    2  A    between atoms: N_2  and  C_3
REMARK    3  A    between atoms: C_3  and  C_4
REMARK    4  A    between atoms: C_4  and  O_5
REMARK    5  A    between atoms: O_5  and  C_6
REMARK    6  A    between atoms: C_10  and  C_12
REMARK    7  A    between atoms: C_12  and  C_13
REMARK    8  A    between atoms: C_24  and  O_27
REMARK    9  A    between atoms: O_27  and  C_28
REMARK   10  A    between atoms: C_28  and  C_29
REMARK                            x       y       z     vdW  Elec       q    Type
REMARK                         _______ _______ _______ _____ _____    ______ ____
ROOT
ATOM      1  C   UNL     1       9.554  -4.100  -0.849  0.00  0.00    +0.147 C 
ENDROOT
BRANCH   1   3
ATOM      2  C   UNL     1       9.439  -3.783  -3.364  0.00  0.00    +0.130 C 
ATOM      3  N   UNL     1       8.860  -3.586  -2.033  0.00  0.00    -0.316 N 
ATOM      4  C   UNL     1       7.651  -2.910  -1.893  0.00  0.00    +0.099 A 
ATOM      5  C   UNL     1       6.947  -2.517  -3.026  0.00  0.00    +0.045 A 
ATOM      6  C   UNL     1       5.747  -1.846  -2.875  0.00  0.00    +0.050 A 
ATOM      7  C   UNL     1       5.288  -1.589  -1.586  0.00  0.00    +0.137 A 
ATOM      8  C   UNL     1       6.045  -2.006  -0.503  0.00  0.00    +0.130 A 
ATOM      9  N   UNL     1       7.183  -2.649  -0.683  0.00  0.00    -0.346 N 
ATOM     10  H   UNL     1       7.747  -2.970   0.206  0.00  0.00    +0.167 HD
BRANCH   7  11
ATOM     11  O   UNL     1       4.113  -0.932  -1.392  0.00  0.00    -0.486 OA
BRANCH  11  12
ATOM     12  C   UNL     1       3.711  -0.707  -0.039  0.00  0.00    +0.264 C 
BRANCH  12  13
ATOM     13  C   UNL     1       2.396   0.029  -0.022  0.00  0.00    -0.010 A 
ATOM     14  C   UNL     1       1.208  -0.679  -0.014  0.00  0.00    +0.007 A 
ATOM     15  C   UNL     1       0.002  -0.004   0.002  0.00  0.00    +0.000 A 
ATOM     16  C   UNL     1      -0.017   1.378   0.010  0.00  0.00    +0.000 A 
ATOM     17  C   UNL     1       1.171   2.086   0.002  0.00  0.00    +0.000 A 
ATOM     18  C   UNL     1       2.377   1.411  -0.014  0.00  0.00    +0.007 A 
ENDBRANCH  12  13
ENDBRANCH  11  12
ENDBRANCH   7  11
ENDBRANCH   1   3
BRANCH   1  19
ATOM     19  C   UNL     1       9.083  -5.527  -0.562  0.00  0.00    +0.248 C 
BRANCH  19  20
ATOM     20  O   UNL     1       9.479  -6.384  -1.634  0.00  0.00    -0.490 OA
BRANCH  20  21
ATOM     21  C   UNL     1       9.137  -7.696  -1.535  0.00  0.00    +0.121 A 
ATOM     22  C   UNL     1       8.433  -8.148  -0.428  0.00  0.00    +0.045 A 
ATOM     23  C   UNL     1       8.086  -9.481  -0.329  0.00  0.00    +0.004 A 
ATOM     24  C   UNL     1       8.439 -10.365  -1.333  0.00  0.00    +0.004 A 
ATOM     25  C   UNL     1       9.139  -9.916  -2.437  0.00  0.00    -0.042 A 
ATOM     26  C   UNL     1       9.485  -8.583  -2.543  0.00  0.00    +0.049 A 
BRANCH  25  27
ATOM     27  C   UNL     1       9.522 -10.882  -3.529  0.00  0.00    +0.059 C 
BRANCH  27  28
ATOM     28  C   UNL     1       8.408 -10.935  -4.576  0.00  0.00    +0.146 C 
ATOM     29  C   UNL     1       8.783 -11.842  -5.739  0.00  0.00    +0.234 C 
ATOM     30  O   UNL     1       8.989 -13.028  -5.595  0.00  0.00    -0.274 OA
ATOM     31  N   UNL     1       8.870 -11.248  -6.917  0.00  0.00    -0.246 N 
ATOM     32  C   UNL     1       8.646  -9.933  -7.101  0.00  0.00    +0.279 C 
ATOM     33  O   UNL     1       8.702  -9.301  -8.137  0.00  0.00    -0.263 OA
ATOM     34  S   UNL     1       8.249  -9.334  -5.465  0.00  0.00    -0.054 S 
ATOM     35  H   UNL     1       9.137 -11.832  -7.810  0.00  0.00    +0.158 HD
ENDBRANCH  27  28
ENDBRANCH  25  27
ENDBRANCH  20  21
ENDBRANCH  19  20
ENDBRANCH   1  19
TORSDOF 9
