REMARK  Name = ZINC39865611
REMARK  4 active torsions:
REMARK  status: ('A' for Active; 'I' for Inactive)
REMARK    1  A    between atoms: C_1  and  C_2
REMARK    2  A    between atoms: C_5  and  N_7
REMARK    3  A    between atoms: N_9  and  C_22
REMARK    4  A    between atoms: C_13  and  C_14
REMARK                            x       y       z     vdW  Elec       q    Type
REMARK                         _______ _______ _______ _____ _____    ______ ____
ROOT
ATOM      1  N   UNL     1      -1.433  -3.105   2.031  0.00  0.00    -0.199 NA
ATOM      2  C   UNL     1      -1.147  -4.382   1.885  0.00  0.00    +0.171 C 
ATOM      3  N   UNL     1      -1.055  -5.111   0.721  0.00  0.00    -0.243 N 
ATOM      4  C   UNL     1      -0.754  -6.398   0.752  0.00  0.00    +0.259 C 
ATOM      5  O   UNL     1      -0.669  -7.057  -0.267  0.00  0.00    -0.269 OA
ATOM      6  C   UNL     1      -0.527  -6.999   2.082  0.00  0.00    +0.078 C 
ATOM      7  C   UNL     1      -0.208  -8.277   2.406  0.00  0.00    +0.028 C 
ATOM      8  S   UNL     1      -0.777  -5.587   3.149  0.00  0.00    -0.049 S 
ENDROOT
BRANCH   7   9
ATOM      9  C   UNL     1      -0.186  -8.694   3.816  0.00  0.00    -0.022 A 
ATOM     10  C   UNL     1      -0.833  -7.923   4.788  0.00  0.00    +0.008 A 
ATOM     11  C   UNL     1      -0.808  -8.321   6.108  0.00  0.00    +0.002 A 
ATOM     12  C   UNL     1      -0.144  -9.479   6.473  0.00  0.00    +0.020 A 
ATOM     13  C   UNL     1       0.500 -10.248   5.518  0.00  0.00    +0.042 A 
ATOM     14  C   UNL     1       0.479  -9.867   4.192  0.00  0.00    +0.028 A 
ATOM     15 CL   UNL     1       1.330 -11.698   5.989  0.00  0.00    -0.084 Cl
ENDBRANCH   7   9
BRANCH   1  20
ATOM     16  C   UNL     1      -4.523  -1.407  -1.339  0.00  0.00    +0.066 C 
ATOM     17  C   UNL     1      -3.168  -1.494  -0.685  0.00  0.00    +0.048 A 
ATOM     18  C   UNL     1      -2.130  -0.772  -1.176  0.00  0.00    +0.071 A 
ATOM     19  S   UNL     1      -0.827  -1.253  -0.050  0.00  0.00    -0.056 S 
ATOM     20  C   UNL     1      -1.804  -2.365   0.954  0.00  0.00    +0.195 A 
ATOM     21  N   UNL     1      -2.992  -2.268   0.365  0.00  0.00    -0.226 NA
ENDBRANCH   1  20
BRANCH   3  22
ATOM     22  C   UNL     1      -1.294  -4.454  -0.567  0.00  0.00    +0.084 C 
ATOM     23  C   UNL     1      -0.124  -4.741  -1.510  0.00  0.00    +0.023 C 
ATOM     24  C   UNL     1      -0.373  -4.054  -2.854  0.00  0.00    +0.002 C 
ATOM     25  C   UNL     1      -1.667  -4.591  -3.469  0.00  0.00    +0.000 C 
ATOM     26  C   UNL     1      -2.837  -4.304  -2.526  0.00  0.00    +0.002 C 
ATOM     27  C   UNL     1      -2.588  -4.990  -1.181  0.00  0.00    +0.023 C 
ENDBRANCH   3  22
TORSDOF 3
