REMARK  Name = ZINC03320158
REMARK  7 active torsions:
REMARK  status: ('A' for Active; 'I' for Inactive)
REMARK    1  A    between atoms: C_1  and  C_2
REMARK    2  A    between atoms: C_7  and  N_8
REMARK    3  A    between atoms: C_18  and  S_19
REMARK    4  A    between atoms: S_19  and  C_20
REMARK    5  A    between atoms: C_20  and  C_22
REMARK    6  A    between atoms: C_20  and  C_23
REMARK    7  A    between atoms: C_28  and  C_31
REMARK                            x       y       z     vdW  Elec       q    Type
REMARK                         _______ _______ _______ _____ _____    ______ ____
ROOT
ATOM      1  N   UNL     1       2.357   3.889   0.000  0.00  0.00    -0.255 N 
ATOM      2  C   UNL     1       2.922   4.240  -1.178  0.00  0.00    +0.267 A 
ATOM      3  O   UNL     1       2.406   3.941  -2.239  0.00  0.00    -0.267 OA
ATOM      4  C   UNL     1       4.182   4.993  -1.129  0.00  0.00    +0.065 A 
ATOM      5  C   UNL     1       4.842   5.401  -2.288  0.00  0.00    +0.015 A 
ATOM      6  C   UNL     1       6.013   6.101  -2.187  0.00  0.00    +0.001 A 
ATOM      7  C   UNL     1       6.549   6.410  -0.943  0.00  0.00    +0.002 A 
ATOM      8  C   UNL     1       5.924   6.023   0.208  0.00  0.00    +0.028 A 
ATOM      9  C   UNL     1       4.726   5.306   0.138  0.00  0.00    +0.079 A 
ATOM     10  N   UNL     1       4.073   4.904   1.253  0.00  0.00    -0.223 NA
ATOM     11  C   UNL     1       2.947   4.237   1.184  0.00  0.00    +0.177 A 
ENDROOT
BRANCH   1  18
ATOM     12  C   UNL     1      -0.085   5.351   0.031  0.00  0.00    +0.046 C 
ATOM     13  C   UNL     1      -0.059   3.845   0.022  0.00  0.00    -0.026 A 
ATOM     14  C   UNL     1      -1.243   3.133   0.030  0.00  0.00    +0.005 A 
ATOM     15  C   UNL     1      -1.220   1.750   0.017  0.00  0.00    +0.000 A 
ATOM     16  C   UNL     1      -0.013   1.076   0.008  0.00  0.00    +0.002 A 
ATOM     17  C   UNL     1       1.174   1.782   0.000  0.00  0.00    +0.026 A 
ATOM     18  C   UNL     1       1.155   3.170   0.008  0.00  0.00    +0.055 A 
ENDBRANCH   1  18
BRANCH  11  19
ATOM     19  S   UNL     1       2.160   3.759   2.687  0.00  0.00    -0.075 S 
BRANCH  19  20
ATOM     20  C   UNL     1       3.327   4.451   3.886  0.00  0.00    +0.137 C 
ATOM     21  C   UNL     1       3.330   5.977   3.772  0.00  0.00    +0.029 C 
BRANCH  20  22
ATOM     22  C   UNL     1       2.912   4.052   5.279  0.00  0.00    +0.232 C 
ATOM     23  O   UNL     1       1.772   3.695   5.493  0.00  0.00    -0.274 OA
ATOM     24  N   UNL     1       3.806   4.091   6.286  0.00  0.00    -0.264 N 
ATOM     25  C   UNL     1       3.424   3.723   7.570  0.00  0.00    +0.165 A 
ATOM     26  N   UNL     1       4.139   3.692   8.678  0.00  0.00    -0.225 NA
ATOM     27  C   UNL     1       3.608   3.311   9.830  0.00  0.00    +0.080 A 
ATOM     28  C   UNL     1       2.293   2.941   9.872  0.00  0.00    +0.076 A 
ATOM     29  S   UNL     1       1.829   3.172   8.161  0.00  0.00    -0.060 S 
ATOM     30  H   UNL     1       4.717   4.376   6.114  0.00  0.00    +0.157 HD
BRANCH  27  31
ATOM     31  C   UNL     1       4.433   3.284  11.062  0.00  0.00    +0.001 A 
ATOM     32  C   UNL     1       3.868   2.887  12.273  0.00  0.00    +0.010 A 
ATOM     33  C   UNL     1       4.642   2.859  13.416  0.00  0.00    +0.001 A 
ATOM     34  C   UNL     1       5.972   3.236  13.363  0.00  0.00    +0.000 A 
ATOM     35  C   UNL     1       6.536   3.636  12.165  0.00  0.00    +0.001 A 
ATOM     36  C   UNL     1       5.774   3.662  11.015  0.00  0.00    +0.010 A 
ENDBRANCH  27  31
ENDBRANCH  20  22
ENDBRANCH  19  20
ENDBRANCH  11  19
TORSDOF 5
