REMARK  Name = ZINC31055681
REMARK  5 active torsions:
REMARK  status: ('A' for Active; 'I' for Inactive)
REMARK    1  A    between atoms: C_10  and  N_12
REMARK    2  A    between atoms: C_13  and  C_15
REMARK    3  A    between atoms: N_20  and  C_22
REMARK    4  A    between atoms: C_22  and  C_23
REMARK    5  A    between atoms: C_25  and  C_28
REMARK                            x       y       z     vdW  Elec       q    Type
REMARK                         _______ _______ _______ _____ _____    ______ ____
ROOT
ATOM      1  C   UNL     1       0.251   0.925  -4.851  0.00  0.00    +0.058 C 
ATOM      2  C   UNL     1       1.758   0.725  -4.676  0.00  0.00    +0.009 C 
ATOM      3  C   UNL     1       2.338   0.119  -5.957  0.00  0.00    -0.018 C 
ATOM      4  C   UNL     1       2.025   1.040  -7.138  0.00  0.00    -0.078 C 
ATOM      5  N   UNL     1       0.570   1.198  -7.265  0.00  0.00    +0.386 N 
ATOM      6  C   UNL     1      -0.002   1.822  -6.065  0.00  0.00    -0.065 C 
ATOM      7  H   UNL     1       0.131   0.195  -7.363  0.00  0.00    -0.081 HD
ENDROOT
BRANCH   1   9
ATOM      8  N   UNL     1      -0.209   0.964  -2.421  0.00  0.00    -0.308 N 
ATOM      9  C   UNL     1      -0.318   1.576  -3.617  0.00  0.00    +0.215 C 
ATOM     10  O   UNL     1      -0.875   2.650  -3.700  0.00  0.00    -0.276 OA
ATOM     11  H   UNL     1       0.296  -0.011  -2.346  0.00  0.00    +0.149 HD
BRANCH   8  21
ATOM     12  C   UNL     1      -4.942   0.707  -1.063  0.00  0.00    +0.000 A 
ATOM     13  C   UNL     1      -4.334   1.039  -2.259  0.00  0.00    +0.000 A 
ATOM     14  C   UNL     1      -2.984   1.321  -2.286  0.00  0.00    +0.006 A 
ATOM     15  C   UNL     1      -2.229   1.272  -1.121  0.00  0.00    -0.024 A 
ATOM     16  C   UNL     1      -2.834   0.936   0.070  0.00  0.00    -0.042 A 
ATOM     17  C   UNL     1      -4.194   0.656   0.095  0.00  0.00    +0.004 A 
ATOM     18  C   UNL     1      -2.075   0.849   1.368  0.00  0.00    +0.035 C 
ATOM     19  C   UNL     1      -0.741   1.585   1.262  0.00  0.00    +0.007 C 
ATOM     20  C   UNL     1      -0.013   1.086   0.008  0.00  0.00    +0.027 C 
ATOM     21  C   UNL     1      -0.761   1.597  -1.221  0.00  0.00    +0.103 C 
ENDBRANCH   8  21
ENDBRANCH   1   9
BRANCH   5  22
ATOM     22  C   UNL     1       0.227   1.964  -8.471  0.00  0.00    +0.022 C 
BRANCH  22  23
ATOM     23  C   UNL     1       0.609   1.171  -9.694  0.00  0.00    +0.211 A 
ATOM     24  N   UNL     1      -0.147   0.313 -10.333  0.00  0.00    -0.193 NA
ATOM     25  C   UNL     1       0.608  -0.145 -11.357  0.00  0.00    +0.203 A 
ATOM     26  N   UNL     1       1.770   0.450 -11.275  0.00  0.00    -0.056 NA
ATOM     27  O   UNL     1       1.786   1.206 -10.328  0.00  0.00    -0.340 OA
BRANCH  25  28
ATOM     28  C   UNL     1       0.198  -1.141 -12.377  0.00  0.00    +0.041 A 
ATOM     29  C   UNL     1       1.089  -1.525 -13.377  0.00  0.00    +0.014 A 
ATOM     30  C   UNL     1       0.702  -2.451 -14.325  0.00  0.00    +0.021 A 
ATOM     31  C   UNL     1      -0.569  -2.999 -14.283  0.00  0.00    +0.042 A 
ATOM     32  C   UNL     1      -1.458  -2.622 -13.292  0.00  0.00    +0.040 A 
ATOM     33  C   UNL     1      -1.079  -1.700 -12.335  0.00  0.00    +0.053 A 
ATOM     34 CL   UNL     1      -2.193  -1.232 -11.089  0.00  0.00    -0.083 Cl
ATOM     35 CL   UNL     1      -1.048  -4.164 -15.477  0.00  0.00    -0.083 Cl
ENDBRANCH  25  28
ENDBRANCH  22  23
ENDBRANCH   5  22
TORSDOF 5
