REMARK  Name = ZINC39465275
REMARK  4 active torsions:
REMARK  status: ('A' for Active; 'I' for Inactive)
REMARK    1  A    between atoms: C_1  and  S_2
REMARK    2  A    between atoms: S_2  and  C_3
REMARK    3  A    between atoms: C_8  and  C_9
REMARK    4  A    between atoms: C_9  and  C_10
REMARK                            x       y       z     vdW  Elec       q    Type
REMARK                         _______ _______ _______ _____ _____    ______ ____
ROOT
ATOM      1  C   UNL     1       0.848  -0.411  -1.489  0.00  0.00    +0.011 A 
ATOM      2  C   UNL     1       1.316   0.596  -2.323  0.00  0.00    +0.019 A 
ATOM      3  C   UNL     1       1.981   0.278  -3.495  0.00  0.00    -0.040 A 
ATOM      4  C   UNL     1       2.183  -1.043  -3.838  0.00  0.00    -0.023 A 
ATOM      5  C   UNL     1       1.715  -2.050  -3.005  0.00  0.00    +0.010 A 
ATOM      6  C   UNL     1       1.057  -1.741  -1.834  0.00  0.00    -0.029 A 
ATOM      7  C   UNL     1       2.902  -1.440  -5.101  0.00  0.00    +0.130 C 
ATOM      8  C   UNL     1       2.156  -2.607  -5.754  0.00  0.00    +0.196 C 
ATOM      9  O   UNL     1       2.913  -3.058  -6.895  0.00  0.00    -0.292 OA
ATOM     10  P   UNL     1       3.409  -1.950  -7.977  0.00  0.00    +0.448 P 
ATOM     11  O   UNL     1       4.632  -2.479  -8.759  0.00  0.00    -0.236 OA
ATOM     12  N   UNL     1       3.830  -0.620  -7.090  0.00  0.00    -0.154 NA
ATOM     13  N   UNL     1       3.001  -0.315  -6.030  0.00  0.00    -0.224 NA
ATOM     14  C   UNL     1       3.509   0.886  -5.349  0.00  0.00    +0.108 C 
ATOM     15  C   UNL     1       2.469   1.402  -4.373  0.00  0.00    +0.052 C 
ATOM     16  O   UNL     1       2.262  -1.605  -8.952  0.00  0.00    -0.126 OA
ATOM     17  H   UNL     1       4.609  -0.085  -7.311  0.00  0.00    +0.153 HD
ENDROOT
BRANCH   1  19
ATOM     18  C   UNL     1      -0.022   1.810   0.012  0.00  0.00    +0.090 C 
ATOM     19  S   UNL     1       0.002  -0.004   0.002  0.00  0.00    -0.128 S 
ENDBRANCH   1  19
BRANCH   6  20
ATOM     20  C   UNL     1       0.560  -2.842  -0.933  0.00  0.00    +0.071 C 
BRANCH  20  21
ATOM     21  C   UNL     1       1.522  -3.027   0.212  0.00  0.00    -0.043 A 
ATOM     22  C   UNL     1       2.578  -3.912   0.090  0.00  0.00    +0.004 A 
ATOM     23  C   UNL     1       3.461  -4.082   1.140  0.00  0.00    +0.000 A 
ATOM     24  C   UNL     1       3.288  -3.368   2.312  0.00  0.00    +0.000 A 
ATOM     25  C   UNL     1       2.233  -2.483   2.432  0.00  0.00    +0.000 A 
ATOM     26  C   UNL     1       1.353  -2.310   1.381  0.00  0.00    +0.004 A 
ENDBRANCH  20  21
ENDBRANCH   6  20
TORSDOF 3
