REMARK  Name = ZINC16136712
REMARK  9 active torsions:
REMARK  status: ('A' for Active; 'I' for Inactive)
REMARK    1  A    between atoms: C_1  and  C_2
REMARK    2  A    between atoms: C_2  and  C_26
REMARK    3  A    between atoms: N_3  and  N_4
REMARK    4  A    between atoms: C_5  and  C_16
REMARK    5  A    between atoms: C_19  and  O_24
REMARK    6  A    between atoms: C_20  and  O_22
REMARK    7  A    between atoms: O_22  and  C_23
REMARK    8  A    between atoms: O_24  and  C_25
REMARK    9  A    between atoms: C_31  and  O_32
REMARK                            x       y       z     vdW  Elec       q    Type
REMARK                         _______ _______ _______ _____ _____    ______ ____
ROOT
ATOM      1  N   UNL     1      -0.026  -0.041   2.378  0.00  0.00    -0.163 N 
ATOM      2  C   UNL     1       0.221  -0.769   3.623  0.00  0.00    +0.216 C 
ATOM      3  N   UNL     1       0.887   0.102   4.598  0.00  0.00    -0.320 N 
ATOM      4  C   UNL     1       0.418   1.401   4.759  0.00  0.00    +0.041 A 
ATOM      5  C   UNL     1       0.521   2.074   5.964  0.00  0.00    +0.024 A 
ATOM      6  C   UNL     1       0.033   3.362   6.071  0.00  0.00    +0.002 A 
ATOM      7  C   UNL     1      -0.557   3.985   4.983  0.00  0.00    +0.001 A 
ATOM      8  C   UNL     1      -0.666   3.329   3.774  0.00  0.00    +0.015 A 
ATOM      9  C   UNL     1      -0.176   2.032   3.651  0.00  0.00    +0.059 A 
ATOM     10  C   UNL     1      -0.250   1.290   2.380  0.00  0.00    +0.270 C 
ATOM     11  O   UNL     1      -0.515   1.870   1.344  0.00  0.00    -0.268 OA
ATOM     12  H   UNL     1       1.638  -0.222   5.120  0.00  0.00    +0.148 HD
ENDROOT
BRANCH   2  13
ATOM     13  C   UNL     1      -1.092  -1.240   4.194  0.00  0.00    -0.004 A 
ATOM     14  C   UNL     1      -2.145  -1.538   3.349  0.00  0.00    +0.011 A 
ATOM     15  C   UNL     1      -3.351  -1.970   3.868  0.00  0.00    +0.050 A 
ATOM     16  C   UNL     1      -3.507  -2.105   5.239  0.00  0.00    +0.162 A 
ATOM     17  C   UNL     1      -2.447  -1.806   6.089  0.00  0.00    +0.162 A 
ATOM     18  C   UNL     1      -1.239  -1.378   5.562  0.00  0.00    +0.056 A 
BRANCH  17  19
ATOM     19  O   UNL     1      -2.595  -1.937   7.434  0.00  0.00    -0.491 OA
ATOM     20  C   UNL     1      -1.464  -1.612   8.246  0.00  0.00    +0.277 C 
ENDBRANCH  17  19
BRANCH  16  21
ATOM     21  O   UNL     1      -4.693  -2.530   5.751  0.00  0.00    -0.491 OA
ATOM     22  C   UNL     1      -5.736  -2.818   4.818  0.00  0.00    +0.277 C 
ENDBRANCH  16  21
ENDBRANCH   2  13
BRANCH   1  25
ATOM     23  C   UNL     1       2.363  -1.075   1.475  0.00  0.00    +0.068 C 
ATOM     24  C   UNL     1       1.070  -1.284   0.730  0.00  0.00    +0.067 C 
ATOM     25  N   UNL     1      -0.024  -0.736   1.162  0.00  0.00    -0.179 NA
BRANCH  24  26
ATOM     26  C   UNL     1       1.048  -2.111  -0.490  0.00  0.00    +0.039 A 
ATOM     27  C   UNL     1       2.223  -2.708  -0.955  0.00  0.00    +0.013 A 
ATOM     28  C   UNL     1       2.195  -3.480  -2.097  0.00  0.00    +0.001 A 
ATOM     29  C   UNL     1       1.008  -3.667  -2.785  0.00  0.00    +0.004 A 
ATOM     30  C   UNL     1      -0.160  -3.082  -2.335  0.00  0.00    +0.046 A 
ATOM     31  C   UNL     1      -0.152  -2.308  -1.186  0.00  0.00    +0.126 A 
BRANCH  31  32
ATOM     32  O   UNL     1      -1.301  -1.738  -0.739  0.00  0.00    -0.506 OA
ATOM     33  H   UNL     1      -1.468  -0.856  -1.099  0.00  0.00    +0.292 HD
ENDBRANCH  31  32
ENDBRANCH  24  26
ENDBRANCH   1  25
TORSDOF 6
