REMARK  Name = ZINC39478507
REMARK  9 active torsions:
REMARK  status: ('A' for Active; 'I' for Inactive)
REMARK    1  A    between atoms: C_1  and  C_2
REMARK    2  A    between atoms: C_4  and  C_8
REMARK    3  A    between atoms: C_8  and  N_9
REMARK    4  A    between atoms: N_9  and  C_10
REMARK    5  A    between atoms: C_11  and  C_13
REMARK    6  A    between atoms: C_13  and  C_14
REMARK    7  A    between atoms: N_21  and  C_22
REMARK    8  A    between atoms: C_22  and  C_23
REMARK    9  A    between atoms: C_26  and  C_29
REMARK                            x       y       z     vdW  Elec       q    Type
REMARK                         _______ _______ _______ _____ _____    ______ ____
ROOT
ATOM      1  C   UNL     1       2.628  -2.559   4.427  0.00  0.00    +0.028 C 
ATOM      2  C   UNL     1       3.279  -1.907   5.613  0.00  0.00    +0.200 C 
ATOM      3  O   UNL     1       3.281  -0.696   5.684  0.00  0.00    -0.278 OA
ATOM      4  N   UNL     1       3.857  -2.608   6.596  0.00  0.00    -0.318 N 
ATOM      5  C   UNL     1       3.879  -4.068   6.613  0.00  0.00    +0.085 C 
ATOM      6  C   UNL     1       3.572  -4.610   5.216  0.00  0.00    -0.058 C 
ATOM      7  N   UNL     1       2.344  -3.969   4.721  0.00  0.00    +0.391 N 
ATOM      8  H   UNL     1       4.277  -2.127   7.326  0.00  0.00    +0.149 HD
ATOM      9  H   UNL     1       1.623  -4.029   5.425  0.00  0.00    -0.080 HD
ENDROOT
BRANCH   1  10
ATOM     10  C   UNL     1       1.319  -1.835   4.105  0.00  0.00    +0.090 C 
BRANCH  10  13
ATOM     11  N   UNL     1       0.618   0.432   3.407  0.00  0.00    -0.301 N 
ATOM     12  C   UNL     1      -0.769   0.025   3.646  0.00  0.00    +0.132 C 
ATOM     13  C   UNL     1       1.623  -0.441   3.621  0.00  0.00    +0.214 C 
ATOM     14  O   UNL     1       2.771  -0.104   3.423  0.00  0.00    -0.276 OA
BRANCH  11  15
ATOM     15  C   UNL     1       0.913   1.788   2.936  0.00  0.00    +0.158 C 
BRANCH  15  19
ATOM     16  C   UNL     1      -0.716   2.165   7.300  0.00  0.00    +0.067 C 
ATOM     17  C   UNL     1       0.229   2.303   6.134  0.00  0.00    +0.053 C 
ATOM     18  N   UNL     1      -0.095   2.743   4.965  0.00  0.00    -0.259 NA
ATOM     19  C   UNL     1       1.119   2.712   4.138  0.00  0.00    +0.237 C 
ATOM     20  N   UNL     1       2.184   2.190   5.003  0.00  0.00    -0.262 NA
ATOM     21  C   UNL     1       1.660   1.962   6.160  0.00  0.00    +0.130 C 
ENDBRANCH  15  19
ENDBRANCH  11  15
ENDBRANCH  10  13
ENDBRANCH   1  10
BRANCH   7  22
ATOM     22  C   UNL     1       1.898  -4.647   3.497  0.00  0.00    -0.042 C 
BRANCH  22  23
ATOM     23  C   UNL     1       1.468  -6.053   3.829  0.00  0.00    -0.064 A 
ATOM     24  C   UNL     1       2.391  -7.082   3.793  0.00  0.00    +0.002 A 
ATOM     25  C   UNL     1       2.003  -8.371   4.097  0.00  0.00    +0.009 A 
ATOM     26  C   UNL     1       0.678  -8.635   4.440  0.00  0.00    -0.018 A 
ATOM     27  C   UNL     1      -0.247  -7.594   4.474  0.00  0.00    +0.009 A 
ATOM     28  C   UNL     1       0.153  -6.308   4.175  0.00  0.00    +0.002 A 
BRANCH  26  29
ATOM     29  C   UNL     1       0.255 -10.019   4.766  0.00  0.00    -0.018 A 
ATOM     30  C   UNL     1       1.182 -11.059   4.737  0.00  0.00    +0.008 A 
ATOM     31  C   UNL     1       0.783 -12.345   5.042  0.00  0.00    +0.001 A 
ATOM     32  C   UNL     1      -0.535 -12.602   5.376  0.00  0.00    +0.000 A 
ATOM     33  C   UNL     1      -1.459 -11.573   5.407  0.00  0.00    +0.001 A 
ATOM     34  C   UNL     1      -1.070 -10.283   5.109  0.00  0.00    +0.008 A 
ENDBRANCH  26  29
ENDBRANCH  22  23
ENDBRANCH   7  22
TORSDOF 7
