REMARK  Name = ZINC12731031
REMARK  8 active torsions:
REMARK  status: ('A' for Active; 'I' for Inactive)
REMARK    1  A    between atoms: C_1  and  C_2
REMARK    2  A    between atoms: N_5  and  C_11
REMARK    3  A    between atoms: C_7  and  C_10
REMARK    4  A    between atoms: C_11  and  C_12
REMARK    5  A    between atoms: C_18  and  C_20
REMARK    6  A    between atoms: C_23  and  N_29
REMARK    7  A    between atoms: C_24  and  N_26
REMARK    8  A    between atoms: C_32  and  C_35
REMARK                            x       y       z     vdW  Elec       q    Type
REMARK                         _______ _______ _______ _____ _____    ______ ____
ROOT
ATOM      1  C   UNL     1      -2.549  -3.496  -0.818  0.00  0.00    +0.064 A 
ATOM      2  C   UNL     1      -2.590  -4.200   0.340  0.00  0.00    +0.073 A 
ATOM      3  S   UNL     1      -2.493  -5.871  -0.283  0.00  0.00    -0.060 S 
ATOM      4  C   UNL     1      -2.413  -5.503  -1.924  0.00  0.00    +0.165 A 
ATOM      5  N   UNL     1      -2.466  -4.188  -1.939  0.00  0.00    -0.228 NA
ATOM      6  N   UNL     1      -2.319  -6.375  -3.000  0.00  0.00    -0.261 N 
ATOM      7  C   UNL     1      -2.283  -7.706  -2.788  0.00  0.00    +0.250 C 
ATOM      8  O   UNL     1      -2.332  -8.143  -1.654  0.00  0.00    -0.270 OA
ATOM      9  H   UNL     1      -2.280  -6.027  -3.905  0.00  0.00    +0.157 HD
ENDROOT
BRANCH   7  10
ATOM     10  C   UNL     1      -2.183  -8.632  -3.931  0.00  0.00    +0.039 A 
ATOM     11  C   UNL     1      -2.121  -8.132  -5.236  0.00  0.00    +0.015 A 
ATOM     12  C   UNL     1      -2.028  -8.999  -6.300  0.00  0.00    +0.026 A 
ATOM     13  C   UNL     1      -1.996 -10.373  -6.079  0.00  0.00    +0.060 A 
ATOM     14  C   UNL     1      -2.058 -10.875  -4.782  0.00  0.00    +0.148 A 
ATOM     15  C   UNL     1      -2.145 -10.013  -3.713  0.00  0.00    +0.047 A 
BRANCH  13  16
ATOM     16  N   UNL     1      -1.903 -11.247  -7.157  0.00  0.00    -0.328 N 
ATOM     17  C   UNL     1      -0.593 -11.606  -7.718  0.00  0.00    +0.105 C 
ATOM     18  C   UNL     1      -0.609 -11.328  -9.225  0.00  0.00    +0.022 C 
ATOM     19  C   UNL     1      -1.790 -12.064  -9.863  0.00  0.00    -0.011 C 
ATOM     20  C   UNL     1      -3.100 -11.548  -9.262  0.00  0.00    +0.022 C 
ATOM     21  C   UNL     1      -3.111 -11.833  -7.753  0.00  0.00    +0.105 C 
ATOM     22  C   UNL     1      -1.789 -11.817 -11.373  0.00  0.00    +0.007 C 
ENDBRANCH  13  16
BRANCH  14  23
ATOM     23  N   UNL     1      -2.024 -12.337  -4.553  0.00  0.00    +0.058 N 
ATOM     24  O   UNL     1      -2.178 -12.777  -3.437  0.00  0.00    -0.126 OA
ATOM     25  O   UNL     1      -1.843 -13.090  -5.480  0.00  0.00    -0.126 OA
ENDBRANCH  14  23
ENDBRANCH   7  10
BRANCH   1  26
ATOM     26  C   UNL     1      -2.604  -1.990  -0.825  0.00  0.00    +0.140 C 
BRANCH  26  30
ATOM     27  C   UNL     1       0.180   2.027  -1.403  0.00  0.00    +0.039 C 
ATOM     28  C   UNL     1       0.187   0.507  -1.227  0.00  0.00    +0.130 C 
ATOM     29  C   UNL     1      -1.253  -0.002  -1.122  0.00  0.00    +0.116 C 
ATOM     30  N   UNL     1      -1.238  -1.451  -0.876  0.00  0.00    -0.292 NA
ATOM     31  C   UNL     1      -0.503  -1.762   0.359  0.00  0.00    +0.116 C 
ATOM     32  C   UNL     1       0.929  -1.235   0.240  0.00  0.00    +0.130 C 
ATOM     33  O   UNL     1       0.896   0.169  -0.031  0.00  0.00    -0.371 OA
ATOM     34  C   UNL     1       1.647  -1.959  -0.901  0.00  0.00    +0.039 C 
ENDBRANCH  26  30
ENDBRANCH   1  26
TORSDOF 5
