REMARK  Name = ZINC39488214
REMARK  8 active torsions:
REMARK  status: ('A' for Active; 'I' for Inactive)
REMARK    1  A    between atoms: C_1  and  C_2
REMARK    2  A    between atoms: C_2  and  C_31
REMARK    3  A    between atoms: N_4  and  S_22
REMARK    4  A    between atoms: N_7  and  C_8
REMARK    5  A    between atoms: C_8  and  C_9
REMARK    6  A    between atoms: C_9  and  C_16
REMARK    7  A    between atoms: S_22  and  C_25
REMARK    8  A    between atoms: C_36  and  O_37
REMARK                            x       y       z     vdW  Elec       q    Type
REMARK                         _______ _______ _______ _____ _____    ______ ____
ROOT
ATOM      1  C   UNL     1       1.318   1.808  -0.422  0.00  0.00    +0.039 C 
ATOM      2  C   UNL     1       0.932   0.329  -0.376  0.00  0.00    +0.082 C 
ATOM      3  C   UNL     1       1.873  -0.504  -1.268  0.00  0.00    +0.166 C 
ATOM      4  N   UNL     1       2.519  -1.433  -0.329  0.00  0.00    -0.153 N 
ATOM      5  C   UNL     1       2.054  -1.204   0.906  0.00  0.00    +0.325 C 
ATOM      6  O   UNL     1       2.420  -1.833   1.880  0.00  0.00    -0.251 OA
ATOM      7  N   UNL     1       1.147  -0.220   0.972  0.00  0.00    -0.273 N 
ENDROOT
BRANCH   2   8
ATOM      8  C   UNL     1      -0.503   0.144  -0.799  0.00  0.00    +0.019 A 
ATOM      9  C   UNL     1      -1.389  -0.514   0.032  0.00  0.00    +0.009 A 
ATOM     10  C   UNL     1      -2.705  -0.684  -0.356  0.00  0.00    +0.001 A 
ATOM     11  C   UNL     1      -3.138  -0.195  -1.575  0.00  0.00    +0.004 A 
ATOM     12  C   UNL     1      -2.256   0.464  -2.409  0.00  0.00    +0.046 A 
ATOM     13  C   UNL     1      -0.936   0.641  -2.019  0.00  0.00    +0.122 A 
BRANCH  13  14
ATOM     14  O   UNL     1      -0.067   1.294  -2.835  0.00  0.00    -0.506 OA
ATOM     15  H   UNL     1       0.397   0.718  -3.458  0.00  0.00    +0.292 HD
ENDBRANCH  13  14
ENDBRANCH   2   8
BRANCH   4  16
ATOM     16  S   UNL     1       3.643  -2.579  -0.733  0.00  0.00    +0.078 S 
ATOM     17  O   UNL     1       3.586  -3.578   0.276  0.00  0.00    -0.150 OA
ATOM     18  O   UNL     1       3.446  -2.874  -2.109  0.00  0.00    -0.150 OA
BRANCH  16  19
ATOM     19  C   UNL     1       5.229  -1.823  -0.603  0.00  0.00    +0.109 A 
ATOM     20  C   UNL     1       5.782  -1.183  -1.696  0.00  0.00    +0.029 A 
ATOM     21  C   UNL     1       7.026  -0.589  -1.594  0.00  0.00    +0.002 A 
ATOM     22  C   UNL     1       7.718  -0.635  -0.398  0.00  0.00    +0.000 A 
ATOM     23  C   UNL     1       7.165  -1.275   0.696  0.00  0.00    +0.002 A 
ATOM     24  C   UNL     1       5.919  -1.864   0.595  0.00  0.00    +0.029 A 
ENDBRANCH  16  19
ENDBRANCH   4  16
BRANCH   7  25
ATOM     25  C   UNL     1       0.477   0.238   2.191  0.00  0.00    +0.117 C 
BRANCH  25  26
ATOM     26  C   UNL     1       1.452   1.069   3.028  0.00  0.00    -0.008 C 
ATOM     27  C   UNL     1       0.825   1.376   4.390  0.00  0.00    +0.027 C 
ATOM     28  C   UNL     1      -0.442   2.210   4.187  0.00  0.00    +0.120 C 
ATOM     29  N   UNL     1      -0.101   3.459   3.493  0.00  0.00    -0.145 NA
ATOM     30  C   UNL     1       0.459   3.190   2.163  0.00  0.00    +0.120 C 
ATOM     31  C   UNL     1       1.753   2.385   2.305  0.00  0.00    +0.027 C 
ATOM     32  F   UNL     1      -1.133   4.244   3.414  0.00  0.00    -0.133 F 
BRANCH  26  33
ATOM     33  C   UNL     1       2.752   0.286   3.226  0.00  0.00    -0.003 C 
ATOM     34  C   UNL     1       2.487  -0.923   4.124  0.00  0.00    +0.004 C 
ATOM     35  C   UNL     1       3.786  -1.706   4.322  0.00  0.00    +0.000 C 
ATOM     36  C   UNL     1       4.831  -0.802   4.980  0.00  0.00    +0.000 C 
ATOM     37  C   UNL     1       5.096   0.408   4.082  0.00  0.00    +0.000 C 
ATOM     38  C   UNL     1       3.797   1.190   3.883  0.00  0.00    +0.004 C 
ENDBRANCH  26  33
ENDBRANCH  25  26
ENDBRANCH   7  25
TORSDOF 7
