REMARK  Name = ZINC06197284
REMARK  15 active torsions:
REMARK  status: ('A' for Active; 'I' for Inactive)
REMARK    1  A    between atoms: C_1  and  C_2
REMARK    2  A    between atoms: C_2  and  S_3
REMARK    3  A    between atoms: S_3  and  C_4
REMARK    4  A    between atoms: C_4  and  C_5
REMARK    5  A    between atoms: C_5  and  O_6
REMARK    6  A    between atoms: O_6  and  C_7
REMARK    7  A    between atoms: C_7  and  C_9
REMARK    8  A    between atoms: C_10  and  C_38
REMARK    9  A    between atoms: C_14  and  C_16
REMARK   10  A    between atoms: C_19  and  C_21
REMARK   11  A    between atoms: C_25  and  C_28
REMARK   12  A    between atoms: C_31  and  O_36
REMARK   13  A    between atoms: C_32  and  O_34
REMARK   14  A    between atoms: O_34  and  C_35
REMARK   15  A    between atoms: O_36  and  C_37
REMARK                            x       y       z     vdW  Elec       q    Type
REMARK                         _______ _______ _______ _____ _____    ______ ____
ROOT
ATOM      1  C   UNL     1      -9.771  -3.706   1.435  0.00  0.00    +0.156 C 
ATOM      2  C   UNL     1      -9.067  -3.405   2.540  0.00  0.00    +0.031 C 
ATOM      3  N   UNL     1      -7.719  -3.190   2.464  0.00  0.00    -0.260 NA
ATOM      4  C   UNL     1      -7.128  -2.882   1.269  0.00  0.00    +0.049 C 
ATOM      5  C   UNL     1      -7.751  -3.161   0.104  0.00  0.00    +0.028 C 
ATOM      6  C   UNL     1      -9.106  -3.823   0.095  0.00  0.00    +0.109 C 
ATOM      7  C   UNL     1      -7.157  -2.845  -1.131  0.00  0.00    +0.162 C 
ATOM      8  O   UNL     1      -7.753  -3.092  -2.160  0.00  0.00    -0.292 OA
ATOM      9  C   UNL     1      -5.797  -2.205  -1.200  0.00  0.00    +0.088 C 
ATOM     10  C   UNL     1      -4.989  -2.619   0.034  0.00  0.00    +0.032 C 
ATOM     11  C   UNL     1      -5.769  -2.226   1.288  0.00  0.00    +0.064 C 
ATOM     12  C   UNL     1      -9.768  -3.305   3.870  0.00  0.00    +0.061 C 
ENDROOT
BRANCH   6  13
ATOM     13  C   UNL     1      -8.942  -5.281  -0.252  0.00  0.00    +0.114 A 
ATOM     14  C   UNL     1      -9.496  -5.905  -1.306  0.00  0.00    +0.045 A 
ATOM     15  C   UNL     1      -9.080  -7.255  -1.248  0.00  0.00    +0.044 A 
ATOM     16  C   UNL     1      -8.304  -7.377  -0.156  0.00  0.00    +0.102 A 
ATOM     17  O   UNL     1      -8.224  -6.177   0.444  0.00  0.00    -0.464 OA
ATOM     18  C   UNL     1      -7.636  -8.643   0.315  0.00  0.00    +0.086 C 
ENDBRANCH   6  13
BRANCH  10  19
ATOM     19  C   UNL     1      -3.655  -1.916   0.025  0.00  0.00    -0.040 A 
ATOM     20  C   UNL     1      -3.604  -0.535   0.034  0.00  0.00    +0.008 A 
ATOM     21  C   UNL     1      -2.384   0.115   0.032  0.00  0.00    +0.049 A 
ATOM     22  C   UNL     1      -1.209  -0.619   0.009  0.00  0.00    +0.161 A 
ATOM     23  C   UNL     1      -1.260  -2.009   0.000  0.00  0.00    +0.162 A 
ATOM     24  C   UNL     1      -2.487  -2.654   0.009  0.00  0.00    +0.053 A 
BRANCH  23  25
ATOM     25  O   UNL     1      -0.110  -2.734  -0.017  0.00  0.00    -0.491 OA
ATOM     26  C   UNL     1      -0.239  -4.157  -0.025  0.00  0.00    +0.277 C 
ENDBRANCH  23  25
BRANCH  22  27
ATOM     27  O   UNL     1      -0.007   0.019   0.001  0.00  0.00    -0.491 OA
ATOM     28  C   UNL     1      -0.031   1.448   0.011  0.00  0.00    +0.277 C 
ENDBRANCH  22  27
ENDBRANCH  10  19
BRANCH   1  29
ATOM     29  C   UNL     1     -11.166  -3.917   1.537  0.00  0.00    +0.317 C 
ATOM     30  O   UNL     1     -11.717  -3.825   2.618  0.00  0.00    -0.250 OA
BRANCH  29  31
ATOM     31  O   UNL     1     -11.885  -4.219   0.437  0.00  0.00    -0.463 OA
BRANCH  31  32
ATOM     32  C   UNL     1     -13.289  -4.419   0.614  0.00  0.00    +0.243 C 
BRANCH  32  33
ATOM     33  C   UNL     1     -13.931  -4.750  -0.735  0.00  0.00    +0.110 C 
BRANCH  33  34
ATOM     34  S   UNL     1     -15.714  -5.004  -0.510  0.00  0.00    -0.158 S 
BRANCH  34  36
ATOM     35  C   UNL     1     -17.827  -5.622  -2.133  0.00  0.00    +0.015 C 
ATOM     36  C   UNL     1     -16.317  -5.383  -2.179  0.00  0.00    +0.066 C 
ENDBRANCH  34  36
ENDBRANCH  33  34
ENDBRANCH  32  33
ENDBRANCH  31  32
ENDBRANCH  29  31
ENDBRANCH   1  29
TORSDOF 10
