REMARK  Name = ZINC13523754
REMARK  10 active torsions:
REMARK  status: ('A' for Active; 'I' for Inactive)
REMARK    1  A    between atoms: C_1  and  C_2
REMARK    2  A    between atoms: C_2  and  O_3
REMARK    3  A    between atoms: O_3  and  C_4
REMARK    4  A    between atoms: C_7  and  N_10
REMARK    5  A    between atoms: C_11  and  C_29
REMARK    6  A    between atoms: C_17  and  C_18
REMARK    7  A    between atoms: C_21  and  O_26
REMARK    8  A    between atoms: C_22  and  O_24
REMARK    9  A    between atoms: O_24  and  C_25
REMARK   10  A    between atoms: C_33  and  N_35
REMARK                            x       y       z     vdW  Elec       q    Type
REMARK                         _______ _______ _______ _____ _____    ______ ____
ROOT
ATOM      1  N   UNL     1      -1.995  -5.992  -0.409  0.00  0.00    -0.239 N 
ATOM      2  C   UNL     1      -3.329  -6.580  -0.203  0.00  0.00    +0.260 C 
ATOM      3  S   UNL     1      -2.929  -8.367  -0.035  0.00  0.00    +0.025 S 
ATOM      4  O   UNL     1      -3.145  -8.817   1.296  0.00  0.00    -0.167 OA
ATOM      5  O   UNL     1      -3.399  -9.104  -1.155  0.00  0.00    -0.167 OA
ATOM      6  C   UNL     1      -1.158  -8.244  -0.232  0.00  0.00    +0.153 C 
ATOM      7  C   UNL     1      -0.237  -9.231  -0.212  0.00  0.00    +0.040 C 
ATOM      8  C   UNL     1      -0.954  -6.806  -0.427  0.00  0.00    +0.270 C 
ATOM      9  O   UNL     1       0.167  -6.363  -0.600  0.00  0.00    -0.268 OA
ENDROOT
BRANCH   1  13
ATOM     10  C   UNL     1      -1.518  -1.885  -0.940  0.00  0.00    +0.121 A 
ATOM     11  C   UNL     1      -1.054  -2.767  -1.905  0.00  0.00    +0.047 A 
ATOM     12  C   UNL     1      -1.211  -4.128  -1.730  0.00  0.00    +0.027 A 
ATOM     13  C   UNL     1      -1.835  -4.613  -0.587  0.00  0.00    +0.039 A 
ATOM     14  C   UNL     1      -2.299  -3.729   0.378  0.00  0.00    +0.027 A 
ATOM     15  C   UNL     1      -2.136  -2.369   0.204  0.00  0.00    +0.047 A 
BRANCH  10  16
ATOM     16  O   UNL     1      -1.362  -0.545  -1.113  0.00  0.00    -0.492 OA
BRANCH  16  18
ATOM     17  C   UNL     1      -0.633   1.411  -2.331  0.00  0.00    +0.048 C 
ATOM     18  C   UNL     1      -0.717  -0.117  -2.314  0.00  0.00    +0.225 C 
ENDBRANCH  16  18
ENDBRANCH  10  16
ENDBRANCH   1  13
BRANCH   7  19
ATOM     19  C   UNL     1       1.195  -8.901  -0.221  0.00  0.00    -0.019 A 
ATOM     20  C   UNL     1       1.674  -7.835   0.549  0.00  0.00    +0.012 A 
ATOM     21  C   UNL     1       3.017  -7.527   0.539  0.00  0.00    +0.050 A 
ATOM     22  C   UNL     1       3.898  -8.272  -0.234  0.00  0.00    +0.158 A 
ATOM     23  C   UNL     1       3.428  -9.335  -1.004  0.00  0.00    +0.162 A 
ATOM     24  C   UNL     1       2.085  -9.655  -0.995  0.00  0.00    +0.057 A 
BRANCH  23  25
ATOM     25  O   UNL     1       4.295 -10.062  -1.760  0.00  0.00    -0.491 OA
ATOM     26  C   UNL     1       3.745 -11.136  -2.524  0.00  0.00    +0.277 C 
ENDBRANCH  23  25
BRANCH  22  27
ATOM     27  O   UNL     1       5.221  -7.964  -0.240  0.00  0.00    -0.503 OA
ATOM     28  H   UNL     1       5.735  -8.424   0.438  0.00  0.00    +0.292 HD
ENDBRANCH  22  27
ENDBRANCH   7  19
BRANCH   2  29
ATOM     29  C   UNL     1      -4.217  -6.335  -1.396  0.00  0.00    -0.003 A 
ATOM     30  C   UNL     1      -3.665  -6.233  -2.659  0.00  0.00    +0.007 A 
ATOM     31  C   UNL     1      -4.479  -6.008  -3.753  0.00  0.00    +0.003 A 
ATOM     32  C   UNL     1      -5.845  -5.886  -3.584  0.00  0.00    +0.033 A 
ATOM     33  C   UNL     1      -6.398  -5.988  -2.322  0.00  0.00    +0.127 A 
ATOM     34  C   UNL     1      -5.584  -6.217  -1.228  0.00  0.00    +0.039 A 
BRANCH  33  35
ATOM     35  N   UNL     1      -7.861  -5.856  -2.141  0.00  0.00    +0.056 N 
ATOM     36  O   UNL     1      -8.573  -5.659  -3.098  0.00  0.00    -0.126 OA
ATOM     37  O   UNL     1      -8.344  -5.946  -1.036  0.00  0.00    -0.126 OA
ENDBRANCH  33  35
ENDBRANCH   2  29
TORSDOF 8
