REMARK  Name = ZINC39699332
REMARK  13 active torsions:
REMARK  status: ('A' for Active; 'I' for Inactive)
REMARK    1  A    between atoms: C_1  and  C_2
REMARK    2  A    between atoms: C_6  and  C_15
REMARK    3  A    between atoms: C_13  and  C_14
REMARK    4  A    between atoms: C_15  and  C_17
REMARK    5  A    between atoms: C_15  and  N_26
REMARK    6  A    between atoms: N_21  and  C_22
REMARK    7  A    between atoms: C_22  and  C_23
REMARK    8  A    between atoms: C_23  and  O_24
REMARK    9  A    between atoms: O_24  and  C_25
REMARK   10  A    between atoms: N_26  and  C_27
REMARK   11  A    between atoms: N_26  and  C_34
REMARK   12  A    between atoms: C_27  and  C_28
REMARK   13  A    between atoms: C_34  and  C_35
REMARK                            x       y       z     vdW  Elec       q    Type
REMARK                         _______ _______ _______ _____ _____    ______ ____
ROOT
ATOM      1  C   UNL     1       1.279  -5.354  -3.706  0.00  0.00    +0.143 C 
ENDROOT
BRANCH   1   7
ATOM      2  C   UNL     1      -5.610  -5.993  -5.479  0.00  0.00    +0.044 C 
ATOM      3  C   UNL     1      -4.449  -5.293  -4.820  0.00  0.00    -0.047 A 
ATOM      4  C   UNL     1      -3.342  -6.008  -4.491  0.00  0.00    +0.013 A 
ATOM      5  C   UNL     1      -2.221  -5.319  -3.852  0.00  0.00    -0.007 A 
ATOM      6  C   UNL     1      -1.090  -5.996  -3.504  0.00  0.00    -0.003 C 
ATOM      7  C   UNL     1       0.022  -5.201  -2.847  0.00  0.00    +0.123 C 
ATOM      8  C   UNL     1      -0.215  -3.723  -2.631  0.00  0.00    +0.226 C 
ATOM      9  O   UNL     1       0.644  -3.038  -2.108  0.00  0.00    -0.275 OA
ATOM     10  N   UNL     1      -1.358  -3.179  -3.012  0.00  0.00    -0.284 N 
ATOM     11  C   UNL     1      -2.338  -3.874  -3.590  0.00  0.00    +0.041 A 
ATOM     12  C   UNL     1      -3.528  -3.227  -3.971  0.00  0.00    +0.027 A 
ATOM     13  C   UNL     1      -4.531  -3.924  -4.566  0.00  0.00    -0.046 A 
ATOM     14  C   UNL     1      -5.786  -3.189  -4.962  0.00  0.00    +0.044 C 
ATOM     15  H   UNL     1      -1.490  -2.229  -2.865  0.00  0.00    +0.155 HD
ENDBRANCH   1   7
BRANCH   1  16
ATOM     16  C   UNL     1       2.454  -4.739  -2.990  0.00  0.00    +0.170 A 
ATOM     17  N   UNL     1       2.912  -5.074  -1.808  0.00  0.00    -0.112 NA
ATOM     18  N   UNL     1       3.924  -4.320  -1.546  0.00  0.00    -0.023 NA
ATOM     19  N   UNL     1       4.123  -3.514  -2.530  0.00  0.00    -0.044 NA
ATOM     20  N   UNL     1       3.240  -3.745  -3.442  0.00  0.00    -0.225 N 
BRANCH  20  21
ATOM     21  C   UNL     1       3.115  -3.053  -4.727  0.00  0.00    +0.175 C 
BRANCH  21  22
ATOM     22  C   UNL     1       2.162  -1.865  -4.576  0.00  0.00    +0.183 C 
BRANCH  22  23
ATOM     23  O   UNL     1       1.957  -1.253  -5.851  0.00  0.00    -0.381 OA
ATOM     24  C   UNL     1       1.077  -0.128  -5.821  0.00  0.00    +0.194 C 
ENDBRANCH  22  23
ENDBRANCH  21  22
ENDBRANCH  20  21
ENDBRANCH   1  16
BRANCH   1  25
ATOM     25  N   UNL     1       1.540  -6.780  -3.942  0.00  0.00    -0.283 NA
BRANCH  25  26
ATOM     26  C   UNL     1       2.467  -6.966  -5.066  0.00  0.00    +0.120 C 
BRANCH  26  27
ATOM     27  C   UNL     1       1.722  -6.802  -6.365  0.00  0.00    -0.033 A 
ATOM     28  C   UNL     1       0.997  -7.858  -6.885  0.00  0.00    +0.005 A 
ATOM     29  C   UNL     1       0.313  -7.707  -8.076  0.00  0.00    +0.000 A 
ATOM     30  C   UNL     1       0.353  -6.500  -8.748  0.00  0.00    +0.000 A 
ATOM     31  C   UNL     1       1.076  -5.443  -8.228  0.00  0.00    +0.000 A 
ATOM     32  C   UNL     1       1.757  -5.592  -7.034  0.00  0.00    +0.005 A 
ENDBRANCH  26  27
ENDBRANCH  25  26
BRANCH  25  33
ATOM     33  C   UNL     1       2.049  -7.430  -2.727  0.00  0.00    +0.122 C 
BRANCH  33  34
ATOM     34  C   UNL     1       0.911  -7.659  -1.766  0.00  0.00    -0.015 A 
ATOM     35  C   UNL     1       0.774  -6.866  -0.636  0.00  0.00    +0.008 A 
ATOM     36  C   UNL     1      -0.288  -7.114   0.219  0.00  0.00    +0.020 A 
ATOM     37  C   UNL     1      -1.170  -8.135  -0.079  0.00  0.00    +0.111 A 
ATOM     38  N   UNL     1      -1.009  -8.870  -1.163  0.00  0.00    -0.263 NA
ATOM     39  C   UNL     1      -0.014  -8.659  -2.002  0.00  0.00    +0.115 A 
ENDBRANCH  33  34
ENDBRANCH  25  33
ENDBRANCH   1  25
TORSDOF 10
