REMARK  Name = ZINC39722937
REMARK  11 active torsions:
REMARK  status: ('A' for Active; 'I' for Inactive)
REMARK    1  A    between atoms: C_1  and  C_2
REMARK    2  A    between atoms: C_2  and  C_3
REMARK    3  A    between atoms: N_9  and  S_10
REMARK    4  A    between atoms: S_10  and  C_13
REMARK    5  A    between atoms: C_16  and  C_19
REMARK    6  A    between atoms: C_19  and  N_21
REMARK    7  A    between atoms: N_23  and  C_34
REMARK    8  A    between atoms: C_27  and  C_31
REMARK    9  A    between atoms: C_31  and  C_32
REMARK   10  A    between atoms: C_31  and  C_33
REMARK   11  A    between atoms: C_34  and  C_35
REMARK                            x       y       z     vdW  Elec       q    Type
REMARK                         _______ _______ _______ _____ _____    ______ ____
ROOT
ATOM      1  C   UNL     1       1.976   6.766   1.966  0.00  0.00    +0.269 C 
ATOM      2  O   UNL     1       0.965   7.392   1.700  0.00  0.00    -0.268 OA
ENDROOT
BRANCH   1   3
ATOM      3  N   UNL     1       2.946   7.339   2.687  0.00  0.00    -0.152 NA
ATOM      4  C   UNL     1       2.807   8.590   3.113  0.00  0.00    +0.168 A 
ATOM      5  N   UNL     1       3.686   9.323   3.844  0.00  0.00    -0.310 N 
ATOM      6  C   UNL     1       3.369  10.621   4.199  0.00  0.00    +0.058 A 
ATOM      7  C   UNL     1       4.119  11.544   4.941  0.00  0.00    +0.027 A 
ATOM      8  C   UNL     1       3.627  12.803   5.194  0.00  0.00    +0.006 A 
ATOM      9  C   UNL     1       2.384  13.195   4.726  0.00  0.00    -0.044 A 
ATOM     10  C   UNL     1       1.624  12.303   3.990  0.00  0.00    +0.021 A 
ATOM     11  C   UNL     1       2.114  11.044   3.737  0.00  0.00    +0.039 A 
ATOM     12  S   UNL     1       1.507   9.625   2.862  0.00  0.00    -0.052 S 
BRANCH   9  13
ATOM     13  C   UNL     1       1.864  14.580   5.015  0.00  0.00    +0.013 C 
ATOM     14  C   UNL     1       1.764  14.781   6.529  0.00  0.00    +0.012 C 
ATOM     15  C   UNL     1       2.821  15.618   4.425  0.00  0.00    +0.012 C 
ENDBRANCH   9  13
BRANCH   5  16
ATOM     16  C   UNL     1       4.965   8.740   4.256  0.00  0.00    +0.212 C 
BRANCH  16  17
ATOM     17  C   UNL     1       5.981   9.008   3.225  0.00  0.00    -0.084 C 
ATOM     18  C   UNL     1       6.791   9.221   2.403  0.00  0.00    +0.005 C 
ENDBRANCH  16  17
ENDBRANCH   5  16
ENDBRANCH   1   3
BRANCH   1  22
ATOM     19  C   UNL     1       2.421   2.765   0.603  0.00  0.00    +0.106 A 
ATOM     20  C   UNL     1       1.271   3.473   0.300  0.00  0.00    +0.029 A 
ATOM     21  C   UNL     1       1.121   4.772   0.740  0.00  0.00    +0.015 A 
ATOM     22  C   UNL     1       2.131   5.372   1.492  0.00  0.00    +0.039 A 
ATOM     23  C   UNL     1       3.288   4.653   1.794  0.00  0.00    +0.015 A 
ATOM     24  C   UNL     1       3.424   3.353   1.353  0.00  0.00    +0.029 A 
BRANCH  19  25
ATOM     25  S   UNL     1       2.606   1.107   0.038  0.00  0.00    +0.061 S 
ATOM     26  O   UNL     1       3.996   0.900  -0.168  0.00  0.00    -0.153 OA
ATOM     27  O   UNL     1       1.647   0.920  -0.994  0.00  0.00    -0.153 OA
BRANCH  25  33
ATOM     28  C   UNL     1       0.741  -0.168   1.548  0.00  0.00    +0.080 C 
ATOM     29  C   UNL     1       0.533  -1.685   1.583  0.00  0.00    +0.021 C 
ATOM     30  C   UNL     1       1.495  -2.304   2.600  0.00  0.00    +0.003 C 
ATOM     31  C   UNL     1       2.939  -2.024   2.175  0.00  0.00    +0.017 C 
ATOM     32  C   UNL     1       3.174  -0.511   2.146  0.00  0.00    +0.110 C 
ATOM     33  N   UNL     1       2.159   0.112   1.285  0.00  0.00    -0.174 NA
BRANCH  28  35
ATOM     34  C   UNL     1      -1.597   0.259   0.778  0.00  0.00    +0.005 C 
ATOM     35  C   UNL     1      -0.117   0.441   0.437  0.00  0.00    +0.017 C 
ENDBRANCH  28  35
ENDBRANCH  25  33
ENDBRANCH  19  25
ENDBRANCH   1  22
TORSDOF 8
