REMARK  Name = ZINC09109813
REMARK  5 active torsions:
REMARK  status: ('A' for Active; 'I' for Inactive)
REMARK    1  A    between atoms: C_1  and  N_55
REMARK    2  A    between atoms: C_14  and  C_16
REMARK    3  A    between atoms: C_17  and  O_30
REMARK    4  A    between atoms: C_19  and  O_29
REMARK    5  A    between atoms: N_20  and  C_23
REMARK                            x       y       z     vdW  Elec       q    Type
REMARK                         _______ _______ _______ _____ _____    ______ ____
ROOT
ATOM      1  C   UNL     1      -5.415   3.476  -0.935  0.00  0.00    +0.071 A 
ATOM      2  C   UNL     1      -6.162   4.553  -0.492  0.00  0.00    +0.224 A 
ATOM      3  N   UNL     1      -6.615   5.454  -1.371  0.00  0.00    -0.161 NA
ATOM      4  C   UNL     1      -6.373   5.332  -2.657  0.00  0.00    +0.302 A 
ATOM      5  N   UNL     1      -5.650   4.292  -3.146  0.00  0.00    -0.260 N 
ATOM      6  C   UNL     1      -5.162   3.353  -2.308  0.00  0.00    +0.262 A 
ATOM      7  O   UNL     1      -4.510   2.415  -2.737  0.00  0.00    -0.267 OA
ENDROOT
BRANCH   1  21
ATOM      8  C   UNL     1      -6.800   0.998  -0.285  0.00  0.00    -0.095 C 
ATOM      9  C   UNL     1      -4.685   0.063   0.433  0.00  0.00    -0.073 C 
ATOM     10  C   UNL     1      -3.207  -0.041   0.029  0.00  0.00    +0.019 C 
ATOM     11  C   UNL     1      -2.630   1.351   0.025  0.00  0.00    -0.022 A 
ATOM     12  C   UNL     1      -1.231   1.759   0.017  0.00  0.00    +0.003 A 
ATOM     13  C   UNL     1      -0.013   1.076   0.008  0.00  0.00    +0.010 A 
ATOM     14  C   UNL     1       1.160   1.776   0.001  0.00  0.00    +0.001 A 
ATOM     15  C   UNL     1       1.153   3.164   0.008  0.00  0.00    +0.002 A 
ATOM     16  C   UNL     1      -0.036   3.860   0.021  0.00  0.00    +0.026 A 
ATOM     17  C   UNL     1      -1.242   3.168   0.029  0.00  0.00    +0.047 A 
ATOM     18  N   UNL     1      -2.562   3.567   0.042  0.00  0.00    -0.359 N 
ATOM     19  H   UNL     1      -2.865   4.488   0.048  0.00  0.00    +0.166 HD
ATOM     20  C   UNL     1      -3.378   2.473   0.031  0.00  0.00    +0.011 A 
ATOM     21  C   UNL     1      -4.889   2.453   0.038  0.00  0.00    +0.021 C 
ATOM     22  N   UNL     1      -5.331   1.105  -0.396  0.00  0.00    +0.387 N 
ATOM     23  H   UNL     1      -5.059   0.966  -1.376  0.00  0.00    -0.081 HD
ENDBRANCH   1  21
BRANCH   5  24
ATOM     24  C   UNL     1      -5.400   4.188  -4.585  0.00  0.00    +0.095 C 
ATOM     25  C   UNL     1      -4.637   5.426  -5.061  0.00  0.00    +0.025 C 
ATOM     26  C   UNL     1      -4.375   5.317  -6.564  0.00  0.00    +0.002 C 
ATOM     27  C   UNL     1      -5.709   5.223  -7.309  0.00  0.00    +0.000 C 
ATOM     28  C   UNL     1      -6.472   3.985  -6.833  0.00  0.00    +0.002 C 
ATOM     29  C   UNL     1      -6.733   4.093  -5.330  0.00  0.00    +0.025 C 
ENDBRANCH   5  24
BRANCH   4  30
ATOM     30  O   UNL     1      -6.854   6.260  -3.509  0.00  0.00    -0.479 OA
ATOM     31  H   UNL     1      -7.364   6.987  -3.125  0.00  0.00    +0.295 HD
ENDBRANCH   4  30
BRANCH   2  32
ATOM     32  O   UNL     1      -6.429   4.698   0.827  0.00  0.00    -0.492 OA
ATOM     33  H   UNL     1      -6.957   5.480   1.038  0.00  0.00    +0.294 HD
ENDBRANCH   2  32
TORSDOF 4
