REMARK  Name = ZINC35843665
REMARK  16 active torsions:
REMARK  status: ('A' for Active; 'I' for Inactive)
REMARK    1  A    between atoms: C_1  and  C_2
REMARK    2  A    between atoms: C_2  and  C_4
REMARK    3  A    between atoms: C_2  and  N_8
REMARK    4  A    between atoms: C_4  and  O_6
REMARK    5  A    between atoms: O_6  and  C_7
REMARK    6  A    between atoms: N_8  and  C_9
REMARK    7  A    between atoms: N_8  and  C_13
REMARK    8  A    between atoms: C_9  and  C_10
REMARK    9  A    between atoms: C_10  and  C_11
REMARK   10  A    between atoms: C_10  and  C_12
REMARK   11  A    between atoms: C_13  and  C_14
REMARK   12  A    between atoms: N_16  and  C_17
REMARK   13  A    between atoms: N_16  and  C_29
REMARK   14  A    between atoms: C_17  and  C_18
REMARK   15  A    between atoms: C_18  and  C_19
REMARK   16  A    between atoms: C_29  and  C_30
REMARK                            x       y       z     vdW  Elec       q    Type
REMARK                         _______ _______ _______ _____ _____    ______ ____
ROOT
ATOM      1  C   UNL     1      -3.889  -0.401  -1.174  0.00  0.00    +0.199 C 
ATOM      2  O   UNL     1      -4.654   0.309  -1.792  0.00  0.00    -0.278 OA
ATOM      3  N   UNL     1      -4.189  -1.700  -0.974  0.00  0.00    -0.298 N 
ENDROOT
BRANCH   1   4
ATOM      4  C   UNL     1      -2.605   0.169  -0.630  0.00  0.00    +0.020 C 
BRANCH   4   5
ATOM      5  N   UNL     1      -2.545   1.607  -0.920  0.00  0.00    +0.394 N 
ATOM      6  H   UNL     1      -1.697   1.994  -0.534  0.00  0.00    -0.080 HD
BRANCH   5   8
ATOM      7  C   UNL     1      -2.530   3.313  -2.677  0.00  0.00    -0.002 C 
ATOM      8  C   UNL     1      -2.558   1.814  -2.375  0.00  0.00    +0.040 C 
BRANCH   8   9
ATOM      9  C   UNL     1      -1.349   1.155  -2.987  0.00  0.00    +0.293 C 
ATOM     10  O   UNL     1      -0.394   0.886  -2.297  0.00  0.00    -0.253 OA
BRANCH   9  11
ATOM     11  O   UNL     1      -1.332   0.868  -4.298  0.00  0.00    -0.469 OA
ATOM     12  C   UNL     1      -0.154   0.244  -4.811  0.00  0.00    +0.280 C 
ENDBRANCH   9  11
ENDBRANCH   8   9
ENDBRANCH   5   8
BRANCH   5  13
ATOM     13  C   UNL     1      -3.707   2.277  -0.320  0.00  0.00    -0.074 C 
BRANCH  13  14
ATOM     14  C   UNL     1      -3.594   2.224   1.205  0.00  0.00    -0.034 C 
ATOM     15  C   UNL     1      -2.406   3.075   1.658  0.00  0.00    +0.005 C 
ATOM     16  C   UNL     1      -4.880   2.768   1.830  0.00  0.00    +0.005 C 
ENDBRANCH  13  14
ENDBRANCH   5  13
ENDBRANCH   4   5
ENDBRANCH   1   4
BRANCH   3  17
ATOM     17  C   UNL     1      -5.380  -2.281  -1.597  0.00  0.00    +0.113 C 
BRANCH  17  18
ATOM     18  C   UNL     1      -5.014  -2.842  -2.973  0.00  0.00    +0.056 C 
BRANCH  18  19
ATOM     19  C   UNL     1      -6.240  -3.440  -3.614  0.00  0.00    -0.021 A 
ATOM     20  C   UNL     1      -6.613  -4.729  -3.576  0.00  0.00    +0.087 A 
ATOM     21  N   UNL     1      -7.779  -4.898  -4.270  0.00  0.00    -0.360 N 
ATOM     22  H   UNL     1      -8.243  -5.743  -4.383  0.00  0.00    +0.165 HD
ATOM     23  C   UNL     1      -8.197  -3.692  -4.785  0.00  0.00    +0.047 A 
ATOM     24  C   UNL     1      -7.255  -2.724  -4.391  0.00  0.00    +0.003 A 
ATOM     25  C   UNL     1      -7.425  -1.391  -4.769  0.00  0.00    +0.010 A 
ATOM     26  C   UNL     1      -8.510  -1.032  -5.518  0.00  0.00    +0.001 A 
ATOM     27  C   UNL     1      -9.445  -1.982  -5.906  0.00  0.00    +0.002 A 
ATOM     28  C   UNL     1      -9.291  -3.304  -5.552  0.00  0.00    +0.026 A 
ENDBRANCH  18  19
ENDBRANCH  17  18
ENDBRANCH   3  17
BRANCH   3  29
ATOM     29  C   UNL     1      -3.323  -2.530  -0.134  0.00  0.00    +0.142 C 
BRANCH  29  30
ATOM     30  C   UNL     1      -3.881  -2.583   1.265  0.00  0.00    -0.029 A 
ATOM     31  C   UNL     1      -3.450  -1.676   2.216  0.00  0.00    +0.007 A 
ATOM     32  C   UNL     1      -3.961  -1.724   3.499  0.00  0.00    +0.022 A 
ATOM     33  C   UNL     1      -4.904  -2.679   3.833  0.00  0.00    +0.059 A 
ATOM     34  C   UNL     1      -5.336  -3.587   2.881  0.00  0.00    +0.060 A 
ATOM     35  C   UNL     1      -4.827  -3.534   1.595  0.00  0.00    +0.026 A 
ATOM     36 CL   UNL     1      -6.519  -4.787   3.299  0.00  0.00    -0.082 Cl
ATOM     37 CL   UNL     1      -5.546  -2.740   5.445  0.00  0.00    -0.082 Cl
ENDBRANCH  29  30
ENDBRANCH   3  29
TORSDOF 12
