REMARK  Name = ZINC09183710
REMARK  7 active torsions:
REMARK  status: ('A' for Active; 'I' for Inactive)
REMARK    1  A    between atoms: C_1  and  C_2
REMARK    2  A    between atoms: C_2  and  N_3
REMARK    3  A    between atoms: N_3  and  C_4
REMARK    4  A    between atoms: C_4  and  C_5
REMARK    5  A    between atoms: C_6  and  C_8
REMARK    6  A    between atoms: C_9  and  N_27
REMARK    7  A    between atoms: C_19  and  C_22
REMARK                            x       y       z     vdW  Elec       q    Type
REMARK                         _______ _______ _______ _____ _____    ______ ____
ROOT
ATOM      1  C   UNL     1       2.617  -2.049  -5.201  0.00  0.00    +0.097 A 
ATOM      2  C   UNL     1       1.688  -1.176  -5.728  0.00  0.00    +0.054 A 
ATOM      3  C   UNL     1       0.860  -0.413  -4.808  0.00  0.00    +0.031 A 
ATOM      4  C   UNL     1      -0.154   0.538  -5.117  0.00  0.00    -0.030 A 
ATOM      5  C   UNL     1      -0.825   1.144  -4.108  0.00  0.00    -0.005 A 
ATOM      6  C   UNL     1      -0.510   0.838  -2.775  0.00  0.00    +0.103 A 
ATOM      7  C   UNL     1       1.104  -0.655  -3.439  0.00  0.00    +0.089 A 
ATOM      8  S   UNL     1       2.402  -1.867  -3.442  0.00  0.00    -0.064 S 
ATOM      9  N   UNL     1      -1.196   1.467  -1.747  0.00  0.00    -0.316 N 
ATOM     10  C   UNL     1      -1.492   0.526  -0.659  0.00  0.00    +0.107 C 
ATOM     11  C   UNL     1      -2.372   1.214   0.387  0.00  0.00    +0.022 C 
ATOM     12  C   UNL     1      -1.641   2.442   0.934  0.00  0.00    -0.011 C 
ATOM     13  C   UNL     1      -1.303   3.383  -0.225  0.00  0.00    +0.022 C 
ATOM     14  C   UNL     1      -0.453   2.633  -1.253  0.00  0.00    +0.107 C 
ATOM     15  C   UNL     1      -2.541   3.169   1.936  0.00  0.00    +0.007 C 
ATOM     16  C   UNL     1      -1.923   2.147  -4.354  0.00  0.00    +0.039 C 
ATOM     17  C   UNL     1      -1.848   2.687  -5.780  0.00  0.00    +0.005 C 
ATOM     18  C   UNL     1      -1.778   1.498  -6.745  0.00  0.00    +0.005 C 
ATOM     19  C   UNL     1      -0.421   0.817  -6.570  0.00  0.00    +0.036 C 
ATOM     20  N   UNL     1       0.454  -0.052  -2.415  0.00  0.00    -0.337 N 
ATOM     21  H   UNL     1       0.673  -0.254  -1.433  0.00  0.00    +0.168 HD
ENDROOT
BRANCH   1  23
ATOM     22  N   UNL     1       4.457  -3.579  -5.209  0.00  0.00    -0.298 N 
ATOM     23  C   UNL     1       3.524  -2.888  -5.893  0.00  0.00    +0.255 C 
ATOM     24  O   UNL     1       3.461  -2.984  -7.105  0.00  0.00    -0.269 OA
BRANCH  22  26
ATOM     25  C   UNL     1       6.573  -3.834  -6.410  0.00  0.00    +0.024 C 
ATOM     26  C   UNL     1       5.313  -4.542  -5.907  0.00  0.00    +0.105 C 
ENDBRANCH  22  26
BRANCH  22  27
ATOM     27  C   UNL     1       4.617  -3.367  -3.768  0.00  0.00    +0.105 C 
ATOM     28  C   UNL     1       3.663  -4.291  -3.008  0.00  0.00    +0.024 C 
ENDBRANCH  22  27
ENDBRANCH   1  23
BRANCH   2  29
ATOM     29  N   UNL     1       1.547  -1.030  -7.100  0.00  0.00    -0.356 N 
ATOM     30  H   UNL     1       1.204  -0.200  -7.467  0.00  0.00    +0.142 HD
ATOM     31  H   UNL     1       1.791  -1.758  -7.693  0.00  0.00    +0.142 HD
ENDBRANCH   2  29
TORSDOF 4
