REMARK  Name = ZINC13984909
REMARK  6 active torsions:
REMARK  status: ('A' for Active; 'I' for Inactive)
REMARK    1  A    between atoms: C_4  and  C_7
REMARK    2  A    between atoms: C_7  and  C_8
REMARK    3  A    between atoms: N_12  and  C_30
REMARK    4  A    between atoms: N_17  and  S_20
REMARK    5  A    between atoms: S_20  and  C_23
REMARK    6  A    between atoms: C_30  and  C_31
REMARK                            x       y       z     vdW  Elec       q    Type
REMARK                         _______ _______ _______ _____ _____    ______ ____
ROOT
ATOM      1  C   UNL     1       4.297  -0.936   1.126  0.00  0.00    +0.023 C 
ATOM      2  C   UNL     1       5.522  -1.823   1.088  0.00  0.00    +0.201 C 
ATOM      3  O   UNL     1       6.603  -1.519   0.630  0.00  0.00    -0.277 OA
ATOM      4  N   UNL     1       5.209  -3.009   1.650  0.00  0.00    -0.309 N 
ATOM      5  C   UNL     1       3.807  -2.994   2.076  0.00  0.00    +0.006 C 
ATOM      6  N   UNL     1       3.397  -1.571   2.119  0.00  0.00    +0.401 N 
ATOM      7  C   UNL     1       2.940  -3.750   1.071  0.00  0.00    +0.023 C 
ATOM      8  C   UNL     1       3.398  -5.211   1.005  0.00  0.00    +0.109 C 
ATOM      9  N   UNL     1       3.391  -5.771   2.364  0.00  0.00    -0.177 NA
ATOM     10  C   UNL     1       4.135  -5.072   3.421  0.00  0.00    +0.109 C 
ATOM     11  C   UNL     1       3.671  -3.612   3.466  0.00  0.00    +0.023 C 
ATOM     12  H   UNL     1       3.550  -1.183   3.038  0.00  0.00    -0.082 HD
ATOM     13  H   UNL     1       2.432  -1.468   1.843  0.00  0.00    -0.082 HD
ENDROOT
BRANCH   9  14
ATOM     14  S   UNL     1       2.560  -7.164   2.698  0.00  0.00    +0.061 S 
ATOM     15  O   UNL     1       2.270  -7.140   4.089  0.00  0.00    -0.153 OA
ATOM     16  O   UNL     1       1.545  -7.278   1.710  0.00  0.00    -0.153 OA
BRANCH  14  17
ATOM     17  C   UNL     1       3.670  -8.507   2.437  0.00  0.00    +0.106 A 
ATOM     18  C   UNL     1       3.761  -9.097   1.190  0.00  0.00    +0.030 A 
ATOM     19  C   UNL     1       4.631 -10.150   0.985  0.00  0.00    +0.022 A 
ATOM     20  C   UNL     1       5.412 -10.616   2.029  0.00  0.00    +0.041 A 
ATOM     21  C   UNL     1       5.320 -10.025   3.277  0.00  0.00    +0.022 A 
ATOM     22  C   UNL     1       4.454  -8.968   3.479  0.00  0.00    +0.030 A 
ATOM     23 CL   UNL     1       6.505 -11.940   1.772  0.00  0.00    -0.084 Cl
ENDBRANCH  14  17
ENDBRANCH   9  14
BRANCH   1  24
ATOM     24  C   UNL     1       3.627  -0.893  -0.249  0.00  0.00    +0.028 C 
BRANCH  24  28
ATOM     25  C   UNL     1       0.214   1.672  -0.093  0.00  0.00    +0.000 A 
ATOM     26  C   UNL     1       1.453   2.189  -0.423  0.00  0.00    +0.000 A 
ATOM     27  C   UNL     1       2.557   1.359  -0.473  0.00  0.00    +0.003 A 
ATOM     28  C   UNL     1       2.423   0.012  -0.193  0.00  0.00    -0.048 A 
ATOM     29  C   UNL     1       1.184  -0.505   0.137  0.00  0.00    +0.003 A 
ATOM     30  C   UNL     1       0.080   0.325   0.186  0.00  0.00    +0.000 A 
ENDBRANCH  24  28
ENDBRANCH   1  24
BRANCH   4  31
ATOM     31  C   UNL     1       6.128  -4.139   1.808  0.00  0.00    +0.141 C 
BRANCH  31  32
ATOM     32  C   UNL     1       7.050  -3.876   2.971  0.00  0.00    -0.030 A 
ATOM     33  C   UNL     1       8.162  -3.072   2.804  0.00  0.00    +0.005 A 
ATOM     34  C   UNL     1       9.008  -2.831   3.871  0.00  0.00    +0.000 A 
ATOM     35  C   UNL     1       8.741  -3.394   5.105  0.00  0.00    +0.000 A 
ATOM     36  C   UNL     1       7.629  -4.197   5.272  0.00  0.00    +0.000 A 
ATOM     37  C   UNL     1       6.781  -4.434   4.207  0.00  0.00    +0.005 A 
ENDBRANCH  31  32
ENDBRANCH   4  31
TORSDOF 6
