REMARK  Name = ZINC67295558
REMARK  5 active torsions:
REMARK  status: ('A' for Active; 'I' for Inactive)
REMARK    1  A    between atoms: C_1  and  C_2
REMARK    2  A    between atoms: C_5  and  N_9
REMARK    3  A    between atoms: C_11  and  C_20
REMARK    4  A    between atoms: N_22  and  C_23
REMARK    5  A    between atoms: C_23  and  C_24
REMARK                            x       y       z     vdW  Elec       q    Type
REMARK                         _______ _______ _______ _____ _____    ______ ____
ROOT
ATOM      1  N   UNL     1       0.012  -4.155  -0.033  0.00  0.00    -0.324 N 
ATOM      2  C   UNL     1       0.757  -4.789  -0.912  0.00  0.00    +0.212 A 
ATOM      3  C   UNL     1       0.898  -6.258  -0.871  0.00  0.00    +0.097 A 
ATOM      4  C   UNL     1       1.186  -6.900  -2.068  0.00  0.00    +0.030 A 
ATOM      5  C   UNL     1       1.323  -6.064  -3.263  0.00  0.00    +0.018 A 
ATOM      6  C   UNL     1       1.346  -6.638  -4.540  0.00  0.00    +0.011 A 
ATOM      7  C   UNL     1       1.472  -5.837  -5.640  0.00  0.00    +0.001 A 
ATOM      8  C   UNL     1       1.577  -4.460  -5.502  0.00  0.00    +0.004 A 
ATOM      9  C   UNL     1       1.557  -3.875  -4.252  0.00  0.00    +0.047 A 
ATOM     10  C   UNL     1       1.433  -4.668  -3.121  0.00  0.00    +0.137 A 
ATOM     11  O   UNL     1       1.415  -4.113  -1.888  0.00  0.00    -0.439 OA
ATOM     12  H   UNL     1      -0.469  -4.654   0.646  0.00  0.00    +0.169 HD
ENDROOT
BRANCH   1  17
ATOM     13  C   UNL     1      -0.392   1.473  -0.212  0.00  0.00    +0.044 C 
ATOM     14  C   UNL     1      -0.284  -0.029  -0.163  0.00  0.00    -0.049 A 
ATOM     15  C   UNL     1      -0.278  -0.757  -1.340  0.00  0.00    +0.005 A 
ATOM     16  C   UNL     1      -0.179  -2.132  -1.304  0.00  0.00    +0.027 A 
ATOM     17  C   UNL     1      -0.086  -2.791  -0.076  0.00  0.00    +0.060 A 
ATOM     18  C   UNL     1      -0.092  -2.050   1.109  0.00  0.00    +0.065 A 
ATOM     19  C   UNL     1      -0.186  -0.673   1.057  0.00  0.00    +0.025 A 
ATOM     20 CL   UNL     1       0.024  -2.857   2.641  0.00  0.00    -0.081 Cl
ENDBRANCH   1  17
BRANCH   3  21
ATOM     21  C   UNL     1       0.741  -7.010   0.386  0.00  0.00    +0.250 C 
ATOM     22  O   UNL     1       0.419  -6.430   1.406  0.00  0.00    -0.270 OA
ATOM     23  N   UNL     1       0.954  -8.341   0.406  0.00  0.00    -0.304 N 
ATOM     24  H   UNL     1       1.289  -8.790  -0.385  0.00  0.00    +0.149 HD
BRANCH  23  25
ATOM     25  C   UNL     1       0.679  -9.108   1.623  0.00  0.00    +0.179 C 
BRANCH  25  26
ATOM     26  C   UNL     1       0.998 -10.561   1.384  0.00  0.00    +0.122 A 
ATOM     27  C   UNL     1       2.186 -11.152   1.601  0.00  0.00    +0.046 A 
ATOM     28  C   UNL     1       2.039 -12.512   1.244  0.00  0.00    +0.041 A 
ATOM     29  C   UNL     1       0.769 -12.671   0.830  0.00  0.00    +0.195 A 
ATOM     30  O   UNL     1       0.142 -11.487   0.922  0.00  0.00    -0.466 OA
ENDBRANCH  25  26
ENDBRANCH  23  25
ENDBRANCH   3  21
TORSDOF 4
