REMARK  Name = ZINC13523681
REMARK  7 active torsions:
REMARK  status: ('A' for Active; 'I' for Inactive)
REMARK    1  A    between atoms: C_1  and  O_2
REMARK    2  A    between atoms: O_2  and  C_3
REMARK    3  A    between atoms: C_6  and  C_9
REMARK    4  A    between atoms: C_9  and  C_24
REMARK    5  A    between atoms: C_11  and  C_17
REMARK    6  A    between atoms: C_27  and  O_31
REMARK    7  A    between atoms: C_29  and  O_30
REMARK                            x       y       z     vdW  Elec       q    Type
REMARK                         _______ _______ _______ _____ _____    ______ ____
ROOT
ATOM      1  C   UNL     1      -4.981  -2.629   0.035  0.00  0.00    +0.090 C 
ATOM      2  C   UNL     1      -4.856  -3.959  -0.721  0.00  0.00    +0.065 C 
ATOM      3  C   UNL     1      -4.404  -3.669  -2.154  0.00  0.00    +0.115 C 
ATOM      4  N   UNL     1      -5.245  -2.638  -2.756  0.00  0.00    -0.360 N 
ATOM      5  C   UNL     1      -5.975  -1.760  -2.020  0.00  0.00    +0.140 C 
ATOM      6  N   UNL     1      -5.994  -1.816  -0.654  0.00  0.00    -0.311 N 
ATOM      7  S   UNL     1      -6.863  -0.593  -2.797  0.00  0.00    -0.016 SA
ATOM      8  H   UNL     1      -6.663  -1.328  -0.149  0.00  0.00    +0.149 HD
ATOM      9  H   UNL     1      -5.284  -2.578  -3.723  0.00  0.00    +0.162 HD
ENDROOT
BRANCH   3  10
ATOM     10  C   UNL     1      -4.503  -4.931  -2.972  0.00  0.00    -0.007 A 
ATOM     11  C   UNL     1      -5.583  -5.128  -3.811  0.00  0.00    +0.007 A 
ATOM     12  C   UNL     1      -5.673  -6.285  -4.562  0.00  0.00    +0.000 A 
ATOM     13  C   UNL     1      -4.683  -7.246  -4.473  0.00  0.00    +0.001 A 
ATOM     14  C   UNL     1      -3.603  -7.050  -3.634  0.00  0.00    +0.020 A 
ATOM     15  C   UNL     1      -3.509  -5.889  -2.887  0.00  0.00    +0.046 A 
ATOM     16 CL   UNL     1      -2.149  -5.639  -1.838  0.00  0.00    -0.083 Cl
ENDBRANCH   3  10
BRANCH   1  20
ATOM     17  C   UNL     1      -1.226  -0.590   0.011  0.00  0.00    +0.120 A 
ATOM     18  C   UNL     1      -2.409   0.134   0.015  0.00  0.00    +0.046 A 
ATOM     19  C   UNL     1      -3.622  -0.528   0.022  0.00  0.00    +0.009 A 
ATOM     20  C   UNL     1      -3.657  -1.910   0.026  0.00  0.00    -0.019 A 
ATOM     21  C   UNL     1      -2.479  -2.634   0.023  0.00  0.00    +0.009 A 
ATOM     22  C   UNL     1      -1.263  -1.977   0.009  0.00  0.00    +0.046 A 
BRANCH  17  24
ATOM     23  C   UNL     1      -0.069   1.487   0.005  0.00  0.00    +0.277 C 
ATOM     24  O   UNL     1      -0.031   0.058   0.003  0.00  0.00    -0.495 OA
ENDBRANCH  17  24
ENDBRANCH   1  20
BRANCH   1  25
ATOM     25  C   UNL     1      -5.413  -2.887   1.456  0.00  0.00    +0.022 A 
ATOM     26  C   UNL     1      -4.608  -2.486   2.505  0.00  0.00    +0.013 A 
ATOM     27  C   UNL     1      -5.001  -2.720   3.809  0.00  0.00    +0.046 A 
ATOM     28  C   UNL     1      -6.206  -3.360   4.067  0.00  0.00    +0.120 A 
ATOM     29  C   UNL     1      -7.014  -3.764   3.016  0.00  0.00    +0.091 A 
ATOM     30  C   UNL     1      -6.620  -3.522   1.709  0.00  0.00    +0.126 A 
BRANCH  30  31
ATOM     31  O   UNL     1      -7.414  -3.911   0.676  0.00  0.00    -0.506 OA
ATOM     32  H   UNL     1      -7.235  -4.807   0.359  0.00  0.00    +0.292 HD
ENDBRANCH  30  31
BRANCH  28  33
ATOM     33  O   UNL     1      -6.592  -3.591   5.349  0.00  0.00    -0.507 OA
ATOM     34  H   UNL     1      -7.115  -2.877   5.738  0.00  0.00    +0.292 HD
ENDBRANCH  28  33
ENDBRANCH   1  25
TORSDOF 6
