REMARK  Name = ZINC09127096
REMARK  7 active torsions:
REMARK  status: ('A' for Active; 'I' for Inactive)
REMARK    1  A    between atoms: C_1  and  C_2
REMARK    2  A    between atoms: C_5  and  N_9
REMARK    3  A    between atoms: C_6  and  C_8
REMARK    4  A    between atoms: C_22  and  S_23
REMARK    5  A    between atoms: S_23  and  C_24
REMARK    6  A    between atoms: C_24  and  C_25
REMARK    7  A    between atoms: C_25  and  C_27
REMARK                            x       y       z     vdW  Elec       q    Type
REMARK                         _______ _______ _______ _____ _____    ______ ____
ROOT
ATOM      1  N   UNL     1      -1.061   2.218   0.019  0.00  0.00    -0.245 N 
ATOM      2  C   UNL     1      -0.823   3.546   0.030  0.00  0.00    +0.268 A 
ATOM      3  O   UNL     1      -1.746   4.339   0.043  0.00  0.00    -0.267 OA
ATOM      4  C   UNL     1       0.572   4.022   0.019  0.00  0.00    +0.064 A 
ATOM      5  C   UNL     1       0.872   5.383   0.024  0.00  0.00    +0.015 A 
ATOM      6  C   UNL     1       2.189   5.791   0.015  0.00  0.00    +0.001 A 
ATOM      7  C   UNL     1       3.212   4.855  -0.000  0.00  0.00    +0.002 A 
ATOM      8  C   UNL     1       2.928   3.504  -0.006  0.00  0.00    +0.027 A 
ATOM      9  C   UNL     1       1.609   3.075   0.004  0.00  0.00    +0.064 A 
ATOM     10  N   UNL     1       1.290   1.723  -0.001  0.00  0.00    -0.255 N 
ATOM     11  C   UNL     1      -0.016   1.308   0.009  0.00  0.00    +0.245 A 
ATOM     12  N   UNL     1       0.002  -0.004   0.002  0.00  0.00    -0.109 NA
ATOM     13  N   UNL     1       1.214  -0.430  -0.012  0.00  0.00    -0.120 NA
ATOM     14  C   UNL     1       2.048   0.583  -0.015  0.00  0.00    +0.198 A 
ENDROOT
BRANCH   1  19
ATOM     15  C   UNL     1      -6.412   0.333   0.032  0.00  0.00    +0.044 C 
ATOM     16  C   UNL     1      -4.991   0.834   0.028  0.00  0.00    -0.050 A 
ATOM     17  C   UNL     1      -4.335   1.056   1.225  0.00  0.00    +0.005 A 
ATOM     18  C   UNL     1      -3.031   1.510   1.226  0.00  0.00    +0.027 A 
ATOM     19  C   UNL     1      -2.381   1.754   0.022  0.00  0.00    +0.056 A 
ATOM     20  C   UNL     1      -3.043   1.529  -1.178  0.00  0.00    -0.026 A 
ATOM     21  C   UNL     1      -4.346   1.070  -1.172  0.00  0.00    +0.008 A 
ATOM     22  C   UNL     1      -2.340   1.786  -2.486  0.00  0.00    +0.046 C 
ENDBRANCH   1  19
BRANCH  14  23
ATOM     23  S   UNL     1       3.808   0.493  -0.032  0.00  0.00    -0.078 S 
BRANCH  23  24
ATOM     24  C   UNL     1       4.156  -1.287  -0.045  0.00  0.00    +0.157 C 
BRANCH  24  25
ATOM     25  C   UNL     1       5.647  -1.507  -0.061  0.00  0.00    +0.175 C 
ATOM     26  O   UNL     1       6.401  -0.555  -0.064  0.00  0.00    -0.291 OA
BRANCH  25  27
ATOM     27  C   UNL     1       6.169  -2.825  -0.073  0.00  0.00    +0.043 A 
ATOM     28  C   UNL     1       5.449  -4.000  -0.066  0.00  0.00    +0.095 A 
ATOM     29  N   UNL     1       6.294  -5.048  -0.085  0.00  0.00    -0.360 N 
ATOM     30  H   UNL     1       6.019  -5.979  -0.087  0.00  0.00    +0.165 HD
ATOM     31  C   UNL     1       7.605  -4.618  -0.096  0.00  0.00    +0.047 A 
ATOM     32  C   UNL     1       7.592  -3.214  -0.089  0.00  0.00    +0.010 A 
ATOM     33  C   UNL     1       8.789  -2.504  -0.098  0.00  0.00    +0.011 A 
ATOM     34  C   UNL     1       9.987  -3.185  -0.115  0.00  0.00    +0.001 A 
ATOM     35  C   UNL     1      10.002  -4.572  -0.121  0.00  0.00    +0.002 A 
ATOM     36  C   UNL     1       8.824  -5.287  -0.112  0.00  0.00    +0.026 A 
ENDBRANCH  25  27
ENDBRANCH  24  25
ENDBRANCH  23  24
ENDBRANCH  14  23
TORSDOF 5
