REMARK  Name = ZINC02620882
REMARK  11 active torsions:
REMARK  status: ('A' for Active; 'I' for Inactive)
REMARK    1  A    between atoms: C_1  and  C_2
REMARK    2  A    between atoms: C_2  and  C_24
REMARK    3  A    between atoms: N_5  and  C_9
REMARK    4  A    between atoms: C_9  and  C_10
REMARK    5  A    between atoms: N_12  and  C_13
REMARK    6  A    between atoms: C_16  and  O_19
REMARK    7  A    between atoms: O_19  and  C_20
REMARK    8  A    between atoms: C_27  and  C_30
REMARK    9  A    between atoms: C_30  and  C_31
REMARK   10  A    between atoms: C_30  and  C_32
REMARK   11  A    between atoms: C_30  and  C_33
REMARK                            x       y       z     vdW  Elec       q    Type
REMARK                         _______ _______ _______ _____ _____    ______ ____
ROOT
ATOM      1  C   UNL     1      -5.854   7.990   0.776  0.00  0.00    +0.047 C 
ATOM      2  C   UNL     1      -4.741   8.908   0.268  0.00  0.00    +0.135 C 
ATOM      3  C   UNL     1      -3.399   8.479   0.827  0.00  0.00    +0.251 C 
ATOM      4  O   UNL     1      -3.072   8.433   1.994  0.00  0.00    -0.272 OA
ATOM      5  N   UNL     1      -2.645   8.158  -0.242  0.00  0.00    -0.215 N 
ATOM      6  C   UNL     1      -3.315   8.327  -1.388  0.00  0.00    +0.310 C 
ATOM      7  O   UNL     1      -2.843   8.107  -2.486  0.00  0.00    -0.252 OA
ATOM      8  N   UNL     1      -4.571   8.765  -1.188  0.00  0.00    -0.281 N 
ATOM      9  H   UNL     1      -5.234   8.955  -1.870  0.00  0.00    +0.152 HD
ENDROOT
BRANCH   2  10
ATOM     10  C   UNL     1      -5.032  10.342   0.630  0.00  0.00    -0.015 A 
ATOM     11  C   UNL     1      -4.533  10.873   1.805  0.00  0.00    +0.006 A 
ATOM     12  C   UNL     1      -4.796  12.189   2.135  0.00  0.00    +0.004 A 
ATOM     13  C   UNL     1      -5.566  12.972   1.295  0.00  0.00    -0.042 A 
ATOM     14  C   UNL     1      -6.070  12.439   0.123  0.00  0.00    +0.004 A 
ATOM     15  C   UNL     1      -5.803  11.124  -0.209  0.00  0.00    +0.006 A 
BRANCH  13  16
ATOM     16  C   UNL     1      -5.858  14.405   1.657  0.00  0.00    -0.013 C 
ATOM     17  C   UNL     1      -7.370  14.603   1.780  0.00  0.00    +0.015 C 
ATOM     18  C   UNL     1      -5.189  14.740   2.992  0.00  0.00    +0.015 C 
ATOM     19  C   UNL     1      -5.310  15.328   0.567  0.00  0.00    +0.015 C 
ENDBRANCH  13  16
ENDBRANCH   2  10
BRANCH   5  20
ATOM     20  C   UNL     1      -1.260   7.687  -0.161  0.00  0.00    +0.214 C 
BRANCH  20  21
ATOM     21  C   UNL     1      -1.246   6.183  -0.055  0.00  0.00    +0.235 C 
ATOM     22  O   UNL     1      -2.290   5.566  -0.048  0.00  0.00    -0.274 OA
ATOM     23  N   UNL     1      -0.073   5.525   0.032  0.00  0.00    -0.284 N 
ATOM     24  H   UNL     1       0.758   6.021   0.104  0.00  0.00    +0.155 HD
BRANCH  23  25
ATOM     25  C   UNL     1      -0.053   4.124   0.019  0.00  0.00    +0.034 A 
ATOM     26  C   UNL     1      -0.993   3.423  -0.726  0.00  0.00    +0.027 A 
ATOM     27  C   UNL     1      -0.973   2.042  -0.738  0.00  0.00    +0.048 A 
ATOM     28  C   UNL     1      -0.016   1.356  -0.006  0.00  0.00    +0.130 A 
ATOM     29  C   UNL     1       0.920   2.055   0.743  0.00  0.00    +0.048 A 
ATOM     30  C   UNL     1       0.905   3.436   0.751  0.00  0.00    +0.027 A 
BRANCH  28  31
ATOM     31  O   UNL     1       0.003  -0.004  -0.018  0.00  0.00    -0.406 OA
BRANCH  31  32
ATOM     32  C   UNL     1       1.017  -0.646   0.758  0.00  0.00    +0.575 C 
ATOM     33  F   UNL     1       0.875  -0.284   2.102  0.00  0.00    -0.133 F 
ATOM     34  F   UNL     1       0.891  -2.034   0.632  0.00  0.00    -0.133 F 
ATOM     35  F   UNL     1       2.277  -0.248   0.298  0.00  0.00    -0.133 F 
ENDBRANCH  31  32
ENDBRANCH  28  31
ENDBRANCH  23  25
ENDBRANCH  20  21
ENDBRANCH   5  20
TORSDOF 7
