REMARK  Name = ZINC20238746
REMARK  5 active torsions:
REMARK  status: ('A' for Active; 'I' for Inactive)
REMARK    1  A    between atoms: C_1  and  C_2
REMARK    2  A    between atoms: C_5  and  N_32
REMARK    3  A    between atoms: C_7  and  C_8
REMARK    4  A    between atoms: C_11  and  C_13
REMARK    5  A    between atoms: C_23  and  C_25
REMARK                            x       y       z     vdW  Elec       q    Type
REMARK                         _______ _______ _______ _____ _____    ______ ____
ROOT
ATOM      1  C   UNL     1       1.245   2.390   4.766  0.00  0.00    +0.063 C 
ATOM      2  C   UNL     1       2.320   3.062   4.204  0.00  0.00    +0.084 C 
ATOM      3  C   UNL     1       2.769   2.794   2.811  0.00  0.00    +0.153 C 
ATOM      4  N   UNL     1       1.952   2.463   1.844  0.00  0.00    -0.283 NA
ATOM      5  N   UNL     1       4.163   2.932   2.635  0.00  0.00    -0.152 N 
ATOM      6  C   UNL     1       4.841   3.731   3.531  0.00  0.00    +0.181 C 
ATOM      7  N   UNL     1       4.361   4.314   4.600  0.00  0.00    -0.152 NA
ATOM      8  C   UNL     1       3.077   4.089   4.955  0.00  0.00    +0.273 C 
ATOM      9  O   UNL     1       2.557   4.709   5.869  0.00  0.00    -0.268 OA
ATOM     10  S   UNL     1       6.485   3.729   2.867  0.00  0.00    -0.033 S 
ATOM     11  C   UNL     1       6.191   2.597   1.514  0.00  0.00    +0.131 C 
ATOM     12  N   UNL     1       4.910   2.345   1.637  0.00  0.00    -0.164 NA
ATOM     13  H   UNL     1       0.994   2.485   1.990  0.00  0.00    +0.188 HD
ENDROOT
BRANCH  11  14
ATOM     14  C   UNL     1       7.149   2.078   0.513  0.00  0.00    +0.027 A 
ATOM     15  C   UNL     1       8.488   2.467   0.557  0.00  0.00    +0.012 A 
ATOM     16  C   UNL     1       9.376   1.980  -0.380  0.00  0.00    +0.001 A 
ATOM     17  C   UNL     1       8.941   1.107  -1.361  0.00  0.00    +0.001 A 
ATOM     18  C   UNL     1       7.615   0.717  -1.411  0.00  0.00    +0.020 A 
ATOM     19  C   UNL     1       6.717   1.193  -0.476  0.00  0.00    +0.051 A 
ATOM     20 CL   UNL     1       5.055   0.697  -0.535  0.00  0.00    -0.083 Cl
ENDBRANCH  11  14
BRANCH   1  24
ATOM     21  C   UNL     1       0.414  -0.365   2.674  0.00  0.00    +0.136 A 
ATOM     22  C   UNL     1      -0.620  -0.451   3.583  0.00  0.00    +0.050 A 
ATOM     23  C   UNL     1      -0.444   0.584   4.501  0.00  0.00    +0.050 A 
ATOM     24  C   UNL     1       0.699   1.270   4.117  0.00  0.00    +0.129 A 
ATOM     25  O   UNL     1       1.199   0.672   3.014  0.00  0.00    -0.455 OA
BRANCH  21  32
ATOM     26  C   UNL     1       0.889   0.757   0.049  0.00  0.00    +0.044 C 
ATOM     27  C   UNL     1       0.857  -0.736   0.252  0.00  0.00    -0.040 A 
ATOM     28  C   UNL     1       1.060  -1.583  -0.817  0.00  0.00    +0.006 A 
ATOM     29  C   UNL     1       1.031  -2.954  -0.633  0.00  0.00    +0.033 A 
ATOM     30  C   UNL     1       0.798  -3.485   0.624  0.00  0.00    +0.127 A 
ATOM     31  C   UNL     1       0.594  -2.651   1.702  0.00  0.00    +0.044 A 
ATOM     32  C   UNL     1       0.627  -1.265   1.524  0.00  0.00    +0.022 A 
BRANCH  30  33
ATOM     33  N   UNL     1       0.769  -4.953   0.810  0.00  0.00    +0.056 N 
ATOM     34  O   UNL     1       0.949  -5.687  -0.134  0.00  0.00    -0.126 OA
ATOM     35  O   UNL     1       0.566  -5.419   1.907  0.00  0.00    -0.126 OA
ENDBRANCH  30  33
ENDBRANCH  21  32
ENDBRANCH   1  24
TORSDOF 4
