REMARK  Name = ZINC39214936
REMARK  5 active torsions:
REMARK  status: ('A' for Active; 'I' for Inactive)
REMARK    1  A    between atoms: C_4  and  C_7
REMARK    2  A    between atoms: C_17  and  S_19
REMARK    3  A    between atoms: S_19  and  C_20
REMARK    4  A    between atoms: C_23  and  C_31
REMARK    5  A    between atoms: N_24  and  C_25
REMARK                            x       y       z     vdW  Elec       q    Type
REMARK                         _______ _______ _______ _____ _____    ______ ____
ROOT
ATOM      1  C   UNL     1       3.447  -0.604  -0.153  0.00  0.00    -0.009 C 
ATOM      2  C   UNL     1       4.565   0.163  -0.495  0.00  0.00    +0.003 A 
ATOM      3  C   UNL     1       4.478   1.569  -0.573  0.00  0.00    +0.030 A 
ATOM      4  C   UNL     1       5.582   2.292  -0.908  0.00  0.00    +0.042 A 
ATOM      5  C   UNL     1       6.800   1.670  -1.177  0.00  0.00    +0.022 A 
ATOM      6  C   UNL     1       6.945   0.317  -1.117  0.00  0.00    +0.025 A 
ATOM      7  C   UNL     1       5.846  -0.492  -0.777  0.00  0.00    +0.041 A 
ATOM      8  N   UNL     1       5.991  -1.821  -0.719  0.00  0.00    -0.284 N 
ATOM      9  C   UNL     1       5.012  -2.647  -0.409  0.00  0.00    +0.235 C 
ATOM     10  O   UNL     1       5.216  -3.847  -0.376  0.00  0.00    -0.274 OA
ATOM     11  C   UNL     1       3.637  -2.107  -0.088  0.00  0.00    +0.171 C 
ATOM     12 CL   UNL     1       5.469   4.021  -1.004  0.00  0.00    -0.084 Cl
ATOM     13  H   UNL     1       6.864  -2.196  -0.916  0.00  0.00    +0.155 HD
ENDROOT
BRANCH   1  17
ATOM     14  C   UNL     1      -0.258   1.171   0.669  0.00  0.00    +0.000 A 
ATOM     15  C   UNL     1       0.288   1.275  -0.600  0.00  0.00    +0.001 A 
ATOM     16  C   UNL     1       1.505   0.696  -0.880  0.00  0.00    +0.008 A 
ATOM     17  C   UNL     1       2.194  -0.003   0.125  0.00  0.00    -0.020 A 
ATOM     18  C   UNL     1       1.632  -0.102   1.409  0.00  0.00    +0.008 A 
ATOM     19  C   UNL     1       0.413   0.485   1.669  0.00  0.00    +0.001 A 
ENDBRANCH   1  17
BRANCH  11  20
ATOM     20  S   UNL     1       2.463  -2.868  -1.242  0.00  0.00    -0.068 S 
BRANCH  20  21
ATOM     21  C   UNL     1       2.665  -4.598  -0.978  0.00  0.00    +0.193 A 
ATOM     22  N   UNL     1       3.487  -5.165  -0.123  0.00  0.00    -0.122 NA
ATOM     23  N   UNL     1       3.378  -6.444  -0.189  0.00  0.00    -0.128 NA
ATOM     24  C   UNL     1       2.481  -6.772  -1.089  0.00  0.00    +0.167 A 
ATOM     25  N   UNL     1       1.993  -5.599  -1.618  0.00  0.00    -0.299 N 
BRANCH  25  26
ATOM     26  C   UNL     1       0.968  -5.455  -2.655  0.00  0.00    +0.091 C 
ATOM     27  C   UNL     1       1.580  -4.785  -3.887  0.00  0.00    +0.025 C 
ATOM     28  C   UNL     1       0.509  -4.634  -4.970  0.00  0.00    +0.002 C 
ATOM     29  C   UNL     1      -0.638  -3.773  -4.437  0.00  0.00    +0.000 C 
ATOM     30  C   UNL     1      -1.249  -4.444  -3.205  0.00  0.00    +0.002 C 
ATOM     31  C   UNL     1      -0.179  -4.594  -2.123  0.00  0.00    +0.025 C 
ENDBRANCH  25  26
BRANCH  24  32
ATOM     32  C   UNL     1       2.070  -8.142  -1.461  0.00  0.00    +0.037 A 
ATOM     33  C   UNL     1       1.659  -8.432  -2.768  0.00  0.00    +0.014 A 
ATOM     34  C   UNL     1       1.284  -9.730  -3.065  0.00  0.00    +0.020 A 
ATOM     35  C   UNL     1       1.327 -10.692  -2.071  0.00  0.00    +0.111 A 
ATOM     36  N   UNL     1       1.720 -10.390  -0.848  0.00  0.00    -0.263 NA
ATOM     37  C   UNL     1       2.091  -9.170  -0.518  0.00  0.00    +0.122 A 
ENDBRANCH  24  32
ENDBRANCH  20  21
ENDBRANCH  11  20
TORSDOF 5
