REMARK  Name = ZINC08597796
REMARK  9 active torsions:
REMARK  status: ('A' for Active; 'I' for Inactive)
REMARK    1  A    between atoms: C_1  and  C_2
REMARK    2  A    between atoms: C_2  and  C_3
REMARK    3  A    between atoms: C_6  and  C_9
REMARK    4  A    between atoms: C_11  and  C_15
REMARK    5  A    between atoms: C_12  and  C_14
REMARK    6  A    between atoms: C_15  and  N_16
REMARK    7  A    between atoms: C_20  and  C_23
REMARK    8  A    between atoms: N_28  and  C_31
REMARK    9  A    between atoms: C_36  and  C_37
REMARK                            x       y       z     vdW  Elec       q    Type
REMARK                         _______ _______ _______ _____ _____    ______ ____
ROOT
ATOM      1  N   UNL     1       5.788  -4.370  -6.419  0.00  0.00    +0.384 N 
ATOM      2  C   UNL     1       5.855  -4.640  -4.978  0.00  0.00    -0.078 C 
ATOM      3  C   UNL     1       6.016  -6.144  -4.744  0.00  0.00    -0.018 C 
ATOM      4  C   UNL     1       7.306  -6.624  -5.416  0.00  0.00    +0.009 C 
ATOM      5  C   UNL     1       7.256  -6.271  -6.905  0.00  0.00    +0.059 C 
ATOM      6  C   UNL     1       7.049  -4.762  -7.059  0.00  0.00    -0.066 C 
ATOM      7  H   UNL     1       5.029  -4.898  -6.823  0.00  0.00    -0.081 HD
ENDROOT
BRANCH   5   8
ATOM      8  C   UNL     1       8.553  -6.671  -7.561  0.00  0.00    +0.217 C 
ATOM      9  O   UNL     1       9.595  -6.586  -6.947  0.00  0.00    -0.275 OA
ATOM     10  N   UNL     1       8.554  -7.124  -8.830  0.00  0.00    -0.298 N 
ATOM     11  C   UNL     1       7.320  -7.115  -9.629  0.00  0.00    +0.126 C 
ATOM     12  C   UNL     1       7.582  -6.341 -10.927  0.00  0.00    +0.124 C 
ATOM     13  N   UNL     1       8.817  -6.852 -11.537  0.00  0.00    -0.327 N 
ATOM     14  C   UNL     1      10.051  -6.860 -10.739  0.00  0.00    +0.124 C 
ATOM     15  C   UNL     1       9.791  -7.629  -9.443  0.00  0.00    +0.126 C 
BRANCH  13  16
ATOM     16  C   UNL     1       8.818  -7.321 -12.853  0.00  0.00    +0.034 A 
ATOM     17  C   UNL     1       9.087  -6.451 -13.902  0.00  0.00    +0.043 A 
ATOM     18  C   UNL     1       9.087  -6.919 -15.202  0.00  0.00    +0.043 A 
ATOM     19  C   UNL     1       8.821  -8.253 -15.459  0.00  0.00    +0.020 A 
ATOM     20  C   UNL     1       8.553  -9.121 -14.417  0.00  0.00    +0.006 A 
ATOM     21  C   UNL     1       8.557  -8.660 -13.114  0.00  0.00    -0.029 A 
ATOM     22  C   UNL     1       8.272  -9.609 -11.978  0.00  0.00    +0.045 C 
ATOM     23 CL   UNL     1       9.422  -5.833 -16.515  0.00  0.00    -0.083 Cl
ENDBRANCH  13  16
ENDBRANCH   5   8
BRANCH   1  24
ATOM     24  C   UNL     1       5.555  -2.936  -6.637  0.00  0.00    -0.019 C 
BRANCH  24  27
ATOM     25  C   UNL     1       2.661  -1.904  -4.732  0.00  0.00    +0.228 A 
ATOM     26  N   UNL     1       3.947  -2.139  -4.839  0.00  0.00    -0.216 NA
ATOM     27  C   UNL     1       4.204  -2.558  -6.088  0.00  0.00    +0.066 A 
ATOM     28  C   UNL     1       3.040  -2.578  -6.763  0.00  0.00    +0.124 A 
ATOM     29  O   UNL     1       2.076  -2.175  -5.911  0.00  0.00    -0.440 OA
ATOM     30  C   UNL     1       2.849  -2.983  -8.202  0.00  0.00    +0.088 C 
BRANCH  25  34
ATOM     31  C   UNL     1       0.674  -0.535  -1.236  0.00  0.00    -0.048 A 
ATOM     32  C   UNL     1      -0.050  -0.775  -2.390  0.00  0.00    +0.004 A 
ATOM     33  C   UNL     1       0.589  -1.220  -3.529  0.00  0.00    +0.013 A 
ATOM     34  C   UNL     1       1.969  -1.427  -3.515  0.00  0.00    +0.037 A 
ATOM     35  C   UNL     1       2.694  -1.182  -2.348  0.00  0.00    +0.013 A 
ATOM     36  C   UNL     1       2.043  -0.733  -1.217  0.00  0.00    +0.004 A 
BRANCH  31  38
ATOM     37  C   UNL     1      -0.067   1.480   0.005  0.00  0.00    +0.009 C 
ATOM     38  C   UNL     1      -0.031  -0.050   0.004  0.00  0.00    +0.032 C 
ENDBRANCH  31  38
ENDBRANCH  25  34
ENDBRANCH  24  27
ENDBRANCH   1  24
TORSDOF 6
