REMARK  Name = ZINC21671142
REMARK  9 active torsions:
REMARK  status: ('A' for Active; 'I' for Inactive)
REMARK    1  A    between atoms: C_1  and  C_2
REMARK    2  A    between atoms: C_2  and  C_4
REMARK    3  A    between atoms: C_2  and  S_16
REMARK    4  A    between atoms: N_6  and  C_7
REMARK    5  A    between atoms: S_16  and  C_17
REMARK    6  A    between atoms: C_20  and  C_23
REMARK    7  A    between atoms: N_21  and  N_22
REMARK    8  A    between atoms: C_26  and  O_29
REMARK    9  A    between atoms: O_29  and  C_30
REMARK                            x       y       z     vdW  Elec       q    Type
REMARK                         _______ _______ _______ _____ _____    ______ ____
ROOT
ATOM      1  C   UNL     1      -1.117   2.158   0.057  0.00  0.00    +0.209 A 
ATOM      2  N   UNL     1      -0.682   3.398   0.067  0.00  0.00    -0.121 NA
ATOM      3  N   UNL     1       0.603   3.415   0.065  0.00  0.00    -0.127 NA
ATOM      4  C   UNL     1       1.067   2.187   0.059  0.00  0.00    +0.182 A 
ATOM      5  N   UNL     1      -0.020   1.344   0.057  0.00  0.00    -0.224 N 
ENDROOT
BRANCH   4   6
ATOM      6  C   UNL     1       2.490   1.786   0.055  0.00  0.00    +0.021 A 
ATOM      7  C   UNL     1       2.848   0.473   0.367  0.00  0.00    +0.015 A 
ATOM      8  C   UNL     1       4.176   0.102   0.358  0.00  0.00    +0.046 A 
ATOM      9  C   UNL     1       5.157   1.035   0.048  0.00  0.00    +0.127 A 
ATOM     10  C   UNL     1       4.805   2.343  -0.257  0.00  0.00    +0.046 A 
ATOM     11  C   UNL     1       3.480   2.721  -0.255  0.00  0.00    +0.015 A 
BRANCH   9  12
ATOM     12  O   UNL     1       6.465   0.666   0.044  0.00  0.00    -0.434 OA
BRANCH  12  13
ATOM     13  C   UNL     1       6.756  -0.695   0.368  0.00  0.00    +0.541 C 
ATOM     14  F   UNL     1       6.289  -0.979   1.655  0.00  0.00    -0.166 F 
ATOM     15  F   UNL     1       6.125  -1.538  -0.553  0.00  0.00    -0.166 F 
ENDBRANCH  12  13
ENDBRANCH   9  12
ENDBRANCH   4   6
BRANCH   5  16
ATOM     16  N   UNL     1      -0.005  -0.022   0.051  0.00  0.00    -0.295 N 
ATOM     17  H   UNL     1       0.953  -0.561   0.052  0.00  0.00    +0.163 HD
ATOM     18  H   UNL     1      -0.952  -0.582   0.045  0.00  0.00    +0.163 HD
ENDBRANCH   5  16
BRANCH   1  19
ATOM     19  S   UNL     1      -2.802   1.642   0.049  0.00  0.00    -0.072 S 
BRANCH  19  21
ATOM     20  C   UNL     1      -3.310   3.990  -1.250  0.00  0.00    +0.029 C 
ATOM     21  C   UNL     1      -3.625   3.254   0.053  0.00  0.00    +0.137 C 
BRANCH  21  22
ATOM     22  C   UNL     1      -5.114   3.057   0.171  0.00  0.00    +0.230 C 
ATOM     23  O   UNL     1      -5.609   1.987  -0.115  0.00  0.00    -0.274 OA
ATOM     24  N   UNL     1      -5.897   4.070   0.594  0.00  0.00    -0.282 N 
ATOM     25  H   UNL     1      -5.442   5.016   0.922  0.00  0.00    +0.155 HD
BRANCH  24  26
ATOM     26  C   UNL     1      -7.290   3.917   0.615  0.00  0.00    +0.072 A 
ATOM     27  C   UNL     1      -7.850   2.683   0.914  0.00  0.00    +0.029 A 
ATOM     28  C   UNL     1      -9.223   2.534   0.936  0.00  0.00    +0.043 A 
ATOM     29  C   UNL     1     -10.043   3.614   0.659  0.00  0.00    +0.161 A 
ATOM     30  C   UNL     1      -9.489   4.849   0.358  0.00  0.00    +0.195 A 
ATOM     31  C   UNL     1      -8.112   5.004   0.341  0.00  0.00    +0.182 A 
ATOM     32  F   UNL     1      -7.571   6.208   0.055  0.00  0.00    -0.200 F 
ATOM     33  F   UNL     1     -10.290   5.902   0.087  0.00  0.00    -0.199 F 
ATOM     34  F   UNL     1     -11.386   3.465   0.681  0.00  0.00    -0.202 F 
ENDBRANCH  24  26
ENDBRANCH  21  22
ENDBRANCH  19  21
ENDBRANCH   1  19
TORSDOF 8
