REMARK  Name = ZINC35707165
REMARK  7 active torsions:
REMARK  status: ('A' for Active; 'I' for Inactive)
REMARK    1  A    between atoms: C_1  and  C_2
REMARK    2  A    between atoms: C_6  and  C_8
REMARK    3  A    between atoms: C_22  and  C_24
REMARK    4  A    between atoms: C_24  and  N_25
REMARK    5  A    between atoms: N_25  and  C_26
REMARK    6  A    between atoms: N_31  and  C_32
REMARK    7  A    between atoms: C_36  and  C_38
REMARK                            x       y       z     vdW  Elec       q    Type
REMARK                         _______ _______ _______ _____ _____    ______ ____
ROOT
ATOM      1  C   UNL     1      -0.237  -0.777   3.585  0.00  0.00    +0.159 C 
ATOM      2  C   UNL     1       1.230  -0.995   3.867  0.00  0.00    +0.049 A 
ATOM      3  C   UNL     1       2.001  -0.466   4.823  0.00  0.00    +0.025 A 
ATOM      4  C   UNL     1       3.303  -0.988   4.652  0.00  0.00    +0.020 A 
ATOM      5  C   UNL     1       3.270  -1.824   3.589  0.00  0.00    +0.092 A 
ATOM      6  N   UNL     1       2.006  -1.839   3.103  0.00  0.00    -0.316 N 
ATOM      7  C   UNL     1       1.461  -2.551   2.024  0.00  0.00    +0.068 A 
ATOM      8  C   UNL     1       2.258  -3.193   1.097  0.00  0.00    +0.028 A 
ATOM      9  C   UNL     1       1.674  -3.875   0.044  0.00  0.00    +0.002 A 
ATOM     10  C   UNL     1       0.297  -3.911  -0.081  0.00  0.00    +0.002 A 
ATOM     11  C   UNL     1      -0.507  -3.273   0.845  0.00  0.00    +0.025 A 
ATOM     12  C   UNL     1       0.068  -2.592   1.907  0.00  0.00    +0.061 A 
ATOM     13  N   UNL     1      -0.737  -1.961   2.867  0.00  0.00    -0.255 N 
ATOM     14  C   UNL     1      -1.969  -2.438   3.134  0.00  0.00    +0.238 C 
ATOM     15  O   UNL     1      -2.412  -3.367   2.491  0.00  0.00    -0.273 OA
ENDROOT
BRANCH   1  21
ATOM     16  C   UNL     1      -1.402   4.071   3.154  0.00  0.00    +0.044 C 
ATOM     17  C   UNL     1      -0.973   2.771   2.524  0.00  0.00    -0.050 A 
ATOM     18  C   UNL     1      -0.743   2.705   1.162  0.00  0.00    +0.003 A 
ATOM     19  C   UNL     1      -0.350   1.513   0.585  0.00  0.00    +0.001 A 
ATOM     20  C   UNL     1      -0.186   0.386   1.369  0.00  0.00    +0.006 A 
ATOM     21  C   UNL     1      -0.415   0.452   2.730  0.00  0.00    -0.021 A 
ATOM     22  C   UNL     1      -0.804   1.646   3.308  0.00  0.00    +0.009 A 
ENDBRANCH   1  21
BRANCH  14  23
ATOM     23  C   UNL     1      -2.797  -1.818   4.230  0.00  0.00    +0.205 C 
BRANCH  23  24
ATOM     24  N   UNL     1      -4.026  -2.594   4.413  0.00  0.00    -0.274 N 
ATOM     25  C   UNL     1      -5.132  -2.280   3.709  0.00  0.00    +0.307 C 
ATOM     26  O   UNL     1      -5.139  -1.296   2.996  0.00  0.00    -0.252 OA
ATOM     27  N   UNL     1      -6.229  -3.058   3.796  0.00  0.00    -0.269 N 
ATOM     28  H   UNL     1      -6.260  -3.783   4.440  0.00  0.00    +0.156 HD
BRANCH  27  29
ATOM     29  C   UNL     1      -7.324  -2.819   2.958  0.00  0.00    +0.036 A 
ATOM     30  C   UNL     1      -7.121  -2.356   1.664  0.00  0.00    +0.023 A 
ATOM     31  C   UNL     1      -8.199  -2.118   0.832  0.00  0.00    +0.003 A 
ATOM     32  C   UNL     1      -9.485  -2.339   1.281  0.00  0.00    +0.019 A 
ATOM     33  C   UNL     1      -9.700  -2.805   2.580  0.00  0.00    +0.054 A 
ATOM     34  C   UNL     1      -8.611  -3.050   3.417  0.00  0.00    +0.042 A 
BRANCH  33  35
ATOM     35  C   UNL     1     -11.034  -3.035   3.049  0.00  0.00    +0.099 C 
ATOM     36  N   UNL     1     -12.091  -3.218   3.420  0.00  0.00    -0.191 NA
ENDBRANCH  33  35
ENDBRANCH  27  29
BRANCH  24  37
ATOM     37  C   UNL     1      -4.053  -3.712   5.360  0.00  0.00    +0.078 C 
ATOM     38  C   UNL     1      -2.880  -3.840   6.334  0.00  0.00    +0.024 C 
ATOM     39  C   UNL     1      -3.018  -4.823   5.170  0.00  0.00    +0.024 C 
ENDBRANCH  24  37
ENDBRANCH  23  24
ENDBRANCH  14  23
TORSDOF 6
