REMARK  Name = ZINC35560661
REMARK  13 active torsions:
REMARK  status: ('A' for Active; 'I' for Inactive)
REMARK    1  A    between atoms: C_1  and  C_2
REMARK    2  A    between atoms: C_2  and  C_3
REMARK    3  A    between atoms: C_12  and  C_13
REMARK    4  A    between atoms: C_13  and  C_15
REMARK    5  A    between atoms: C_13  and  C_30
REMARK    6  A    between atoms: C_15  and  C_16
REMARK    7  A    between atoms: C_20  and  C_29
REMARK    8  A    between atoms: C_25  and  C_27
REMARK    9  A    between atoms: C_25  and  C_28
REMARK   10  A    between atoms: C_34  and  O_38
REMARK   11  A    between atoms: C_35  and  O_36
REMARK   12  A    between atoms: O_36  and  C_37
REMARK   13  A    between atoms: O_38  and  C_39
REMARK                            x       y       z     vdW  Elec       q    Type
REMARK                         _______ _______ _______ _____ _____    ______ ____
ROOT
ATOM      1  C   UNL     1       5.109  -1.899  -2.409  0.00  0.00    +0.063 C 
ENDROOT
BRANCH   1  11
ATOM      2  C   UNL     1       4.180   1.640   1.021  0.00  0.00    -0.024 A 
ATOM      3  C   UNL     1       2.863   1.881   0.696  0.00  0.00    +0.005 A 
ATOM      4  C   UNL     1       2.249   1.183  -0.335  0.00  0.00    +0.001 A 
ATOM      5  C   UNL     1       2.942   0.244  -1.046  0.00  0.00    +0.010 A 
ATOM      6  C   UNL     1       4.278  -0.016  -0.734  0.00  0.00    +0.004 A 
ATOM      7  C   UNL     1       4.906   0.693   0.307  0.00  0.00    +0.050 A 
ATOM      8  N   UNL     1       6.203   0.238   0.383  0.00  0.00    -0.360 N 
ATOM      9  H   UNL     1       6.867   0.551   1.017  0.00  0.00    +0.165 HD
ATOM     10  C   UNL     1       6.416  -0.722  -0.569  0.00  0.00    +0.088 A 
ATOM     11  C   UNL     1       5.291  -0.927  -1.272  0.00  0.00    -0.014 A 
BRANCH   2  13
ATOM     12  C   UNL     1       5.571   3.618   1.571  0.00  0.00    +0.009 C 
ATOM     13  C   UNL     1       4.833   2.405   2.143  0.00  0.00    +0.034 C 
ENDBRANCH   2  13
ENDBRANCH   1  11
BRANCH   1  14
ATOM     14  C   UNL     1       5.368  -3.300  -1.918  0.00  0.00    +0.006 A 
ATOM     15  C   UNL     1       6.647  -3.680  -1.553  0.00  0.00    +0.008 A 
ATOM     16  C   UNL     1       6.888  -4.964  -1.103  0.00  0.00    +0.004 A 
ATOM     17  C   UNL     1       5.851  -5.875  -1.014  0.00  0.00    +0.049 A 
ATOM     18  C   UNL     1       4.568  -5.501  -1.378  0.00  0.00    +0.162 A 
ATOM     19  C   UNL     1       4.324  -4.206  -1.826  0.00  0.00    +0.165 A 
BRANCH  19  20
ATOM     20  O   UNL     1       3.065  -3.833  -2.179  0.00  0.00    -0.491 OA
ATOM     21  C   UNL     1       2.638  -4.161  -3.502  0.00  0.00    +0.277 C 
ENDBRANCH  19  20
BRANCH  18  22
ATOM     22  O   UNL     1       3.547  -6.396  -1.292  0.00  0.00    -0.491 OA
ATOM     23  C   UNL     1       3.870  -7.705  -0.818  0.00  0.00    +0.277 C 
ENDBRANCH  18  22
ENDBRANCH   1  14
BRANCH   1  24
ATOM     24  C   UNL     1       6.093  -1.562  -3.531  0.00  0.00    +0.109 C 
BRANCH  24  25
ATOM     25  C   UNL     1       6.036  -2.635  -4.588  0.00  0.00    +0.217 C 
ATOM     26  O   UNL     1       5.348  -3.618  -4.417  0.00  0.00    -0.276 OA
ATOM     27  N   UNL     1       6.751  -2.500  -5.723  0.00  0.00    -0.298 N 
ATOM     28  C   UNL     1       7.634  -1.373  -6.056  0.00  0.00    +0.114 C 
ATOM     29  C   UNL     1       8.181  -1.651  -7.475  0.00  0.00    -0.014 C 
ATOM     30  C   UNL     1       8.151  -3.202  -7.540  0.00  0.00    +0.030 C 
ATOM     31  C   UNL     1       6.793  -3.464  -6.841  0.00  0.00    +0.077 C 
ATOM     32  C   UNL     1       5.695  -3.119  -7.843  0.00  0.00    +0.029 C 
ATOM     33  C   UNL     1       5.787  -1.709  -8.397  0.00  0.00    -0.033 C 
ATOM     34  C   UNL     1       7.183  -1.127  -8.505  0.00  0.00    +0.014 C 
ATOM     35  C   UNL     1       5.192  -1.740  -9.827  0.00  0.00    +0.011 C 
ATOM     36  C   UNL     1       4.890  -0.771  -7.576  0.00  0.00    +0.011 C 
ATOM     37  C   UNL     1       9.595  -1.084  -7.676  0.00  0.00    +0.013 C 
ENDBRANCH  24  25
ENDBRANCH   1  24
TORSDOF 7
