REMARK  Name = ZINC49486163
REMARK  7 active torsions:
REMARK  status: ('A' for Active; 'I' for Inactive)
REMARK    1  A    between atoms: C_5  and  C_7
REMARK    2  A    between atoms: C_8  and  C_9
REMARK    3  A    between atoms: N_11  and  C_12
REMARK    4  A    between atoms: C_12  and  C_13
REMARK    5  A    between atoms: C_13  and  C_15
REMARK    6  A    between atoms: C_13  and  N_20
REMARK    7  A    between atoms: N_23  and  C_26
REMARK                            x       y       z     vdW  Elec       q    Type
REMARK                         _______ _______ _______ _____ _____    ______ ____
ROOT
ATOM      1  C   UNL     1      -2.235  -7.009  -0.157  0.00  0.00    +0.017 C 
ENDROOT
BRANCH   1   2
ATOM      2  N   UNL     1      -3.225  -6.615   0.855  0.00  0.00    +0.389 N 
ATOM      3  C   UNL     1      -2.819  -7.140   2.164  0.00  0.00    -0.059 C 
ATOM      4  C   UNL     1      -3.788  -6.635   3.239  0.00  0.00    +0.086 C 
ATOM      5  N   UNL     1      -5.157  -6.995   2.839  0.00  0.00    -0.333 N 
ATOM      6  C   UNL     1      -5.594  -6.650   1.477  0.00  0.00    +0.086 C 
ATOM      7  C   UNL     1      -4.540  -7.155   0.486  0.00  0.00    -0.059 C 
ATOM      8  H   UNL     1      -3.276  -5.609   0.900  0.00  0.00    -0.081 HD
BRANCH   5   9
ATOM      9  C   UNL     1      -6.018  -7.646   3.727  0.00  0.00    +0.030 A 
ATOM     10  C   UNL     1      -5.630  -7.854   5.045  0.00  0.00    +0.026 A 
ATOM     11  C   UNL     1      -6.483  -8.497   5.921  0.00  0.00    +0.040 A 
ATOM     12  C   UNL     1      -7.723  -8.934   5.487  0.00  0.00    +0.124 A 
ATOM     13  C   UNL     1      -8.111  -8.727   4.174  0.00  0.00    +0.040 A 
ATOM     14  C   UNL     1      -7.264  -8.080   3.295  0.00  0.00    +0.026 A 
ATOM     15  F   UNL     1      -8.555  -9.562   6.345  0.00  0.00    -0.205 F 
ENDBRANCH   5   9
ENDBRANCH   1   2
BRANCH   1  16
ATOM     16  C   UNL     1      -2.227  -8.509  -0.295  0.00  0.00    +0.093 A 
ATOM     17  C   UNL     1      -2.294  -9.193  -1.451  0.00  0.00    +0.043 A 
ATOM     18  C   UNL     1      -2.257 -10.567  -1.118  0.00  0.00    +0.041 A 
ATOM     19  C   UNL     1      -2.170 -10.640   0.223  0.00  0.00    +0.195 A 
ATOM     20  O   UNL     1      -2.147  -9.391   0.715  0.00  0.00    -0.469 OA
ENDBRANCH   1  16
BRANCH   1  21
ATOM     21  C   UNL     1      -0.848  -6.529   0.274  0.00  0.00    +0.097 C 
BRANCH  21  24
ATOM     22  C   UNL     1       0.211  -4.447   0.969  0.00  0.00    +0.237 C 
ATOM     23  O   UNL     1       1.214  -5.082   1.238  0.00  0.00    -0.271 OA
ATOM     24  N   UNL     1      -0.875  -5.079   0.480  0.00  0.00    -0.313 N 
ATOM     25  H   UNL     1      -1.674  -4.573   0.266  0.00  0.00    +0.149 HD
BRANCH  22  27
ATOM     26  C   UNL     1       1.270  -2.367   1.665  0.00  0.00    +0.014 C 
ATOM     27  C   UNL     1       0.184  -2.998   1.176  0.00  0.00    +0.068 C 
BRANCH  26  32
ATOM     28  C   UNL     1       0.074   1.187   1.761  0.00  0.00    +0.001 A 
ATOM     29  C   UNL     1       1.192   1.833   2.263  0.00  0.00    +0.001 A 
ATOM     30  C   UNL     1       2.334   1.116   2.571  0.00  0.00    +0.020 A 
ATOM     31  C   UNL     1       2.368  -0.251   2.380  0.00  0.00    +0.048 A 
ATOM     32  C   UNL     1       1.243  -0.910   1.873  0.00  0.00    -0.007 A 
ATOM     33  C   UNL     1       0.092  -0.177   1.564  0.00  0.00    +0.009 A 
ATOM     34 CL   UNL     1       3.803  -1.148   2.766  0.00  0.00    -0.083 Cl
ENDBRANCH  26  32
ENDBRANCH  22  27
ENDBRANCH  21  24
ENDBRANCH   1  21
TORSDOF 7
