REMARK  Name = ZINC20898709
REMARK  9 active torsions:
REMARK  status: ('A' for Active; 'I' for Inactive)
REMARK    1  A    between atoms: C_1  and  C_2
REMARK    2  A    between atoms: C_5  and  N_9
REMARK    3  A    between atoms: C_12  and  C_14
REMARK    4  A    between atoms: C_15  and  C_22
REMARK    5  A    between atoms: C_25  and  O_30
REMARK    6  A    between atoms: C_26  and  O_28
REMARK    7  A    between atoms: O_28  and  C_29
REMARK    8  A    between atoms: O_30  and  C_31
REMARK    9  A    between atoms: C_31  and  C_32
REMARK                            x       y       z     vdW  Elec       q    Type
REMARK                         _______ _______ _______ _____ _____    ______ ____
ROOT
ATOM      1  N   UNL     1       6.031   1.401  -2.696  0.00  0.00    -0.218 N 
ATOM      2  C   UNL     1       5.798   1.612  -1.355  0.00  0.00    +0.133 A 
ATOM      3  C   UNL     1       4.461   1.547  -1.172  0.00  0.00    +0.033 A 
ATOM      4  C   UNL     1       3.865   1.295  -2.426  0.00  0.00    +0.067 A 
ATOM      5  N   UNL     1       4.802   1.210  -3.327  0.00  0.00    -0.170 NA
ATOM      6  C   UNL     1       2.387   1.148  -2.681  0.00  0.00    +0.068 C 
ATOM      7  C   UNL     1       3.648   1.696   0.076  0.00  0.00    +0.112 C 
ATOM      8  S   UNL     1       4.473   1.060   1.538  0.00  0.00    -0.138 S 
ATOM      9  C   UNL     1       5.874   2.149   1.829  0.00  0.00    +0.166 C 
ATOM     10  C   UNL     1       6.929   2.017   0.802  0.00  0.00    +0.228 C 
ATOM     11  O   UNL     1       8.063   2.086   1.225  0.00  0.00    -0.275 OA
ATOM     12  N   UNL     1       6.833   1.839  -0.481  0.00  0.00    -0.269 N 
ATOM     13  H   UNL     1       7.865   1.901  -0.856  0.00  0.00    +0.156 HD
ENDROOT
BRANCH   1  18
ATOM     14  C   UNL     1      11.113   1.328  -5.223  0.00  0.00    +0.045 C 
ATOM     15  C   UNL     1       9.764   1.347  -4.552  0.00  0.00    -0.032 A 
ATOM     16  C   UNL     1       8.691   1.958  -5.176  0.00  0.00    +0.007 A 
ATOM     17  C   UNL     1       7.452   1.973  -4.566  0.00  0.00    +0.028 A 
ATOM     18  C   UNL     1       7.286   1.383  -3.320  0.00  0.00    +0.069 A 
ATOM     19  C   UNL     1       8.364   0.771  -2.695  0.00  0.00    +0.048 A 
ATOM     20  C   UNL     1       9.600   0.754  -3.312  0.00  0.00    +0.046 A 
ATOM     21 CL   UNL     1      10.949  -0.011  -2.532  0.00  0.00    -0.083 Cl
ENDBRANCH   1  18
BRANCH   7  22
ATOM     22  C   UNL     1       2.346   0.958  -0.104  0.00  0.00    -0.026 A 
ATOM     23  C   UNL     1       2.335  -0.424  -0.131  0.00  0.00    +0.009 A 
ATOM     24  C   UNL     1       1.143  -1.105  -0.296  0.00  0.00    +0.050 A 
ATOM     25  C   UNL     1      -0.043  -0.403  -0.434  0.00  0.00    +0.163 A 
ATOM     26  C   UNL     1      -0.032   0.988  -0.407  0.00  0.00    +0.162 A 
ATOM     27  C   UNL     1       1.166   1.665  -0.242  0.00  0.00    +0.054 A 
BRANCH  26  28
ATOM     28  O   UNL     1      -1.193   1.682  -0.548  0.00  0.00    -0.491 OA
ATOM     29  C   UNL     1      -1.105   3.108  -0.510  0.00  0.00    +0.277 C 
ENDBRANCH  26  28
BRANCH  25  30
ATOM     30  O   UNL     1      -1.216  -1.072  -0.597  0.00  0.00    -0.479 OA
BRANCH  30  31
ATOM     31  C   UNL     1      -1.152  -2.499  -0.615  0.00  0.00    +0.324 C 
BRANCH  31  32
ATOM     32  C   UNL     1      -2.537  -3.062  -0.802  0.00  0.00    +0.248 C 
ATOM     33  O   UNL     1      -3.486  -2.314  -0.910  0.00  0.00    -0.272 OA
ATOM     34  N   UNL     1      -2.722  -4.396  -0.851  0.00  0.00    -0.327 N 
ATOM     35  H   UNL     1      -3.733  -4.807  -0.988  0.00  0.00    +0.145 HD
ATOM     36  H   UNL     1      -1.861  -5.074  -0.753  0.00  0.00    +0.145 HD
ENDBRANCH  31  32
ENDBRANCH  30  31
ENDBRANCH  25  30
ENDBRANCH   7  22
TORSDOF 6
