REMARK  Name = ZINC63697812
REMARK  11 active torsions:
REMARK  status: ('A' for Active; 'I' for Inactive)
REMARK    1  A    between atoms: C_1  and  C_2
REMARK    2  A    between atoms: C_2  and  O_3
REMARK    3  A    between atoms: O_3  and  C_4
REMARK    4  A    between atoms: C_8  and  C_10
REMARK    5  A    between atoms: C_25  and  C_27
REMARK    6  A    between atoms: C_29  and  O_37
REMARK    7  A    between atoms: C_30  and  O_35
REMARK    8  A    between atoms: C_31  and  O_33
REMARK    9  A    between atoms: O_33  and  C_34
REMARK   10  A    between atoms: O_35  and  C_36
REMARK   11  A    between atoms: O_37  and  C_38
REMARK                            x       y       z     vdW  Elec       q    Type
REMARK                         _______ _______ _______ _____ _____    ______ ____
ROOT
ATOM      1  C   UNL     1      -4.397  -4.133   0.466  0.00  0.00    +0.133 C 
ATOM      2  C   UNL     1      -5.447  -4.339  -0.631  0.00  0.00    +0.131 C 
ATOM      3  C   UNL     1      -6.693  -4.883   0.057  0.00  0.00    -0.035 C 
ATOM      4  C   UNL     1      -7.684  -4.056  -0.254  0.00  0.00    -0.001 A 
ATOM      5  C   UNL     1      -9.123  -4.092   0.054  0.00  0.00    +0.010 A 
ATOM      6  C   UNL     1      -9.864  -3.056  -0.421  0.00  0.00    +0.001 A 
ATOM      7  C   UNL     1      -9.324  -2.001  -1.162  0.00  0.00    +0.002 A 
ATOM      8  C   UNL     1      -8.013  -1.888  -1.494  0.00  0.00    +0.026 A 
ATOM      9  C   UNL     1      -7.134  -2.921  -1.055  0.00  0.00    +0.043 A 
ATOM     10  N   UNL     1      -5.837  -3.074  -1.256  0.00  0.00    -0.375 N 
ATOM     11  C   UNL     1      -6.658  -6.093   0.958  0.00  0.00    +0.052 C 
ATOM     12  C   UNL     1      -5.526  -5.856   1.974  0.00  0.00    +0.113 C 
ATOM     13  N   UNL     1      -4.336  -5.362   1.271  0.00  0.00    -0.288 N 
ATOM     14  C   UNL     1      -3.177  -6.044   1.363  0.00  0.00    +0.247 C 
ATOM     15  O   UNL     1      -2.161  -5.581   0.882  0.00  0.00    -0.270 OA
ATOM     16  H   UNL     1      -5.244  -2.466  -1.724  0.00  0.00    +0.160 HD
ENDROOT
BRANCH   1  21
ATOM     17  C   UNL     1      -1.404  -4.354  -1.829  0.00  0.00    +0.121 A 
ATOM     18  C   UNL     1      -0.581  -3.369  -1.302  0.00  0.00    +0.045 A 
ATOM     19  C   UNL     1      -0.996  -2.636  -0.207  0.00  0.00    +0.004 A 
ATOM     20  C   UNL     1      -2.231  -2.884   0.364  0.00  0.00    +0.006 A 
ATOM     21  C   UNL     1      -3.052  -3.865  -0.159  0.00  0.00    -0.021 A 
ATOM     22  C   UNL     1      -2.644  -4.596  -1.257  0.00  0.00    +0.051 A 
BRANCH  17  23
ATOM     23  O   UNL     1      -0.998  -5.075  -2.906  0.00  0.00    -0.492 OA
BRANCH  23  25
ATOM     24  C   UNL     1       0.573  -5.679  -4.642  0.00  0.00    +0.048 C 
ATOM     25  C   UNL     1       0.292  -4.771  -3.442  0.00  0.00    +0.225 C 
ENDBRANCH  23  25
ENDBRANCH  17  23
ENDBRANCH   1  21
BRANCH  14  26
ATOM     26  C   UNL     1      -3.141  -7.351   2.046  0.00  0.00    +0.044 A 
ATOM     27  C   UNL     1      -4.252  -8.197   1.997  0.00  0.00    +0.062 A 
ATOM     28  C   UNL     1      -4.216  -9.422   2.638  0.00  0.00    +0.166 A 
ATOM     29  C   UNL     1      -3.074  -9.812   3.332  0.00  0.00    +0.204 A 
ATOM     30  C   UNL     1      -1.966  -8.971   3.382  0.00  0.00    +0.166 A 
ATOM     31  C   UNL     1      -1.994  -7.748   2.738  0.00  0.00    +0.062 A 
BRANCH  30  32
ATOM     32  O   UNL     1      -0.851  -9.355   4.061  0.00  0.00    -0.491 OA
ATOM     33  C   UNL     1       0.248  -8.443   4.072  0.00  0.00    +0.277 C 
ENDBRANCH  30  32
BRANCH  29  34
ATOM     34  O   UNL     1      -3.041 -11.016   3.961  0.00  0.00    -0.488 OA
ATOM     35  C   UNL     1      -2.567 -12.131   3.203  0.00  0.00    +0.277 C 
ENDBRANCH  29  34
BRANCH  28  36
ATOM     36  O   UNL     1      -5.297 -10.245   2.591  0.00  0.00    -0.491 OA
ATOM     37  C   UNL     1      -6.435  -9.781   1.861  0.00  0.00    +0.277 C 
ENDBRANCH  28  36
ENDBRANCH  14  26
TORSDOF 7
