REMARK  Name = ZINC09631561
REMARK  11 active torsions:
REMARK  status: ('A' for Active; 'I' for Inactive)
REMARK    1  A    between atoms: C_4  and  N_9
REMARK    2  A    between atoms: C_5  and  C_7
REMARK    3  A    between atoms: N_9  and  S_10
REMARK    4  A    between atoms: S_10  and  C_13
REMARK    5  A    between atoms: C_16  and  N_22
REMARK    6  A    between atoms: C_17  and  N_19
REMARK    7  A    between atoms: N_22  and  N_23
REMARK    8  A    between atoms: N_23  and  C_24
REMARK    9  A    between atoms: C_24  and  N_26
REMARK   10  A    between atoms: N_26  and  C_27
REMARK   11  A    between atoms: C_27  and  C_28
REMARK                            x       y       z     vdW  Elec       q    Type
REMARK                         _______ _______ _______ _____ _____    ______ ____
ROOT
ATOM      1  C   UNL     1      -3.574  -2.036   0.229  0.00  0.00    +0.111 A 
ATOM      2  C   UNL     1      -3.728  -0.663   0.291  0.00  0.00    +0.031 A 
ATOM      3  C   UNL     1      -2.617   0.158   0.318  0.00  0.00    +0.028 A 
ATOM      4  C   UNL     1      -1.344  -0.397   0.272  0.00  0.00    +0.075 A 
ATOM      5  C   UNL     1      -1.193  -1.776   0.209  0.00  0.00    +0.150 A 
ATOM      6  C   UNL     1      -2.308  -2.591   0.188  0.00  0.00    +0.063 A 
ENDROOT
BRANCH   1   7
ATOM      7  S   UNL     1      -4.993  -3.079   0.201  0.00  0.00    +0.072 S 
ATOM      8  O   UNL     1      -6.065  -2.293  -0.302  0.00  0.00    -0.150 OA
ATOM      9  O   UNL     1      -4.590  -4.297  -0.409  0.00  0.00    -0.150 OA
BRANCH   7  10
ATOM     10  N   UNL     1      -5.367  -3.439   1.773  0.00  0.00    -0.215 N 
ATOM     11  H   UNL     1      -5.365  -4.361   2.074  0.00  0.00    +0.174 HD
BRANCH  10  15
ATOM     12  C   UNL     1      -6.318  -0.380   4.438  0.00  0.00    +0.001 A 
ATOM     13  C   UNL     1      -6.709  -0.298   3.110  0.00  0.00    +0.002 A 
ATOM     14  C   UNL     1      -6.391  -1.307   2.224  0.00  0.00    +0.025 A 
ATOM     15  C   UNL     1      -5.684  -2.420   2.662  0.00  0.00    +0.062 A 
ATOM     16  C   UNL     1      -5.287  -2.507   4.005  0.00  0.00    +0.085 A 
ATOM     17  C   UNL     1      -5.612  -1.473   4.889  0.00  0.00    +0.017 A 
BRANCH  16  18
ATOM     18  C   UNL     1      -4.532  -3.678   4.481  0.00  0.00    +0.388 C 
ATOM     19  O   UNL     1      -4.250  -4.574   3.710  0.00  0.00    -0.241 OA
ATOM     20  O   UNL     1      -4.152  -3.757   5.772  0.00  0.00    -0.241 OA
ENDBRANCH  16  18
ENDBRANCH  10  15
ENDBRANCH   7  10
ENDBRANCH   1   7
BRANCH   5  21
ATOM     21  N   UNL     1       0.161  -2.372   0.167  0.00  0.00    +0.058 N 
ATOM     22  O   UNL     1       0.373  -3.355  -0.521  0.00  0.00    -0.126 OA
ATOM     23  O   UNL     1       1.064  -1.879   0.819  0.00  0.00    -0.126 OA
ENDBRANCH   5  21
BRANCH   4  24
ATOM     24  N   UNL     1      -0.219   0.430   0.293  0.00  0.00    -0.263 N 
ATOM     25  H   UNL     1       0.668   0.041   0.332  0.00  0.00    +0.170 HD
BRANCH  24  26
ATOM     26  N   UNL     1      -0.372   1.822   0.259  0.00  0.00    -0.248 N 
ATOM     27  H   UNL     1      -1.260   2.212   0.216  0.00  0.00    +0.172 HD
BRANCH  26  28
ATOM     28  C   UNL     1       0.714   2.621   0.280  0.00  0.00    +0.147 C 
ATOM     29  S   UNL     1       0.526   4.322   0.238  0.00  0.00    -0.017 S 
BRANCH  28  30
ATOM     30  N   UNL     1       1.947   2.079   0.334  0.00  0.00    -0.323 N 
ATOM     31  H   UNL     1       2.053   1.116   0.357  0.00  0.00    +0.148 HD
BRANCH  30  32
ATOM     32  C   UNL     1       3.127   2.947   0.356  0.00  0.00    +0.134 C 
BRANCH  32  33
ATOM     33  C   UNL     1       4.391   2.087   0.418  0.00  0.00    +0.135 C 
ATOM     34  C   UNL     1       5.642   2.980   0.569  0.00  0.00    +0.035 C 
ATOM     35  C   UNL     1       6.715   2.272  -0.288  0.00  0.00    +0.031 C 
ATOM     36  C   UNL     1       5.985   1.034  -0.856  0.00  0.00    +0.160 C 
ATOM     37  O   UNL     1       4.585   1.389  -0.831  0.00  0.00    -0.375 OA
ENDBRANCH  32  33
ENDBRANCH  30  32
ENDBRANCH  28  30
ENDBRANCH  26  28
ENDBRANCH  24  26
ENDBRANCH   4  24
TORSDOF 11
