REMARK  Name = ZINC13064853
REMARK  12 active torsions:
REMARK  status: ('A' for Active; 'I' for Inactive)
REMARK    1  A    between atoms: C_1  and  C_2
REMARK    2  A    between atoms: C_2  and  C_3
REMARK    3  A    between atoms: C_3  and  C_5
REMARK    4  A    between atoms: C_3  and  N_70
REMARK    5  A    between atoms: N_9  and  C_10
REMARK    6  A    between atoms: C_10  and  C_11
REMARK    7  A    between atoms: C_17  and  C_18
REMARK    8  A    between atoms: C_17  and  N_70
REMARK    9  A    between atoms: C_24  and  C_25
REMARK   10  A    between atoms: C_24  and  N_70
REMARK   11  A    between atoms: C_28  and  C_38
REMARK   12  A    between atoms: C_30  and  C_37
REMARK                            x       y       z     vdW  Elec       q    Type
REMARK                         _______ _______ _______ _____ _____    ______ ____
ROOT
ATOM      1  N   UNL     1      -2.965   0.802  -1.801  0.00  0.00    +0.392 N 
ATOM      2  H   UNL     1      -3.007   1.486  -2.566  0.00  0.00    -0.080 HD
ENDROOT
BRANCH   1   3
ATOM      3  C   UNL     1      -4.214   0.011  -1.794  0.00  0.00    +0.003 C 
BRANCH   3   4
ATOM      4  C   UNL     1      -5.351   0.905  -2.217  0.00  0.00    +0.138 A 
ATOM      5  N   UNL     1      -5.556   2.143  -1.839  0.00  0.00    -0.115 NA
ATOM      6  N   UNL     1      -6.628   2.564  -2.415  0.00  0.00    -0.023 NA
ATOM      7  N   UNL     1      -7.114   1.626  -3.152  0.00  0.00    -0.044 NA
ATOM      8  N   UNL     1      -6.351   0.589  -3.060  0.00  0.00    -0.228 N 
BRANCH   8   9
ATOM      9  C   UNL     1      -6.541  -0.693  -3.743  0.00  0.00    +0.178 C 
BRANCH   9  10
ATOM     10  C   UNL     1      -7.394  -1.615  -2.869  0.00  0.00    +0.140 C 
ATOM     11  C   UNL     1      -7.504  -3.007  -3.527  0.00  0.00    +0.035 C 
ATOM     12  C   UNL     1      -8.981  -3.392  -3.241  0.00  0.00    +0.031 C 
ATOM     13  C   UNL     1      -9.667  -2.006  -3.320  0.00  0.00    +0.160 C 
ATOM     14  O   UNL     1      -8.720  -1.085  -2.754  0.00  0.00    -0.375 OA
ENDBRANCH   9  10
ENDBRANCH   8   9
ENDBRANCH   3   4
BRANCH   3  16
ATOM     15  C   UNL     1      -3.406  -1.551  -0.020  0.00  0.00    +0.002 C 
ATOM     16  C   UNL     1      -4.491  -0.539  -0.394  0.00  0.00    -0.011 C 
ENDBRANCH   3  16
ENDBRANCH   1   3
BRANCH   1  17
ATOM     17  C   UNL     1      -1.805  -0.087  -2.015  0.00  0.00    -0.042 C 
BRANCH  17  18
ATOM     18  C   UNL     1      -1.827  -0.580  -3.439  0.00  0.00    -0.064 A 
ATOM     19  C   UNL     1      -2.385  -1.810  -3.736  0.00  0.00    +0.002 A 
ATOM     20  C   UNL     1      -2.411  -2.259  -5.043  0.00  0.00    +0.000 A 
ATOM     21  C   UNL     1      -1.869  -1.484  -6.051  0.00  0.00    +0.000 A 
ATOM     22  C   UNL     1      -1.305  -0.258  -5.753  0.00  0.00    +0.000 A 
ATOM     23  C   UNL     1      -1.285   0.195  -4.447  0.00  0.00    +0.002 A 
ENDBRANCH  17  18
ENDBRANCH   1  17
BRANCH   1  24
ATOM     24  C   UNL     1      -2.819   1.524  -0.519  0.00  0.00    -0.036 C 
BRANCH  24  25
ATOM     25  C   UNL     1      -1.731   2.557  -0.667  0.00  0.00    +0.001 A 
ATOM     26  C   UNL     1      -2.051   3.832  -0.999  0.00  0.00    +0.017 A 
ATOM     27  C   UNL     1      -0.970   4.810  -1.141  0.00  0.00    +0.002 A 
ATOM     28  C   UNL     1      -1.237   6.139  -1.488  0.00  0.00    -0.041 A 
ATOM     29  C   UNL     1      -0.207   7.027  -1.611  0.00  0.00    +0.007 A 
ATOM     30  C   UNL     1       1.104   6.622  -1.397  0.00  0.00    -0.048 A 
ATOM     31  C   UNL     1       1.391   5.318  -1.054  0.00  0.00    +0.029 A 
ATOM     32  C   UNL     1       0.357   4.396  -0.922  0.00  0.00    +0.050 A 
ATOM     33  N   UNL     1       0.615   3.086  -0.581  0.00  0.00    -0.322 N 
ATOM     34  H   UNL     1       1.530   2.802  -0.430  0.00  0.00    +0.169 HD
ATOM     35  C   UNL     1      -0.384   2.195  -0.453  0.00  0.00    +0.251 A 
ATOM     36  O   UNL     1      -0.119   1.044  -0.150  0.00  0.00    -0.268 OA
ATOM     37  C   UNL     1       2.225   7.619  -1.540  0.00  0.00    +0.044 C 
ATOM     38  C   UNL     1      -2.656   6.589  -1.723  0.00  0.00    +0.044 C 
ENDBRANCH  24  25
ENDBRANCH   1  24
TORSDOF 9
