REMARK  Name = ZINC66822707
REMARK  6 active torsions:
REMARK  status: ('A' for Active; 'I' for Inactive)
REMARK    1  A    between atoms: C_1  and  C_2
REMARK    2  A    between atoms: C_2  and  C_4
REMARK    3  A    between atoms: C_2  and  N_15
REMARK    4  A    between atoms: N_6  and  C_7
REMARK    5  A    between atoms: C_12  and  O_13
REMARK    6  A    between atoms: C_16  and  C_18
REMARK                            x       y       z     vdW  Elec       q    Type
REMARK                         _______ _______ _______ _____ _____    ______ ____
ROOT
ATOM      1  C   UNL     1       0.704  -0.496  -1.238  0.00  0.00    +0.237 C 
ATOM      2  O   UNL     1       1.702  -1.178  -1.141  0.00  0.00    -0.273 OA
ATOM      3  N   UNL     1       0.231  -0.164  -2.456  0.00  0.00    -0.281 N 
ATOM      4  H   UNL     1      -0.602   0.326  -2.535  0.00  0.00    +0.155 HD
ENDROOT
BRANCH   3   5
ATOM      5  C   UNL     1       0.943  -0.527  -3.607  0.00  0.00    +0.075 A 
ATOM      6  C   UNL     1       1.643  -1.724  -3.643  0.00  0.00    +0.028 A 
ATOM      7  C   UNL     1       2.345  -2.080  -4.780  0.00  0.00    +0.017 A 
ATOM      8  C   UNL     1       2.352  -1.244  -5.882  0.00  0.00    +0.021 A 
ATOM      9  C   UNL     1       1.656  -0.049  -5.853  0.00  0.00    +0.062 A 
ATOM     10  C   UNL     1       0.946   0.312  -4.719  0.00  0.00    +0.139 A 
ATOM     11 BR   UNL     1       3.315  -1.737  -7.433  0.00  0.00    -0.050 Br
BRANCH  10  12
ATOM     12  O   UNL     1       0.257   1.484  -4.691  0.00  0.00    -0.505 OA
ATOM     13  H   UNL     1       0.774   2.236  -4.370  0.00  0.00    +0.292 HD
ENDBRANCH  10  12
ENDBRANCH   3   5
BRANCH   1  15
ATOM     14  C   UNL     1      -0.034   1.509   0.021  0.00  0.00    +0.038 C 
ATOM     15  C   UNL     1      -0.008  -0.021   0.002  0.00  0.00    +0.156 C 
BRANCH  15  16
ATOM     16  N   UNL     1       0.697  -0.512   1.188  0.00  0.00    -0.304 N 
ATOM     17  C   UNL     1       0.034  -0.666   2.352  0.00  0.00    +0.217 C 
ATOM     18  O   UNL     1      -1.147  -0.398   2.416  0.00  0.00    -0.275 OA
ATOM     19  H   UNL     1       1.642  -0.726   1.137  0.00  0.00    +0.149 HD
BRANCH  17  20
ATOM     20  C   UNL     1       0.759  -1.171   3.572  0.00  0.00    +0.079 C 
ATOM     21  C   UNL     1       1.324  -2.567   3.292  0.00  0.00    +0.041 C 
ATOM     22  C   UNL     1       1.990  -3.103   4.561  0.00  0.00    +0.160 C 
ATOM     23  O   UNL     1       1.037  -3.126   5.625  0.00  0.00    -0.380 OA
ATOM     24  C   UNL     1       0.510  -1.841   5.963  0.00  0.00    +0.160 C 
ATOM     25  C   UNL     1      -0.216  -1.253   4.750  0.00  0.00    +0.041 C 
ENDBRANCH  17  20
ENDBRANCH  15  16
ENDBRANCH   1  15
TORSDOF 5
