REMARK  Name = ZINC39653561
REMARK  11 active torsions:
REMARK  status: ('A' for Active; 'I' for Inactive)
REMARK    1  A    between atoms: C_1  and  C_2
REMARK    2  A    between atoms: C_2  and  O_3
REMARK    3  A    between atoms: O_3  and  C_4
REMARK    4  A    between atoms: C_6  and  C_12
REMARK    5  A    between atoms: C_9  and  O_10
REMARK    6  A    between atoms: O_10  and  C_11
REMARK    7  A    between atoms: C_12  and  C_13
REMARK    8  A    between atoms: C_13  and  N_14
REMARK    9  A    between atoms: C_15  and  C_17
REMARK   10  A    between atoms: C_28  and  C_30
REMARK   11  A    between atoms: C_31  and  C_35
REMARK                            x       y       z     vdW  Elec       q    Type
REMARK                         _______ _______ _______ _____ _____    ______ ____
ROOT
ATOM      1  C   UNL     1       0.397  -7.460  -4.708  0.00  0.00    +0.100 C 
ATOM      2  C   UNL     1       0.163  -8.863  -4.106  0.00  0.00    +0.121 C 
ATOM      3  N   UNL     1       0.488  -9.801  -5.206  0.00  0.00    -0.296 N 
ATOM      4  C   UNL     1       1.672  -9.200  -5.865  0.00  0.00    +0.115 C 
ATOM      5  C   UNL     1       1.389  -7.685  -5.862  0.00  0.00    -0.004 C 
ATOM      6  C   UNL     1       2.677  -6.908  -5.610  0.00  0.00    -0.010 C 
ATOM      7  C   UNL     1       3.625  -7.101  -6.798  0.00  0.00    -0.082 C 
ATOM      8  N   UNL     1       2.975  -6.627  -8.026  0.00  0.00    +0.379 N 
ATOM      9  C   UNL     1       1.788  -7.441  -8.311  0.00  0.00    -0.082 C 
ATOM     10  C   UNL     1       0.763  -7.262  -7.187  0.00  0.00    -0.010 C 
ATOM     11  C   UNL     1      -0.149 -10.943  -5.533  0.00  0.00    +0.254 C 
ATOM     12  O   UNL     1      -1.175 -11.254  -4.957  0.00  0.00    -0.269 OA
ATOM     13  H   UNL     1       2.701  -5.663  -7.909  0.00  0.00    -0.086 HD
ATOM     14  H   UNL     1       3.623  -6.698  -8.796  0.00  0.00    -0.086 HD
ENDROOT
BRANCH  11  15
ATOM     15  C   UNL     1       0.395 -11.810  -6.583  0.00  0.00    +0.077 A 
ATOM     16  C   UNL     1      -0.152 -12.957  -7.139  0.00  0.00    -0.031 A 
ATOM     17  C   UNL     1       0.600 -13.563  -8.117  0.00  0.00    +0.011 A 
ATOM     18  C   UNL     1       1.791 -13.017  -8.465  0.00  0.00    +0.046 A 
ATOM     19  S   UNL     1       1.926 -11.661  -7.483  0.00  0.00    -0.092 S 
ATOM     20  C   UNL     1      -1.485 -13.504  -6.698  0.00  0.00    +0.045 C 
ENDBRANCH  11  15
BRANCH   1  22
ATOM     21  N   UNL     1       0.899  -5.202  -3.829  0.00  0.00    -0.315 N 
ATOM     22  C   UNL     1       0.993  -6.538  -3.676  0.00  0.00    +0.218 C 
ATOM     23  O   UNL     1       1.559  -6.999  -2.707  0.00  0.00    -0.275 OA
ATOM     24  H   UNL     1       0.447  -4.834  -4.604  0.00  0.00    +0.149 HD
BRANCH  21  25
ATOM     25  C   UNL     1       1.479  -4.307  -2.826  0.00  0.00    +0.109 C 
BRANCH  25  26
ATOM     26  C   UNL     1       1.234  -2.854  -3.236  0.00  0.00    +0.054 C 
BRANCH  26  29
ATOM     27  C   UNL     1       3.689  -0.659  -1.385  0.00  0.00    +0.162 A 
ATOM     28  C   UNL     1       3.139  -1.506  -2.334  0.00  0.00    +0.053 A 
ATOM     29  C   UNL     1       1.831  -1.932  -2.204  0.00  0.00    -0.042 A 
ATOM     30  C   UNL     1       1.068  -1.514  -1.129  0.00  0.00    +0.007 A 
ATOM     31  C   UNL     1       1.610  -0.669  -0.180  0.00  0.00    +0.049 A 
ATOM     32  C   UNL     1       2.923  -0.243  -0.300  0.00  0.00    +0.162 A 
BRANCH  32  33
ATOM     33  O   UNL     1       3.461   0.584   0.636  0.00  0.00    -0.491 OA
ATOM     34  C   UNL     1       2.616   0.970   1.722  0.00  0.00    +0.277 C 
ENDBRANCH  32  33
BRANCH  27  35
ATOM     35  O   UNL     1       4.977  -0.240  -1.511  0.00  0.00    -0.489 OA
BRANCH  35  37
ATOM     36  C   UNL     1       7.122  -0.134  -2.620  0.00  0.00    +0.048 C 
ATOM     37  C   UNL     1       5.703  -0.707  -2.650  0.00  0.00    +0.226 C 
ENDBRANCH  35  37
ENDBRANCH  27  35
ENDBRANCH  26  29
ENDBRANCH  25  26
ENDBRANCH  21  25
ENDBRANCH   1  22
TORSDOF 8
