REMARK  Name = ZINC20722735
REMARK  9 active torsions:
REMARK  status: ('A' for Active; 'I' for Inactive)
REMARK    1  A    between atoms: C_1  and  C_2
REMARK    2  A    between atoms: C_2  and  C_3
REMARK    3  A    between atoms: C_2  and  C_4
REMARK    4  A    between atoms: C_4  and  C_5
REMARK    5  A    between atoms: C_5  and  C_7
REMARK    6  A    between atoms: C_5  and  N_11
REMARK    7  A    between atoms: C_7  and  O_9
REMARK    8  A    between atoms: O_9  and  C_10
REMARK    9  A    between atoms: C_23  and  C_25
REMARK                            x       y       z     vdW  Elec       q    Type
REMARK                         _______ _______ _______ _____ _____    ______ ____
ROOT
ATOM      1  N   UNL     1      -0.234  -4.463  -0.598  0.00  0.00    -0.286 N 
ATOM      2  C   UNL     1      -0.296  -3.606  -1.636  0.00  0.00    +0.304 C 
ATOM      3  O   UNL     1      -0.886  -2.549  -1.518  0.00  0.00    -0.253 OA
ATOM      4  N   UNL     1       0.297  -3.920  -2.805  0.00  0.00    -0.273 N 
ATOM      5  C   UNL     1       0.337  -2.952  -3.912  0.00  0.00    +0.116 C 
ATOM      6  C   UNL     1       1.797  -2.573  -4.194  0.00  0.00    +0.074 C 
ATOM      7  C   UNL     1       2.631  -3.827  -4.207  0.00  0.00    +0.040 A 
ATOM      8  C   UNL     1       2.252  -5.011  -3.679  0.00  0.00    +0.062 A 
ATOM      9  N   UNL     1       3.240  -5.887  -3.871  0.00  0.00    -0.348 N 
ATOM     10  C   UNL     1       4.220  -5.295  -4.502  0.00  0.00    +0.171 A 
ATOM     11  N   UNL     1       3.876  -4.006  -4.730  0.00  0.00    -0.349 N 
ATOM     12  H   UNL     1       4.413  -3.337  -5.180  0.00  0.00    +0.166 HD
ATOM     13  C   UNL     1       0.924  -5.238  -3.004  0.00  0.00    +0.157 C 
ATOM     14  H   UNL     1       0.167  -5.338  -0.715  0.00  0.00    +0.151 HD
ATOM     15  H   UNL     1       3.232  -6.815  -3.588  0.00  0.00    +0.167 HD
ENDROOT
BRANCH  13  16
ATOM     16  C   UNL     1       0.049  -6.097  -3.879  0.00  0.00    -0.003 A 
ATOM     17  C   UNL     1      -0.193  -5.727  -5.189  0.00  0.00    +0.009 A 
ATOM     18  C   UNL     1      -0.996  -6.514  -5.993  0.00  0.00    +0.020 A 
ATOM     19  C   UNL     1      -1.558  -7.673  -5.487  0.00  0.00    +0.042 A 
ATOM     20  C   UNL     1      -1.317  -8.043  -4.176  0.00  0.00    +0.040 A 
ATOM     21  C   UNL     1      -0.509  -7.258  -3.374  0.00  0.00    +0.048 A 
ATOM     22 CL   UNL     1      -0.200  -7.725  -1.730  0.00  0.00    -0.083 Cl
ATOM     23 CL   UNL     1      -2.568  -8.661  -6.496  0.00  0.00    -0.083 Cl
ENDBRANCH  13  16
BRANCH   1  24
ATOM     24  C   UNL     1      -0.771  -4.072   0.708  0.00  0.00    +0.183 C 
BRANCH  24  25
ATOM     25  C   UNL     1       0.273  -3.299   1.470  0.00  0.00    +0.327 C 
ATOM     26  O   UNL     1       1.356  -3.095   0.974  0.00  0.00    -0.249 OA
BRANCH  25  27
ATOM     27  O   UNL     1       0.001  -2.837   2.701  0.00  0.00    -0.467 OA
ATOM     28  C   UNL     1       1.038  -2.112   3.366  0.00  0.00    +0.280 C 
ENDBRANCH  25  27
ENDBRANCH  24  25
BRANCH  24  29
ATOM     29  C   UNL     1      -1.156  -5.325   1.496  0.00  0.00    +0.036 C 
BRANCH  29  31
ATOM     30  C   UNL     1      -2.604  -7.361   1.504  0.00  0.00    +0.007 C 
ATOM     31  C   UNL     1      -2.303  -6.044   0.785  0.00  0.00    -0.015 C 
ATOM     32  C   UNL     1      -3.550  -5.157   0.802  0.00  0.00    +0.007 C 
ENDBRANCH  29  31
ENDBRANCH  24  29
ENDBRANCH   1  24
TORSDOF 6
