REMARK  Name = ZINC59410369
REMARK  9 active torsions:
REMARK  status: ('A' for Active; 'I' for Inactive)
REMARK    1  A    between atoms: C_1  and  C_2
REMARK    2  A    between atoms: C_5  and  C_35
REMARK    3  A    between atoms: N_8  and  C_10
REMARK    4  A    between atoms: C_10  and  C_11
REMARK    5  A    between atoms: C_14  and  C_17
REMARK    6  A    between atoms: C_17  and  N_18
REMARK    7  A    between atoms: C_19  and  C_21
REMARK    8  A    between atoms: C_21  and  C_22
REMARK    9  A    between atoms: C_22  and  C_23
REMARK                            x       y       z     vdW  Elec       q    Type
REMARK                         _______ _______ _______ _____ _____    ______ ____
ROOT
ATOM      1  N   UNL     1      -0.844   2.866   6.580  0.00  0.00    -0.311 N 
ATOM      2  C   UNL     1      -1.586   3.542   7.480  0.00  0.00    +0.214 C 
ATOM      3  O   UNL     1      -1.330   3.458   8.662  0.00  0.00    -0.276 OA
ATOM      4  H   UNL     1      -1.049   2.933   5.634  0.00  0.00    +0.149 HD
ENDROOT
BRANCH   1   5
ATOM      5  C   UNL     1       0.272   2.030   7.030  0.00  0.00    +0.139 C 
BRANCH   5   9
ATOM      6  C   UNL     1       2.146   0.211   3.650  0.00  0.00    -0.064 A 
ATOM      7  C   UNL     1       2.582   1.442   4.103  0.00  0.00    +0.002 A 
ATOM      8  C   UNL     1       1.975   2.031   5.197  0.00  0.00    +0.005 A 
ATOM      9  C   UNL     1       0.932   1.388   5.838  0.00  0.00    -0.030 A 
ATOM     10  C   UNL     1       0.496   0.158   5.384  0.00  0.00    +0.005 A 
ATOM     11  C   UNL     1       1.100  -0.429   4.288  0.00  0.00    +0.002 A 
BRANCH   6  12
ATOM     12  C   UNL     1       2.808  -0.431   2.458  0.00  0.00    -0.043 C 
BRANCH  12  18
ATOM     13  C   UNL     1      -0.019   1.526   0.010  0.00  0.00    +0.005 C 
ATOM     14  C   UNL     1       0.002  -0.004   0.002  0.00  0.00    -0.031 C 
ATOM     15  C   UNL     1       0.721  -0.499  -1.257  0.00  0.00    +0.003 C 
ATOM     16  C   UNL     1       2.177  -0.027  -1.220  0.00  0.00    -0.031 C 
ATOM     17  C   UNL     1       2.839  -0.534   0.063  0.00  0.00    -0.075 C 
ATOM     18  N   UNL     1       2.123  -0.005   1.230  0.00  0.00    +0.383 N 
ATOM     19  C   UNL     1       0.744  -0.512   1.240  0.00  0.00    -0.075 C 
ATOM     20  C   UNL     1       2.924  -0.581  -2.434  0.00  0.00    +0.005 C 
ATOM     21  H   UNL     1       2.109   1.003   1.187  0.00  0.00    -0.081 HD
ENDBRANCH  12  18
ENDBRANCH   6  12
ENDBRANCH   5   9
ENDBRANCH   1   5
BRANCH   2  22
ATOM     22  C   UNL     1      -2.733   4.401   7.016  0.00  0.00    +0.103 C 
BRANCH  22  23
ATOM     23  C   UNL     1      -3.404   5.053   8.228  0.00  0.00    +0.083 C 
BRANCH  23  24
ATOM     24  C   UNL     1      -4.552   5.912   7.764  0.00  0.00    +0.111 A 
ATOM     25  N   UNL     1      -5.273   6.583   8.700  0.00  0.00    -0.310 N 
ATOM     26  H   UNL     1      -5.041   6.498   9.638  0.00  0.00    +0.170 HD
ATOM     27  C   UNL     1      -6.313   7.369   8.335  0.00  0.00    +0.259 A 
ATOM     28  O   UNL     1      -6.968   7.976   9.163  0.00  0.00    -0.267 OA
ATOM     29  C   UNL     1      -6.621   7.461   6.901  0.00  0.00    +0.065 A 
ATOM     30  C   UNL     1      -7.671   8.242   6.421  0.00  0.00    +0.015 A 
ATOM     31  C   UNL     1      -7.915   8.292   5.066  0.00  0.00    +0.001 A 
ATOM     32  C   UNL     1      -7.126   7.572   4.179  0.00  0.00    +0.002 A 
ATOM     33  C   UNL     1      -6.084   6.794   4.632  0.00  0.00    +0.028 A 
ATOM     34  C   UNL     1      -5.816   6.728   6.001  0.00  0.00    +0.078 A 
ATOM     35  N   UNL     1      -4.797   5.979   6.491  0.00  0.00    -0.234 NA
ENDBRANCH  23  24
ENDBRANCH  22  23
ENDBRANCH   2  22
TORSDOF 7
