REMARK  Name = ZINC04758320
REMARK  7 active torsions:
REMARK  status: ('A' for Active; 'I' for Inactive)
REMARK    1  A    between atoms: C_1  and  C_2
REMARK    2  A    between atoms: C_2  and  O_3
REMARK    3  A    between atoms: O_3  and  C_4
REMARK    4  A    between atoms: C_5  and  C_11
REMARK    5  A    between atoms: C_9  and  O_10
REMARK    6  A    between atoms: C_29  and  C_31
REMARK    7  A    between atoms: C_29  and  C_32
REMARK                            x       y       z     vdW  Elec       q    Type
REMARK                         _______ _______ _______ _____ _____    ______ ____
ROOT
ATOM      1  C   UNL     1      -2.273  -0.391   3.387  0.00  0.00    +0.090 C 
ATOM      2  C   UNL     1      -1.148  -0.268   4.374  0.00  0.00    -0.005 A 
ATOM      3  C   UNL     1      -0.038   0.542   4.075  0.00  0.00    +0.006 A 
ATOM      4  C   UNL     1       0.044   1.249   2.860  0.00  0.00    +0.012 A 
ATOM      5  C   UNL     1       1.149   2.019   2.635  0.00  0.00    +0.020 A 
ATOM      6  C   UNL     1       2.155   2.088   3.597  0.00  0.00    +0.111 A 
ATOM      7  N   UNL     1       2.075   1.429   4.727  0.00  0.00    -0.255 NA
ATOM      8  C   UNL     1       1.021   0.657   5.009  0.00  0.00    +0.071 A 
ATOM      9  C   UNL     1       0.944  -0.046   6.225  0.00  0.00    +0.030 A 
ATOM     10  C   UNL     1      -0.138  -0.823   6.492  0.00  0.00    +0.025 A 
ATOM     11  C   UNL     1      -1.190  -0.939   5.573  0.00  0.00    +0.036 A 
ATOM     12  N   UNL     1      -2.289  -1.744   5.874  0.00  0.00    -0.317 N 
ATOM     13  C   UNL     1      -3.101  -2.205   4.879  0.00  0.00    +0.016 C 
ATOM     14  C   UNL     1      -3.123  -1.603   3.669  0.00  0.00    +0.024 C 
ATOM     15  C   UNL     1      -3.938  -2.090   2.634  0.00  0.00    +0.162 C 
ATOM     16  O   UNL     1      -3.937  -1.524   1.559  0.00  0.00    -0.292 OA
ATOM     17  C   UNL     1      -4.812  -3.298   2.830  0.00  0.00    +0.086 C 
ATOM     18  C   UNL     1      -4.170  -4.213   3.879  0.00  0.00    -0.023 C 
ATOM     19  C   UNL     1      -3.967  -3.408   5.164  0.00  0.00    +0.058 C 
ATOM     20  C   UNL     1      -2.818  -4.715   3.367  0.00  0.00    +0.011 C 
ATOM     21  C   UNL     1      -5.090  -5.404   4.157  0.00  0.00    +0.011 C 
ATOM     22  H   UNL     1      -2.477  -1.977   6.796  0.00  0.00    +0.152 HD
ENDROOT
BRANCH   1  24
ATOM     23  C   UNL     1      -3.386   1.436   4.693  0.00  0.00    +0.166 A 
ATOM     24  C   UNL     1      -3.134   0.844   3.466  0.00  0.00    +0.010 A 
ATOM     25  C   UNL     1      -3.679   1.381   2.314  0.00  0.00    +0.008 A 
ATOM     26  C   UNL     1      -4.464   2.517   2.382  0.00  0.00    +0.004 A 
ATOM     27  C   UNL     1      -4.714   3.116   3.602  0.00  0.00    +0.049 A 
ATOM     28  C   UNL     1      -4.176   2.579   4.761  0.00  0.00    +0.159 A 
BRANCH  28  29
ATOM     29  O   UNL     1      -4.422   3.167   5.962  0.00  0.00    -0.503 OA
ATOM     30  H   UNL     1      -3.774   3.841   6.210  0.00  0.00    +0.292 HD
ENDBRANCH  28  29
BRANCH  23  31
ATOM     31  O   UNL     1      -2.856   0.905   5.827  0.00  0.00    -0.488 OA
BRANCH  31  33
ATOM     32  C   UNL     1      -3.017  -0.042   8.045  0.00  0.00    +0.048 C 
ATOM     33  C   UNL     1      -3.772   0.351   6.773  0.00  0.00    +0.226 C 
ENDBRANCH  31  33
ENDBRANCH  23  31
ENDBRANCH   1  24
TORSDOF 4
