REMARK  Name = ZINC09144781
REMARK  7 active torsions:
REMARK  status: ('A' for Active; 'I' for Inactive)
REMARK    1  A    between atoms: C_4  and  C_7
REMARK    2  A    between atoms: C_7  and  N_64
REMARK    3  A    between atoms: C_9  and  C_29
REMARK    4  A    between atoms: C_11  and  C_23
REMARK    5  A    between atoms: C_12  and  C_15
REMARK    6  A    between atoms: C_15  and  C_17
REMARK    7  A    between atoms: C_29  and  C_31
REMARK                            x       y       z     vdW  Elec       q    Type
REMARK                         _______ _______ _______ _____ _____    ______ ____
ROOT
ATOM      1  C   UNL     1       0.403   1.443  -0.970  0.00  0.00    -0.066 C 
ATOM      2  C   UNL     1      -0.595   2.125  -1.908  0.00  0.00    +0.052 C 
ATOM      3  C   UNL     1      -1.055   3.445  -1.283  0.00  0.00    +0.036 C 
ATOM      4  C   UNL     1      -1.672   3.163   0.090  0.00  0.00    +0.052 C 
ATOM      5  C   UNL     1      -0.642   2.450   0.970  0.00  0.00    -0.066 C 
ATOM      6  N   UNL     1      -0.260   1.177   0.325  0.00  0.00    +0.383 N 
ATOM      7  H   UNL     1      -1.106   0.621   0.157  0.00  0.00    -0.081 HD
ENDROOT
BRANCH   3   8
ATOM      8  C   UNL     1      -2.082   4.094  -2.174  0.00  0.00    -0.043 A 
ATOM      9  C   UNL     1      -2.025   5.453  -2.419  0.00  0.00    +0.004 A 
ATOM     10  C   UNL     1      -2.965   6.047  -3.241  0.00  0.00    +0.000 A 
ATOM     11  C   UNL     1      -3.967   5.284  -3.810  0.00  0.00    +0.000 A 
ATOM     12  C   UNL     1      -4.027   3.925  -3.560  0.00  0.00    +0.000 A 
ATOM     13  C   UNL     1      -3.085   3.330  -2.743  0.00  0.00    +0.004 A 
ENDBRANCH   3   8
BRANCH   4  14
ATOM     14  C   UNL     1      -2.886   2.286  -0.075  0.00  0.00    +0.165 C 
ATOM     15  O   UNL     1      -2.756   1.086  -0.192  0.00  0.00    -0.292 OA
BRANCH  14  16
ATOM     16  C   UNL     1      -4.230   2.885  -0.093  0.00  0.00    +0.018 A 
ATOM     17  C   UNL     1      -4.385   4.268   0.048  0.00  0.00    +0.011 A 
ATOM     18  C   UNL     1      -5.647   4.822   0.025  0.00  0.00    +0.001 A 
ATOM     19  C   UNL     1      -6.760   4.013  -0.126  0.00  0.00    +0.000 A 
ATOM     20  C   UNL     1      -6.615   2.644  -0.261  0.00  0.00    +0.001 A 
ATOM     21  C   UNL     1      -5.359   2.074  -0.246  0.00  0.00    +0.011 A 
ENDBRANCH  14  16
ENDBRANCH   4  14
BRANCH   2  22
ATOM     22  C   UNL     1       0.067   2.400  -3.233  0.00  0.00    +0.165 C 
ATOM     23  O   UNL     1       0.646   3.450  -3.416  0.00  0.00    -0.292 OA
BRANCH  22  24
ATOM     24  C   UNL     1       0.011   1.394  -4.306  0.00  0.00    +0.018 A 
ATOM     25  C   UNL     1      -0.651   0.180  -4.098  0.00  0.00    +0.011 A 
ATOM     26  C   UNL     1      -0.703  -0.755  -5.110  0.00  0.00    +0.001 A 
ATOM     27  C   UNL     1      -0.094  -0.499  -6.326  0.00  0.00    +0.000 A 
ATOM     28  C   UNL     1       0.567   0.698  -6.538  0.00  0.00    +0.001 A 
ATOM     29  C   UNL     1       0.624   1.646  -5.538  0.00  0.00    +0.011 A 
ENDBRANCH  22  24
ENDBRANCH   2  22
BRANCH   6  30
ATOM     30  C   UNL     1       0.647   0.416   1.209  0.00  0.00    -0.043 C 
BRANCH  30  34
ATOM     31  C   UNL     1      -0.984   0.341   5.156  0.00  0.00    +0.000 A 
ATOM     32  C   UNL     1      -1.327  -0.643   4.247  0.00  0.00    +0.000 A 
ATOM     33  C   UNL     1      -0.800  -0.618   2.970  0.00  0.00    +0.002 A 
ATOM     34  C   UNL     1       0.072   0.389   2.601  0.00  0.00    -0.064 A 
ATOM     35  C   UNL     1       0.420   1.369   3.512  0.00  0.00    +0.002 A 
ATOM     36  C   UNL     1      -0.111   1.348   4.788  0.00  0.00    +0.000 A 
ENDBRANCH  30  34
ENDBRANCH   6  30
TORSDOF 7
