REMARK  Name = ZINC59487369
REMARK  3 active torsions:
REMARK  status: ('A' for Active; 'I' for Inactive)
REMARK    1  A    between atoms: C_1  and  C_2
REMARK    2  A    between atoms: C_22  and  C_30
REMARK    3  A    between atoms: C_30  and  C_32
REMARK                            x       y       z     vdW  Elec       q    Type
REMARK                         _______ _______ _______ _____ _____    ______ ____
ROOT
ATOM      1  C   UNL     1      -0.163   1.542   0.074  0.00  0.00    +0.044 C 
ATOM      2  C   UNL     1      -0.210   0.036   0.066  0.00  0.00    -0.050 A 
ATOM      3  C   UNL     1      -0.324  -0.647  -1.131  0.00  0.00    +0.005 A 
ATOM      4  C   UNL     1      -0.367  -2.026  -1.145  0.00  0.00    +0.024 A 
ATOM      5  C   UNL     1      -0.296  -2.741   0.048  0.00  0.00    +0.039 A 
ATOM      6  C   UNL     1      -0.181  -2.043   1.246  0.00  0.00    +0.004 A 
ATOM      7  C   UNL     1      -0.133  -0.667   1.255  0.00  0.00    +0.011 A 
ATOM      8  C   UNL     1      -0.128  -3.085   2.331  0.00  0.00    +0.145 C 
ATOM      9  C   UNL     1      -0.226  -4.402   1.603  0.00  0.00    +0.244 C 
ATOM     10  O   UNL     1      -0.223  -5.506   2.104  0.00  0.00    -0.273 OA
ATOM     11  N   UNL     1      -0.318  -4.116   0.291  0.00  0.00    -0.283 N 
ATOM     12  C   UNL     1       1.165  -2.990   3.132  0.00  0.00    +0.116 C 
ATOM     13  C   UNL     1       1.996  -4.236   3.011  0.00  0.00    -0.008 A 
ATOM     14  C   UNL     1       1.762  -5.562   3.297  0.00  0.00    +0.006 A 
ATOM     15  C   UNL     1       2.750  -6.504   3.073  0.00  0.00    +0.000 A 
ATOM     16  C   UNL     1       3.972  -6.110   2.560  0.00  0.00    +0.002 A 
ATOM     17  C   UNL     1       4.212  -4.783   2.272  0.00  0.00    +0.023 A 
ATOM     18  C   UNL     1       3.222  -3.828   2.495  0.00  0.00    +0.038 A 
ATOM     19  N   UNL     1       3.223  -2.447   2.287  0.00  0.00    -0.284 N 
ATOM     20  C   UNL     1       2.052  -1.880   2.635  0.00  0.00    +0.231 C 
ATOM     21  O   UNL     1       1.767  -0.703   2.561  0.00  0.00    -0.274 OA
ATOM     22  C   UNL     1       0.739  -2.745   4.589  0.00  0.00    +0.099 C 
ATOM     23  C   UNL     1      -0.694  -2.177   4.442  0.00  0.00    +0.070 C 
ATOM     24  N   UNL     1      -1.251  -2.922   3.271  0.00  0.00    -0.281 NA
ATOM     25  C   UNL     1      -1.637  -4.245   3.817  0.00  0.00    +0.086 C 
ATOM     26  C   UNL     1      -2.178  -3.962   5.232  0.00  0.00    +0.017 C 
ATOM     27  C   UNL     1      -1.535  -2.609   5.654  0.00  0.00    +0.021 C 
ATOM     28  H   UNL     1      -0.392  -4.787  -0.405  0.00  0.00    +0.155 HD
ATOM     29  H   UNL     1       3.980  -1.954   1.933  0.00  0.00    +0.155 HD
ENDROOT
BRANCH  22  30
ATOM     30  C   UNL     1       0.727  -4.036   5.366  0.00  0.00    +0.169 C 
ATOM     31  O   UNL     1      -0.282  -4.707   5.412  0.00  0.00    -0.292 OA
BRANCH  30  32
ATOM     32  C   UNL     1       1.940  -4.484   6.068  0.00  0.00    +0.018 A 
ATOM     33  C   UNL     1       3.105  -3.711   6.022  0.00  0.00    +0.011 A 
ATOM     34  C   UNL     1       4.237  -4.137   6.683  0.00  0.00    +0.001 A 
ATOM     35  C   UNL     1       4.224  -5.326   7.390  0.00  0.00    +0.000 A 
ATOM     36  C   UNL     1       3.076  -6.097   7.440  0.00  0.00    +0.001 A 
ATOM     37  C   UNL     1       1.933  -5.682   6.789  0.00  0.00    +0.011 A 
ENDBRANCH  30  32
ENDBRANCH  22  30
TORSDOF 2
