REMARK  Name = ZINC41584172
REMARK  13 active torsions:
REMARK  status: ('A' for Active; 'I' for Inactive)
REMARK    1  A    between atoms: C_1  and  C_2
REMARK    2  A    between atoms: C_2  and  C_3
REMARK    3  A    between atoms: C_3  and  C_4
REMARK    4  A    between atoms: C_4  and  N_5
REMARK    5  A    between atoms: N_5  and  C_6
REMARK    6  A    between atoms: N_5  and  C_10
REMARK    7  A    between atoms: C_6  and  C_7
REMARK    8  A    between atoms: C_7  and  C_8
REMARK    9  A    between atoms: C_8  and  C_9
REMARK   10  A    between atoms: C_10  and  C_11
REMARK   11  A    between atoms: C_12  and  O_30
REMARK   12  A    between atoms: C_14  and  C_29
REMARK   13  A    between atoms: C_19  and  C_20
REMARK                            x       y       z     vdW  Elec       q    Type
REMARK                         _______ _______ _______ _____ _____    ______ ____
ROOT
ATOM      1  C   UNL     1       1.817  -4.357  -4.366  0.00  0.00    +0.020 A 
ATOM      2  C   UNL     1       1.270  -4.308  -5.638  0.00  0.00    +0.122 A 
ATOM      3  C   UNL     1       2.018  -4.692  -6.747  0.00  0.00    +0.050 A 
ATOM      4  C   UNL     1       3.306  -5.123  -6.590  0.00  0.00    -0.033 A 
ATOM      5  C   UNL     1       3.870  -5.178  -5.315  0.00  0.00    +0.071 A 
ATOM      6  C   UNL     1       3.126  -4.788  -4.190  0.00  0.00    +0.145 A 
ATOM      7  O   UNL     1       3.880  -4.920  -3.076  0.00  0.00    -0.451 OA
ATOM      8  C   UNL     1       5.121  -5.380  -3.361  0.00  0.00    +0.176 C 
ATOM      9  C   UNL     1       6.111  -5.620  -2.466  0.00  0.00    +0.058 C 
ATOM     10  C   UNL     1       5.196  -5.585  -4.816  0.00  0.00    +0.232 C 
ATOM     11  O   UNL     1       6.145  -5.989  -5.465  0.00  0.00    -0.283 OA
ATOM     12  C   UNL     1       4.114  -5.539  -7.792  0.00  0.00    +0.045 C 
ENDROOT
BRANCH   9  13
ATOM     13  C   UNL     1       7.466  -5.942  -2.937  0.00  0.00    -0.020 A 
ATOM     14  C   UNL     1       8.001  -5.277  -4.046  0.00  0.00    +0.008 A 
ATOM     15  C   UNL     1       9.273  -5.584  -4.482  0.00  0.00    +0.002 A 
ATOM     16  C   UNL     1      10.020  -6.547  -3.826  0.00  0.00    +0.020 A 
ATOM     17  C   UNL     1       9.497  -7.211  -2.728  0.00  0.00    +0.042 A 
ATOM     18  C   UNL     1       8.229  -6.910  -2.276  0.00  0.00    +0.028 A 
ATOM     19 CL   UNL     1      10.444  -8.417  -1.915  0.00  0.00    -0.084 Cl
ENDBRANCH   9  13
BRANCH   2  20
ATOM     20  O   UNL     1      -0.008  -3.881  -5.804  0.00  0.00    -0.506 OA
ATOM     21  H   UNL     1      -0.089  -2.928  -5.944  0.00  0.00    +0.292 HD
ENDBRANCH   2  20
BRANCH   1  22
ATOM     22  C   UNL     1       0.995  -3.938  -3.175  0.00  0.00    -0.036 C 
BRANCH  22  23
ATOM     23  N   UNL     1       1.304  -2.544  -2.832  0.00  0.00    +0.383 N 
ATOM     24  H   UNL     1       2.299  -2.444  -2.695  0.00  0.00    -0.081 HD
BRANCH  23  25
ATOM     25  C   UNL     1       0.871  -1.663  -3.925  0.00  0.00    -0.078 C 
BRANCH  25  26
ATOM     26  C   UNL     1       1.304  -0.227  -3.625  0.00  0.00    -0.019 C 
BRANCH  26  28
ATOM     27  C   UNL     1       1.285   2.127  -4.463  0.00  0.00    +0.004 C 
ATOM     28  C   UNL     1       0.852   0.691  -4.763  0.00  0.00    -0.005 C 
ENDBRANCH  26  28
ENDBRANCH  25  26
ENDBRANCH  23  25
BRANCH  23  29
ATOM     29  C   UNL     1       0.600  -2.175  -1.597  0.00  0.00    -0.078 C 
BRANCH  29  30
ATOM     30  C   UNL     1       1.159  -2.989  -0.428  0.00  0.00    -0.019 C 
BRANCH  30  31
ATOM     31  C   UNL     1       0.366  -2.671   0.841  0.00  0.00    -0.005 C 
ATOM     32  C   UNL     1       0.844  -3.573   1.980  0.00  0.00    +0.004 C 
ENDBRANCH  30  31
ENDBRANCH  29  30
ENDBRANCH  23  29
ENDBRANCH  22  23
ENDBRANCH   1  22
TORSDOF 10
