REMARK  Name = ZINC12447690
REMARK  7 active torsions:
REMARK  status: ('A' for Active; 'I' for Inactive)
REMARK    1  A    between atoms: C_1  and  C_2
REMARK    2  A    between atoms: C_5  and  C_8
REMARK    3  A    between atoms: C_13  and  C_23
REMARK    4  A    between atoms: C_25  and  N_32
REMARK    5  A    between atoms: C_26  and  O_31
REMARK    6  A    between atoms: C_27  and  O_29
REMARK    7  A    between atoms: O_29  and  C_30
REMARK                            x       y       z     vdW  Elec       q    Type
REMARK                         _______ _______ _______ _____ _____    ______ ____
ROOT
ATOM      1  C   UNL     1       5.518   2.723  -3.869  0.00  0.00    +0.032 C 
ATOM      2  C   UNL     1       4.434   3.748  -3.543  0.00  0.00    +0.059 C 
ATOM      3  C   UNL     1       4.043   3.640  -2.078  0.00  0.00    +0.017 C 
ATOM      4  C   UNL     1       4.067   2.451  -1.455  0.00  0.00    +0.036 C 
ATOM      5  C   UNL     1       3.671   2.193  -0.021  0.00  0.00    +0.136 C 
ATOM      6  N   UNL     1       3.493   3.389   0.775  0.00  0.00    -0.331 N 
ATOM      7  C   UNL     1       2.482   4.304   0.484  0.00  0.00    +0.049 A 
ATOM      8  C   UNL     1       1.435   4.530   1.363  0.00  0.00    +0.025 A 
ATOM      9  C   UNL     1       0.430   5.414   1.011  0.00  0.00    +0.002 A 
ATOM     10  C   UNL     1       0.467   6.066  -0.208  0.00  0.00    +0.002 A 
ATOM     11  C   UNL     1       1.521   5.856  -1.082  0.00  0.00    +0.025 A 
ATOM     12  C   UNL     1       2.537   4.988  -0.722  0.00  0.00    +0.052 A 
ATOM     13  N   UNL     1       3.674   4.812  -1.502  0.00  0.00    -0.316 N 
ATOM     14  C   UNL     1       4.494   1.292  -2.146  0.00  0.00    +0.163 C 
ATOM     15  O   UNL     1       4.492   0.227  -1.560  0.00  0.00    -0.292 OA
ATOM     16  C   UNL     1       4.948   1.330  -3.574  0.00  0.00    +0.088 C 
ATOM     17  H   UNL     1       4.161   3.589   1.626  0.00  0.00    +0.147 HD
ATOM     18  H   UNL     1       4.292   5.712  -1.640  0.00  0.00    +0.152 HD
ENDROOT
BRANCH   1  23
ATOM     19  C   UNL     1       6.965   3.109  -9.450  0.00  0.00    +0.044 C 
ATOM     20  C   UNL     1       6.588   3.008  -7.995  0.00  0.00    -0.050 A 
ATOM     21  C   UNL     1       7.542   3.217  -7.017  0.00  0.00    +0.003 A 
ATOM     22  C   UNL     1       7.196   3.125  -5.682  0.00  0.00    +0.004 A 
ATOM     23  C   UNL     1       5.895   2.823  -5.324  0.00  0.00    -0.043 A 
ATOM     24  C   UNL     1       4.942   2.609  -6.302  0.00  0.00    +0.004 A 
ATOM     25  C   UNL     1       5.287   2.705  -7.637  0.00  0.00    +0.003 A 
ENDBRANCH   1  23
BRANCH   5  26
ATOM     26  C   UNL     1       2.379   1.417  -0.013  0.00  0.00    -0.017 A 
ATOM     27  C   UNL     1       1.222   2.000  -0.495  0.00  0.00    +0.042 A 
ATOM     28  C   UNL     1       0.034   1.292  -0.489  0.00  0.00    +0.171 A 
ATOM     29  C   UNL     1       0.002  -0.004  -0.001  0.00  0.00    +0.189 A 
ATOM     30  C   UNL     1       1.167  -0.591   0.484  0.00  0.00    +0.164 A 
ATOM     31  C   UNL     1       2.354   0.124   0.476  0.00  0.00    +0.055 A 
BRANCH  28  32
ATOM     32  N   UNL     1      -1.202   1.917  -1.012  0.00  0.00    +0.060 N 
ATOM     33  O   UNL     1      -1.174   3.056  -1.441  0.00  0.00    -0.126 OA
ATOM     34  O   UNL     1      -2.247   1.291  -1.012  0.00  0.00    -0.126 OA
ENDBRANCH  28  32
BRANCH  30  35
ATOM     35  O   UNL     1       1.141  -1.863   0.965  0.00  0.00    -0.491 OA
ATOM     36  C   UNL     1       2.375  -2.400   1.446  0.00  0.00    +0.277 C 
ENDBRANCH  30  35
BRANCH  29  37
ATOM     37  O   UNL     1      -1.165  -0.702   0.006  0.00  0.00    -0.502 OA
ATOM     38  H   UNL     1      -1.189  -1.730   0.394  0.00  0.00    +0.292 HD
ENDBRANCH  29  37
ENDBRANCH   5  26
TORSDOF 5
