REMARK  Name = ZINC08636169
REMARK  11 active torsions:
REMARK  status: ('A' for Active; 'I' for Inactive)
REMARK    1  A    between atoms: C_1  and  C_2
REMARK    2  A    between atoms: C_2  and  C_3
REMARK    3  A    between atoms: C_2  and  C_4
REMARK    4  A    between atoms: C_4  and  C_5
REMARK    5  A    between atoms: C_8  and  N_68
REMARK    6  A    between atoms: C_13  and  C_26
REMARK    7  A    between atoms: C_26  and  O_28
REMARK    8  A    between atoms: O_28  and  C_29
REMARK    9  A    between atoms: C_30  and  C_31
REMARK   10  A    between atoms: C_30  and  N_68
REMARK   11  A    between atoms: C_31  and  C_32
REMARK                            x       y       z     vdW  Elec       q    Type
REMARK                         _______ _______ _______ _____ _____    ______ ____
ROOT
ATOM      1  C   UNL     1      -2.074   1.429   0.133  0.00  0.00    -0.068 C 
ATOM      2  C   UNL     1      -1.343   0.917  -1.110  0.00  0.00    -0.031 C 
ATOM      3  C   UNL     1       0.169   0.966  -0.870  0.00  0.00    -0.075 C 
ATOM      4  C   UNL     1       0.512   0.141   0.374  0.00  0.00    -0.025 C 
ATOM      5  C   UNL     1      -0.269   0.690   1.570  0.00  0.00    -0.021 C 
ATOM      6  C   UNL     1      -2.517   0.922   2.468  0.00  0.00    +0.048 C 
ATOM      7  C   UNL     1      -2.389  -0.207   3.500  0.00  0.00    +0.033 C 
ATOM      8  C   UNL     1      -0.925  -0.526   3.669  0.00  0.00    -0.022 A 
ATOM      9  C   UNL     1       0.033  -0.125   2.801  0.00  0.00    +0.006 A 
ATOM     10  N   UNL     1       1.256  -0.569   3.224  0.00  0.00    -0.359 N 
ATOM     11  H   UNL     1       2.096  -0.409   2.766  0.00  0.00    +0.166 HD
ATOM     12  C   UNL     1       1.115  -1.271   4.386  0.00  0.00    +0.047 A 
ATOM     13  C   UNL     1      -0.266  -1.274   4.716  0.00  0.00    +0.003 A 
ATOM     14  C   UNL     1      -0.735  -1.919   5.864  0.00  0.00    +0.010 A 
ATOM     15  C   UNL     1       0.199  -2.545   6.652  0.00  0.00    +0.001 A 
ATOM     16  C   UNL     1       1.547  -2.544   6.335  0.00  0.00    +0.002 A 
ATOM     17  C   UNL     1       2.041  -1.914   5.205  0.00  0.00    +0.026 A 
ATOM     18  N   UNL     1      -1.714   0.561   1.274  0.00  0.00    +0.396 N 
ATOM     19  H   UNL     1      -1.915  -0.415   1.024  0.00  0.00    -0.079 HD
ENDROOT
BRANCH   3  20
ATOM     20  N   UNL     1       0.864   0.403  -2.042  0.00  0.00    +0.381 N 
ATOM     21  H   UNL     1       0.345   0.646  -2.894  0.00  0.00    -0.086 HD
ATOM     22  H   UNL     1       0.910  -0.619  -1.950  0.00  0.00    -0.086 HD
BRANCH  20  23
ATOM     23  C   UNL     1       2.233   0.945  -2.135  0.00  0.00    -0.076 C 
BRANCH  23  24
ATOM     24  C   UNL     1       2.929   0.344  -3.358  0.00  0.00    +0.038 C 
BRANCH  24  25
ATOM     25  C   UNL     1       4.328   0.893  -3.460  0.00  0.00    +0.057 A 
ATOM     26  C   UNL     1       5.461   0.167  -3.526  0.00  0.00    +0.107 A 
ATOM     27  N   UNL     1       6.497   1.057  -3.610  0.00  0.00    -0.351 N 
ATOM     28  H   UNL     1       7.470   0.831  -3.672  0.00  0.00    +0.166 HD
ATOM     29  C   UNL     1       5.962   2.297  -3.591  0.00  0.00    +0.196 A 
ATOM     30  N   UNL     1       4.664   2.191  -3.507  0.00  0.00    -0.241 NA
ENDBRANCH  24  25
ENDBRANCH  23  24
ENDBRANCH  20  23
ENDBRANCH   3  20
BRANCH   6  31
ATOM     31  C   UNL     1      -2.028   2.213   3.072  0.00  0.00    +0.294 C 
ATOM     32  O   UNL     1      -1.238   2.901   2.469  0.00  0.00    -0.253 OA
BRANCH  31  33
ATOM     33  O   UNL     1      -2.468   2.598   4.280  0.00  0.00    -0.469 OA
ATOM     34  C   UNL     1      -1.954   3.853   4.799  0.00  0.00    +0.280 C 
ENDBRANCH  31  33
ENDBRANCH   6  31
BRANCH   1  35
ATOM     35  C   UNL     1      -3.585   1.353  -0.096  0.00  0.00    -0.012 C 
BRANCH  35  37
ATOM     36  C   UNL     1      -5.449   2.035  -1.613  0.00  0.00    +0.007 C 
ATOM     37  C   UNL     1      -3.964   2.222  -1.296  0.00  0.00    -0.019 C 
ATOM     38  C   UNL     1      -3.693   3.692  -0.967  0.00  0.00    +0.007 C 
ENDBRANCH  35  37
ENDBRANCH   1  35
TORSDOF 8
