REMARK  Name = ZINC62626275
REMARK  9 active torsions:
REMARK  status: ('A' for Active; 'I' for Inactive)
REMARK    1  A    between atoms: C_1  and  C_2
REMARK    2  A    between atoms: C_2  and  C_24
REMARK    3  A    between atoms: N_5  and  N_9
REMARK    4  A    between atoms: C_10  and  C_12
REMARK    5  A    between atoms: C_12  and  N_13
REMARK    6  A    between atoms: N_13  and  C_14
REMARK    7  A    between atoms: C_14  and  C_17
REMARK    8  A    between atoms: C_27  and  O_30
REMARK    9  A    between atoms: O_30  and  C_31
REMARK                            x       y       z     vdW  Elec       q    Type
REMARK                         _______ _______ _______ _____ _____    ______ ____
ROOT
ATOM      1  C   UNL     1      -0.345   1.162  -0.484  0.00  0.00    +0.047 C 
ATOM      2  C   UNL     1      -0.310  -0.352  -0.699  0.00  0.00    +0.137 C 
ATOM      3  C   UNL     1       0.645  -0.709  -1.821  0.00  0.00    +0.267 C 
ATOM      4  O   UNL     1       0.570  -0.369  -2.982  0.00  0.00    -0.271 OA
ATOM      5  N   UNL     1       1.595  -1.482  -1.259  0.00  0.00    -0.137 N 
ATOM      6  C   UNL     1       1.375  -1.662   0.049  0.00  0.00    +0.327 C 
ATOM      7  O   UNL     1       2.096  -2.323   0.770  0.00  0.00    -0.251 OA
ATOM      8  N   UNL     1       0.267  -1.030   0.475  0.00  0.00    -0.280 N 
ATOM      9  H   UNL     1      -0.084  -1.021   1.379  0.00  0.00    +0.152 HD
ENDROOT
BRANCH   2  10
ATOM     10  C   UNL     1      -1.693  -0.878  -0.988  0.00  0.00    -0.015 A 
ATOM     11  C   UNL     1      -2.138  -0.966  -2.294  0.00  0.00    +0.010 A 
ATOM     12  C   UNL     1      -3.405  -1.447  -2.562  0.00  0.00    +0.046 A 
ATOM     13  C   UNL     1      -4.231  -1.841  -1.519  0.00  0.00    +0.120 A 
ATOM     14  C   UNL     1      -3.781  -1.752  -0.209  0.00  0.00    +0.046 A 
ATOM     15  C   UNL     1      -2.511  -1.276   0.053  0.00  0.00    +0.010 A 
BRANCH  13  16
ATOM     16  O   UNL     1      -5.478  -2.314  -1.779  0.00  0.00    -0.495 OA
ATOM     17  C   UNL     1      -6.272  -2.702  -0.656  0.00  0.00    +0.277 C 
ENDBRANCH  13  16
ENDBRANCH   2  10
BRANCH   5  18
ATOM     18  N   UNL     1       2.678  -2.031  -1.958  0.00  0.00    -0.223 N 
ATOM     19  C   UNL     1       3.910  -1.506  -1.811  0.00  0.00    +0.244 C 
ATOM     20  O   UNL     1       4.082  -0.558  -1.074  0.00  0.00    -0.273 OA
ATOM     21  H   UNL     1       2.541  -2.789  -2.547  0.00  0.00    +0.174 HD
BRANCH  19  22
ATOM     22  C   UNL     1       5.076  -2.096  -2.562  0.00  0.00    +0.179 C 
BRANCH  22  23
ATOM     23  N   UNL     1       6.298  -1.352  -2.233  0.00  0.00    -0.299 NA
ATOM     24  H   UNL     1       6.216  -0.383  -2.505  0.00  0.00    +0.123 HD
BRANCH  23  25
ATOM     25  C   UNL     1       7.476  -1.974  -2.852  0.00  0.00    +0.045 C 
ATOM     26  C   UNL     1       8.379  -1.083  -3.707  0.00  0.00    +0.029 C 
ATOM     27  C   UNL     1       7.479  -2.124  -4.375  0.00  0.00    +0.029 C 
BRANCH  25  28
ATOM     28  C   UNL     1       8.136  -3.062  -2.045  0.00  0.00    -0.027 A 
ATOM     29  C   UNL     1       9.247  -3.716  -2.543  0.00  0.00    +0.006 A 
ATOM     30  C   UNL     1       9.853  -4.714  -1.803  0.00  0.00    +0.015 A 
ATOM     31  C   UNL     1       9.346  -5.059  -0.563  0.00  0.00    +0.018 A 
ATOM     32  C   UNL     1       8.234  -4.405  -0.065  0.00  0.00    +0.015 A 
ATOM     33  C   UNL     1       7.632  -3.404  -0.803  0.00  0.00    +0.006 A 
ATOM     34 BR   UNL     1      10.173  -6.425   0.450  0.00  0.00    -0.050 Br
ENDBRANCH  25  28
ENDBRANCH  23  25
ENDBRANCH  22  23
ENDBRANCH  19  22
ENDBRANCH   5  18
TORSDOF 7
