REMARK  Name = ZINC16975394
REMARK  10 active torsions:
REMARK  status: ('A' for Active; 'I' for Inactive)
REMARK    1  A    between atoms: C_1  and  O_2
REMARK    2  A    between atoms: O_2  and  C_3
REMARK    3  A    between atoms: C_6  and  O_34
REMARK    4  A    between atoms: C_9  and  C_20
REMARK    5  A    between atoms: C_11  and  C_13
REMARK    6  A    between atoms: C_20  and  C_22
REMARK    7  A    between atoms: C_20  and  O_33
REMARK    8  A    between atoms: C_22  and  N_67
REMARK    9  A    between atoms: C_23  and  N_67
REMARK   10  A    between atoms: O_34  and  C_35
REMARK                            x       y       z     vdW  Elec       q    Type
REMARK                         _______ _______ _______ _____ _____    ______ ____
ROOT
ATOM      1  C   UNL     1      -6.453  -0.559   3.708  0.00  0.00    +0.130 A 
ATOM      2  C   UNL     1      -6.463  -1.277   4.883  0.00  0.00    +0.050 A 
ATOM      3  C   UNL     1      -7.157  -0.810   5.996  0.00  0.00    +0.051 A 
ATOM      4  C   UNL     1      -7.846   0.368   5.953  0.00  0.00    +0.146 A 
ATOM      5  C   UNL     1      -7.861   1.131   4.767  0.00  0.00    +0.117 A 
ATOM      6  C   UNL     1      -7.155   0.659   3.633  0.00  0.00    +0.051 A 
ATOM      7  C   UNL     1      -7.169   1.421   2.449  0.00  0.00    -0.006 A 
ATOM      8  C   UNL     1      -7.863   2.594   2.444  0.00  0.00    +0.035 A 
ATOM      9  C   UNL     1      -8.546   3.006   3.599  0.00  0.00    +0.072 A 
ATOM     10  N   UNL     1      -8.528   2.286   4.704  0.00  0.00    -0.243 NA
ENDROOT
BRANCH   9  11
ATOM     11  C   UNL     1      -9.302   4.282   3.577  0.00  0.00    +0.000 A 
ATOM     12  C   UNL     1      -9.328   5.060   2.421  0.00  0.00    +0.011 A 
ATOM     13  C   UNL     1     -10.037   6.244   2.404  0.00  0.00    +0.020 A 
ATOM     14  C   UNL     1     -10.712   6.665   3.537  0.00  0.00    +0.041 A 
ATOM     15  C   UNL     1     -10.685   5.898   4.690  0.00  0.00    +0.020 A 
ATOM     16  C   UNL     1      -9.983   4.710   4.715  0.00  0.00    +0.011 A 
ATOM     17 CL   UNL     1     -11.597   8.158   3.513  0.00  0.00    -0.084 Cl
ENDBRANCH   9  11
BRANCH   1  19
ATOM     18  C   UNL     1      -5.083  -2.267   2.781  0.00  0.00    +0.277 C 
ATOM     19  O   UNL     1      -5.771  -1.024   2.628  0.00  0.00    -0.494 OA
ENDBRANCH   1  19
BRANCH   4  20
ATOM     20  O   UNL     1      -8.517   0.804   7.051  0.00  0.00    -0.493 OA
ATOM     21  C   UNL     1      -8.459  -0.020   8.217  0.00  0.00    +0.277 C 
ENDBRANCH   4  20
BRANCH   7  22
ATOM     22  C   UNL     1      -6.430   0.954   1.221  0.00  0.00    +0.128 C 
BRANCH  22  23
ATOM     23  O   UNL     1      -6.990   1.577   0.063  0.00  0.00    -0.389 OA
ATOM     24  H   UNL     1      -6.943   2.543   0.075  0.00  0.00    +0.210 HD
ENDBRANCH  22  23
BRANCH  22  25
ATOM     25  C   UNL     1      -4.953   1.333   1.340  0.00  0.00    -0.045 C 
BRANCH  25  26
ATOM     26  N   UNL     1      -4.237   0.873   0.135  0.00  0.00    +0.385 N 
ATOM     27  H   UNL     1      -4.647   1.321  -0.694  0.00  0.00    -0.085 HD
ATOM     28  H   UNL     1      -4.331  -0.146   0.054  0.00  0.00    -0.085 HD
BRANCH  26  29
ATOM     29  C   UNL     1      -2.808   1.226   0.222  0.00  0.00    -0.067 C 
ATOM     30  C   UNL     1      -2.093   0.737  -1.040  0.00  0.00    -0.009 C 
ATOM     31  C   UNL     1      -0.609   1.099  -0.957  0.00  0.00    -0.012 C 
ATOM     32  C   UNL     1       0.012   0.431   0.271  0.00  0.00    +0.007 C 
ATOM     33  C   UNL     1      -0.703   0.920   1.533  0.00  0.00    -0.012 C 
ATOM     34  C   UNL     1      -2.188   0.558   1.450  0.00  0.00    -0.009 C 
ATOM     35  C   UNL     1      -0.554   2.438   1.648  0.00  0.00    +0.007 C 
ATOM     36  C   UNL     1      -1.174   3.106   0.419  0.00  0.00    -0.012 C 
ATOM     37  C   UNL     1      -0.459   2.617  -0.842  0.00  0.00    +0.007 C 
ATOM     38  C   UNL     1      -2.659   2.744   0.337  0.00  0.00    -0.009 C 
ENDBRANCH  26  29
ENDBRANCH  25  26
ENDBRANCH  22  25
ENDBRANCH   7  22
TORSDOF 8
