REMARK  Name = ZINC14741315
REMARK  6 active torsions:
REMARK  status: ('A' for Active; 'I' for Inactive)
REMARK    1  A    between atoms: C_1  and  N_2
REMARK    2  A    between atoms: C_5  and  C_7
REMARK    3  A    between atoms: C_20  and  N_24
REMARK    4  A    between atoms: N_24  and  C_25
REMARK    5  A    between atoms: C_25  and  C_26
REMARK    6  A    between atoms: C_28  and  C_31
REMARK                            x       y       z     vdW  Elec       q    Type
REMARK                         _______ _______ _______ _____ _____    ______ ____
ROOT
ATOM      1  C   UNL     1      -5.961  -6.243  -1.772  0.00  0.00    +0.172 C 
ATOM      2  N   UNL     1      -5.533  -4.995  -2.409  0.00  0.00    -0.270 N 
ATOM      3  C   UNL     1      -4.468  -4.267  -2.036  0.00  0.00    +0.043 A 
ATOM      4  C   UNL     1      -4.407  -3.193  -2.861  0.00  0.00    +0.007 A 
ATOM      5  C   UNL     1      -5.491  -3.324  -3.745  0.00  0.00    +0.151 A 
ATOM      6  N   UNL     1      -6.122  -4.435  -3.408  0.00  0.00    -0.166 NA
ATOM      7  C   UNL     1      -3.360  -2.116  -2.786  0.00  0.00    +0.058 C 
ATOM      8  C   UNL     1      -2.664  -2.215  -1.421  0.00  0.00    +0.059 C 
ATOM      9  C   UNL     1      -2.240  -3.664  -1.168  0.00  0.00    +0.025 C 
ATOM     10  C   UNL     1      -3.482  -4.531  -0.926  0.00  0.00    +0.057 C 
ENDROOT
BRANCH   5  11
ATOM     11  C   UNL     1      -5.854  -2.400  -4.838  0.00  0.00    +0.267 C 
ATOM     12  O   UNL     1      -5.251  -1.353  -4.976  0.00  0.00    -0.268 OA
ATOM     13  N   UNL     1      -6.855  -2.716  -5.684  0.00  0.00    -0.292 N 
ATOM     14  C   UNL     1      -7.188  -1.857  -6.832  0.00  0.00    +0.113 C 
ATOM     15  C   UNL     1      -6.915  -2.650  -8.108  0.00  0.00    +0.054 C 
ATOM     16  C   UNL     1      -7.510  -4.031  -8.020  0.00  0.00    -0.041 A 
ATOM     17  C   UNL     1      -7.729  -4.716  -9.209  0.00  0.00    +0.004 A 
ATOM     18  C   UNL     1      -8.261  -5.988  -9.198  0.00  0.00    +0.000 A 
ATOM     19  C   UNL     1      -8.581  -6.590  -7.995  0.00  0.00    +0.000 A 
ATOM     20  C   UNL     1      -8.368  -5.910  -6.813  0.00  0.00    +0.005 A 
ATOM     21  C   UNL     1      -7.837  -4.628  -6.823  0.00  0.00    -0.027 A 
ATOM     22  C   UNL     1      -7.651  -3.934  -5.501  0.00  0.00    +0.143 C 
ENDBRANCH   5  11
BRANCH   8  23
ATOM     23  N   UNL     1      -1.478  -1.349  -1.413  0.00  0.00    -0.307 NA
ATOM     24  H   UNL     1      -0.625  -1.891  -1.846  0.00  0.00    +0.123 HD
BRANCH  23  25
ATOM     25  C   UNL     1      -1.132  -0.943  -0.044  0.00  0.00    +0.140 C 
BRANCH  25  26
ATOM     26  C   UNL     1       0.087  -0.057  -0.076  0.00  0.00    +0.098 A 
ATOM     27  C   UNL     1       0.104   1.353  -0.097  0.00  0.00    +0.077 A 
ATOM     28  C   UNL     1       1.436   1.664  -0.121  0.00  0.00    +0.168 A 
ATOM     29  O   UNL     1       2.095   0.492  -0.113  0.00  0.00    -0.354 OA
ATOM     30  N   UNL     1       1.330  -0.445  -0.088  0.00  0.00    -0.081 NA
BRANCH  28  31
ATOM     31  C   UNL     1       2.031   3.017  -0.150  0.00  0.00    +0.020 A 
ATOM     32  C   UNL     1       1.208   4.145  -0.160  0.00  0.00    +0.011 A 
ATOM     33  C   UNL     1       1.770   5.405  -0.182  0.00  0.00    +0.001 A 
ATOM     34  C   UNL     1       3.146   5.552  -0.203  0.00  0.00    +0.000 A 
ATOM     35  C   UNL     1       3.967   4.438  -0.199  0.00  0.00    +0.001 A 
ATOM     36  C   UNL     1       3.418   3.173  -0.172  0.00  0.00    +0.011 A 
ENDBRANCH  28  31
ENDBRANCH  25  26
ENDBRANCH  23  25
ENDBRANCH   8  23
TORSDOF 5
