REMARK  Name = ZINC09287501
REMARK  5 active torsions:
REMARK  status: ('A' for Active; 'I' for Inactive)
REMARK    1  A    between atoms: C_1  and  C_2
REMARK    2  A    between atoms: C_5  and  C_8
REMARK    3  A    between atoms: C_17  and  C_19
REMARK    4  A    between atoms: C_23  and  C_26
REMARK    5  A    between atoms: C_26  and  C_27
REMARK                            x       y       z     vdW  Elec       q    Type
REMARK                         _______ _______ _______ _____ _____    ______ ____
ROOT
ATOM      1  C   UNL     1      -5.550  -3.817   5.031  0.00  0.00    +0.220 C 
ATOM      2  C   UNL     1      -4.023  -2.126   4.269  0.00  0.00    +0.165 C 
ATOM      3  N   UNL     1      -3.036  -2.853   4.926  0.00  0.00    -0.259 N 
ATOM      4  C   UNL     1      -3.155  -4.226   4.878  0.00  0.00    +0.207 A 
ATOM      5  N   UNL     1      -4.420  -4.742   4.903  0.00  0.00    -0.255 N 
ATOM      6  C   UNL     1      -4.605  -6.071   4.815  0.00  0.00    +0.257 A 
ATOM      7  O   UNL     1      -5.729  -6.546   4.814  0.00  0.00    -0.267 OA
ATOM      8  C   UNL     1      -3.471  -6.901   4.724  0.00  0.00    +0.093 A 
ATOM      9  C   UNL     1      -2.232  -6.330   4.721  0.00  0.00    +0.047 A 
ATOM     10  N   UNL     1      -2.103  -5.005   4.797  0.00  0.00    -0.221 NA
ATOM     11  C   UNL     1      -1.005  -7.200   4.631  0.00  0.00    +0.066 C 
ATOM     12  N   UNL     1      -3.718  -0.958   3.611  0.00  0.00    -0.305 N 
ATOM     13  C   UNL     1      -4.764  -0.197   2.914  0.00  0.00    +0.108 C 
ATOM     14  C   UNL     1      -4.320   0.039   1.467  0.00  0.00    +0.023 C 
ATOM     15  C   UNL     1      -2.945   0.711   1.462  0.00  0.00    -0.004 C 
ATOM     16  C   UNL     1      -1.924  -0.209   2.137  0.00  0.00    +0.023 C 
ATOM     17  C   UNL     1      -2.341  -0.447   3.592  0.00  0.00    +0.108 C 
ATOM     18  H   UNL     1      -2.305  -2.421   5.394  0.00  0.00    +0.158 HD
ATOM     19  N   UNL     1      -5.296  -2.550   4.256  0.00  0.00    -0.337 N 
ATOM     20  H   UNL     1      -6.041  -2.050   3.756  0.00  0.00    +0.164 HD
ENDROOT
BRANCH   1  25
ATOM     21  C   UNL     1      -6.398  -2.560  10.607  0.00  0.00    +0.044 C 
ATOM     22  C   UNL     1      -6.177  -2.888   9.153  0.00  0.00    -0.050 A 
ATOM     23  C   UNL     1      -6.487  -1.956   8.180  0.00  0.00    +0.004 A 
ATOM     24  C   UNL     1      -6.284  -2.257   6.846  0.00  0.00    +0.008 A 
ATOM     25  C   UNL     1      -5.771  -3.489   6.485  0.00  0.00    -0.005 A 
ATOM     26  C   UNL     1      -5.467  -4.423   7.458  0.00  0.00    +0.008 A 
ATOM     27  C   UNL     1      -5.665  -4.120   8.793  0.00  0.00    +0.004 A 
ENDBRANCH   1  25
BRANCH  15  28
ATOM     28  C   UNL     1      -2.514   0.980   0.019  0.00  0.00    +0.038 C 
BRANCH  28  29
ATOM     29  C   UNL     1      -1.219   1.751   0.017  0.00  0.00    -0.047 A 
ATOM     30  C   UNL     1      -0.013   1.076   0.008  0.00  0.00    +0.003 A 
ATOM     31  C   UNL     1       1.175   1.783   0.000  0.00  0.00    +0.000 A 
ATOM     32  C   UNL     1       1.156   3.165   0.008  0.00  0.00    +0.000 A 
ATOM     33  C   UNL     1      -0.050   3.840   0.022  0.00  0.00    +0.000 A 
ATOM     34  C   UNL     1      -1.238   3.133   0.030  0.00  0.00    +0.003 A 
ENDBRANCH  28  29
ENDBRANCH  15  28
TORSDOF 3
