REMARK  Name = ZINC37538316
REMARK  10 active torsions:
REMARK  status: ('A' for Active; 'I' for Inactive)
REMARK    1  A    between atoms: C_1  and  C_2
REMARK    2  A    between atoms: C_11  and  O_16
REMARK    3  A    between atoms: C_13  and  C_14
REMARK    4  A    between atoms: C_13  and  C_15
REMARK    5  A    between atoms: C_17  and  C_18
REMARK    6  A    between atoms: C_17  and  C_19
REMARK    7  A    between atoms: C_19  and  C_20
REMARK    8  A    between atoms: C_21  and  O_32
REMARK    9  A    between atoms: C_25  and  O_26
REMARK   10  A    between atoms: C_27  and  O_31
REMARK                            x       y       z     vdW  Elec       q    Type
REMARK                         _______ _______ _______ _____ _____    ______ ____
ROOT
ATOM      1  C   UNL     1      -0.241   1.471   1.140  0.00  0.00    +0.008 C 
ATOM      2  C   UNL     1      -0.194  -0.058   1.097  0.00  0.00    -0.004 C 
ATOM      3  C   UNL     1      -1.411  -0.626   1.829  0.00  0.00    +0.005 C 
ATOM      4  C   UNL     1      -1.419  -2.151   1.710  0.00  0.00    +0.009 C 
ATOM      5  C   UNL     1      -0.175  -2.721   2.397  0.00  0.00    +0.023 C 
ATOM      6  C   UNL     1       1.051  -2.067   1.828  0.00  0.00    -0.063 C 
ATOM      7  C   UNL     1       2.079  -2.722   1.374  0.00  0.00    -0.024 C 
ATOM      8  C   UNL     1       2.156  -4.222   1.361  0.00  0.00    +0.059 C 
ATOM      9  C   UNL     1       1.259  -4.776   2.473  0.00  0.00    +0.124 C 
ATOM     10  C   UNL     1      -0.147  -4.233   2.254  0.00  0.00    -0.002 C 
ATOM     11  C   UNL     1      -1.080  -4.855   3.295  0.00  0.00    +0.014 C 
ATOM     12  C   UNL     1      -0.631  -4.615   0.853  0.00  0.00    +0.014 C 
ATOM     13  C   UNL     1       1.086  -0.549   1.778  0.00  0.00    -0.004 C 
ATOM     14  C   UNL     1       1.161   0.011   3.200  0.00  0.00    +0.016 C 
ENDROOT
BRANCH   9  15
ATOM     15  O   UNL     1       1.242  -6.204   2.410  0.00  0.00    -0.391 OA
ATOM     16  H   UNL     1       2.112  -6.613   2.517  0.00  0.00    +0.210 HD
ENDBRANCH   9  15
BRANCH  13  17
ATOM     17  C   UNL     1       2.306  -0.088   0.978  0.00  0.00    +0.053 C 
BRANCH  17  18
ATOM     18  C   UNL     1       2.406   1.415   1.036  0.00  0.00    +0.037 A 
ATOM     19  C   UNL     1       2.167   2.171  -0.102  0.00  0.00    +0.124 A 
ATOM     20  C   UNL     1       2.260   3.555  -0.047  0.00  0.00    +0.052 A 
ATOM     21  C   UNL     1       2.589   4.178   1.139  0.00  0.00    -0.007 A 
ATOM     22  C   UNL     1       2.828   3.424   2.277  0.00  0.00    +0.055 A 
ATOM     23  C   UNL     1       2.732   2.043   2.228  0.00  0.00    +0.132 A 
ATOM     24  C   UNL     1       3.159   4.388   3.392  0.00  0.00    +0.283 C 
ATOM     25  O   UNL     1       2.690   5.676   2.954  0.00  0.00    -0.343 OA
ATOM     26  C   UNL     1       2.766   5.630   1.517  0.00  0.00    +0.199 C 
BRANCH  23  27
ATOM     27  O   UNL     1       2.960   1.305   3.346  0.00  0.00    -0.506 OA
ATOM     28  H   UNL     1       3.883   1.042   3.462  0.00  0.00    +0.292 HD
ENDBRANCH  23  27
BRANCH  24  29
ATOM     29  O   UNL     1       2.489   4.001   4.593  0.00  0.00    -0.363 OA
ATOM     30  H   UNL     1       2.662   4.582   5.346  0.00  0.00    +0.213 HD
ENDBRANCH  24  29
BRANCH  19  31
ATOM     31  O   UNL     1       1.843   1.557  -1.270  0.00  0.00    -0.506 OA
ATOM     32  H   UNL     1       0.893   1.428  -1.396  0.00  0.00    +0.292 HD
ENDBRANCH  19  31
ENDBRANCH  17  18
ENDBRANCH  13  17
TORSDOF 6
