REMARK  Name = ZINC43262462
REMARK  7 active torsions:
REMARK  status: ('A' for Active; 'I' for Inactive)
REMARK    1  A    between atoms: C_1  and  C_2
REMARK    2  A    between atoms: C_2  and  C_4
REMARK    3  A    between atoms: C_2  and  N_23
REMARK    4  A    between atoms: C_4  and  C_6
REMARK    5  A    between atoms: C_4  and  N_12
REMARK    6  A    between atoms: C_17  and  C_19
REMARK    7  A    between atoms: N_21  and  C_22
REMARK                            x       y       z     vdW  Elec       q    Type
REMARK                         _______ _______ _______ _____ _____    ______ ____
ROOT
ATOM      1  C   UNL     1       1.290  -1.347   1.383  0.00  0.00    +0.080 C 
ENDROOT
BRANCH   1   2
ATOM      2  C   UNL     1       1.908  -2.577   1.997  0.00  0.00    +0.006 A 
ATOM      3  C   UNL     1       3.173  -3.047   1.878  0.00  0.00    +0.014 A 
ATOM      4  C   UNL     1       3.522  -4.210   2.539  0.00  0.00    +0.023 A 
ATOM      5  C   UNL     1       2.587  -4.846   3.288  0.00  0.00    +0.055 A 
ATOM      6  S   UNL     1       1.163  -3.789   3.077  0.00  0.00    -0.085 S 
ATOM      7 BR   UNL     1       2.750  -6.436   4.298  0.00  0.00    -0.043 Br
ENDBRANCH   1   2
BRANCH   1   8
ATOM      8  N   UNL     1       0.610  -0.568   2.426  0.00  0.00    -0.286 NA
ATOM      9  C   UNL     1      -0.564  -1.288   2.939  0.00  0.00    +0.086 C 
ATOM     10  C   UNL     1      -1.328  -0.390   3.914  0.00  0.00    +0.015 C 
ATOM     11  C   UNL     1      -0.404   0.005   5.069  0.00  0.00    +0.003 C 
ATOM     12  C   UNL     1       0.833   0.709   4.505  0.00  0.00    +0.028 C 
ATOM     13  C   UNL     1       1.535  -0.221   3.512  0.00  0.00    +0.143 C 
BRANCH  13  14
ATOM     14  C   UNL     1       2.743   0.475   2.939  0.00  0.00    +0.230 C 
ATOM     15  O   UNL     1       2.641   1.126   1.921  0.00  0.00    -0.274 OA
ATOM     16  N   UNL     1       3.935   0.375   3.559  0.00  0.00    -0.317 N 
ATOM     17  C   UNL     1       5.109   1.052   3.002  0.00  0.00    +0.128 C 
ATOM     18  H   UNL     1       4.017  -0.145   4.373  0.00  0.00    +0.148 HD
ENDBRANCH  13  14
ENDBRANCH   1   8
BRANCH   1  20
ATOM     19  C   UNL     1      -0.349  -0.515  -0.308  0.00  0.00    -0.012 C 
ATOM     20  C   UNL     1       0.277  -1.764   0.315  0.00  0.00    -0.056 C 
BRANCH  20  21
ATOM     21  N   UNL     1       0.958  -2.543  -0.728  0.00  0.00    +0.381 N 
ATOM     22  H   UNL     1       0.290  -2.817  -1.433  0.00  0.00    -0.090 HD
ATOM     23  H   UNL     1       1.680  -1.979  -1.151  0.00  0.00    -0.090 HD
ATOM     24  H   UNL     1       1.371  -3.366  -0.317  0.00  0.00    -0.090 HD
ENDBRANCH  20  21
ENDBRANCH   1  20
TORSDOF 5
