REMARK  Name = ZINC03338018
REMARK  7 active torsions:
REMARK  status: ('A' for Active; 'I' for Inactive)
REMARK    1  A    between atoms: C_1  and  C_2
REMARK    2  A    between atoms: C_2  and  O_3
REMARK    3  A    between atoms: O_3  and  C_4
REMARK    4  A    between atoms: C_9  and  C_10
REMARK    5  A    between atoms: C_12  and  C_25
REMARK    6  A    between atoms: C_18  and  C_21
REMARK    7  A    between atoms: C_25  and  C_27
REMARK                            x       y       z     vdW  Elec       q    Type
REMARK                         _______ _______ _______ _____ _____    ______ ____
ROOT
ATOM      1  C   UNL     1      -2.983   0.982  -1.417  0.00  0.00    +0.142 C 
ATOM      2  C   UNL     1      -2.593   1.347   0.022  0.00  0.00    +0.151 C 
ATOM      3  S   UNL     1      -3.920   2.381   0.713  0.00  0.00    -0.071 S 
ATOM      4  C   UNL     1      -4.156   3.438  -0.681  0.00  0.00    +0.210 A 
ATOM      5  N   UNL     1      -4.830   4.553  -0.742  0.00  0.00    -0.121 NA
ATOM      6  N   UNL     1      -4.775   5.022  -1.941  0.00  0.00    -0.123 NA
ATOM      7  C   UNL     1      -4.064   4.234  -2.700  0.00  0.00    +0.255 A 
ATOM      8  N   UNL     1      -3.637   3.197  -1.922  0.00  0.00    -0.217 N 
ATOM      9  N   UNL     1      -2.857   2.148  -2.292  0.00  0.00    -0.272 N 
ATOM     10  H   UNL     1      -3.024   1.897  -3.255  0.00  0.00    +0.167 HD
ENDROOT
BRANCH   1  16
ATOM     11  C   UNL     1      -2.376  -1.441  -1.637  0.00  0.00    +0.126 A 
ATOM     12  C   UNL     1      -1.540  -2.449  -2.097  0.00  0.00    +0.046 A 
ATOM     13  C   UNL     1      -0.415  -2.129  -2.831  0.00  0.00    +0.004 A 
ATOM     14  C   UNL     1      -0.119  -0.807  -3.107  0.00  0.00    +0.001 A 
ATOM     15  C   UNL     1      -0.953   0.199  -2.654  0.00  0.00    +0.009 A 
ATOM     16  C   UNL     1      -2.078  -0.115  -1.915  0.00  0.00    +0.017 A 
BRANCH  11  17
ATOM     17  O   UNL     1      -3.484  -1.752  -0.915  0.00  0.00    -0.492 OA
BRANCH  17  19
ATOM     18  C   UNL     1      -5.011  -3.291   0.153  0.00  0.00    +0.048 C 
ATOM     19  C   UNL     1      -3.729  -3.138  -0.667  0.00  0.00    +0.225 C 
ENDBRANCH  17  19
ENDBRANCH  11  17
ENDBRANCH   1  16
BRANCH   7  20
ATOM     20  C   UNL     1      -3.768   4.433  -4.164  0.00  0.00    +0.454 C 
ATOM     21  F   UNL     1      -4.074   5.749  -4.527  0.00  0.00    -0.163 F 
ATOM     22  F   UNL     1      -2.412   4.186  -4.403  0.00  0.00    -0.163 F 
ATOM     23  F   UNL     1      -4.543   3.548  -4.921  0.00  0.00    -0.163 F 
ENDBRANCH   7  20
BRANCH   2  24
ATOM     24  C   UNL     1      -1.297   2.116   0.020  0.00  0.00    +0.179 C 
ATOM     25  O   UNL     1      -1.311   3.329   0.026  0.00  0.00    -0.291 OA
BRANCH  24  26
ATOM     26  C   UNL     1      -0.017   1.396   0.010  0.00  0.00    +0.022 A 
ATOM     27  C   UNL     1       0.002  -0.004   0.002  0.00  0.00    +0.015 A 
ATOM     28  C   UNL     1       1.204  -0.674  -0.012  0.00  0.00    +0.050 A 
ATOM     29  C   UNL     1       2.402   0.032  -0.019  0.00  0.00    +0.162 A 
ATOM     30  C   UNL     1       2.391   1.426  -0.013  0.00  0.00    +0.163 A 
ATOM     31  C   UNL     1       1.189   2.107   0.002  0.00  0.00    +0.060 A 
ATOM     32  O   UNL     1       3.555   2.131  -0.024  0.00  0.00    -0.485 OA
ATOM     33  C   UNL     1       4.743   1.417   0.338  0.00  0.00    +0.270 C 
ATOM     34  C   UNL     1       4.745   0.078  -0.411  0.00  0.00    +0.270 C 
ATOM     35  O   UNL     1       3.576  -0.653  -0.028  0.00  0.00    -0.485 OA
ENDBRANCH  24  26
ENDBRANCH   2  24
TORSDOF 6
