REMARK  Name = ZINC39658721
REMARK  9 active torsions:
REMARK  status: ('A' for Active; 'I' for Inactive)
REMARK    1  A    between atoms: C_1  and  C_2
REMARK    2  A    between atoms: C_3  and  C_13
REMARK    3  A    between atoms: C_4  and  C_7
REMARK    4  A    between atoms: C_17  and  C_26
REMARK    5  A    between atoms: N_28  and  C_29
REMARK    6  A    between atoms: C_29  and  C_30
REMARK    7  A    between atoms: C_30  and  S_31
REMARK    8  A    between atoms: S_31  and  C_32
REMARK    9  A    between atoms: C_32  and  C_33
REMARK                            x       y       z     vdW  Elec       q    Type
REMARK                         _______ _______ _______ _____ _____    ______ ____
ROOT
ATOM      1  C   UNL     1      -2.446  -0.423   0.250  0.00  0.00    +0.252 C 
ATOM      2  O   UNL     1      -3.139  -0.352  -0.748  0.00  0.00    -0.270 OA
ATOM      3  N   UNL     1      -2.969  -0.126   1.456  0.00  0.00    -0.296 N 
ATOM      4  C   UNL     1      -2.267  -0.060   2.759  0.00  0.00    +0.121 C 
ATOM      5  C   UNL     1      -2.892   1.157   3.478  0.00  0.00    +0.100 C 
ATOM      6  C   UNL     1      -4.277   1.326   2.831  0.00  0.00    -0.004 C 
ATOM      7  C   UNL     1      -4.376   0.214   1.778  0.00  0.00    +0.115 C 
ATOM      8  C   UNL     1      -4.383   2.692   2.159  0.00  0.00    -0.010 C 
ATOM      9  C   UNL     1      -5.788   2.859   1.573  0.00  0.00    -0.082 C 
ATOM     10  N   UNL     1      -6.784   2.739   2.645  0.00  0.00    +0.379 N 
ATOM     11  C   UNL     1      -6.738   1.391   3.224  0.00  0.00    -0.082 C 
ATOM     12  C   UNL     1      -5.373   1.162   3.879  0.00  0.00    -0.010 C 
ATOM     13  H   UNL     1      -6.587   3.420   3.363  0.00  0.00    -0.086 HD
ATOM     14  H   UNL     1      -7.704   2.910   2.267  0.00  0.00    -0.086 HD
ENDROOT
BRANCH   1  17
ATOM     15  C   UNL     1      -0.035   1.463  -0.381  0.00  0.00    +0.090 C 
ATOM     16  C   UNL     1       0.027  -0.022  -0.135  0.00  0.00    +0.147 A 
ATOM     17  C   UNL     1      -1.036  -0.832   0.139  0.00  0.00    +0.106 A 
ATOM     18  C   UNL     1      -0.501  -2.192   0.303  0.00  0.00    +0.126 A 
ATOM     19  N   UNL     1       0.793  -2.117   0.125  0.00  0.00    -0.077 NA
ATOM     20  O   UNL     1       1.132  -0.773  -0.154  0.00  0.00    -0.359 OA
BRANCH  18  21
ATOM     21  C   UNL     1      -1.281  -3.416   0.612  0.00  0.00    +0.004 A 
ATOM     22  C   UNL     1      -2.396  -3.343   1.445  0.00  0.00    +0.010 A 
ATOM     23  C   UNL     1      -3.118  -4.485   1.728  0.00  0.00    +0.001 A 
ATOM     24  C   UNL     1      -2.736  -5.700   1.189  0.00  0.00    +0.000 A 
ATOM     25  C   UNL     1      -1.629  -5.778   0.362  0.00  0.00    +0.001 A 
ATOM     26  C   UNL     1      -0.904  -4.642   0.067  0.00  0.00    +0.010 A 
ENDBRANCH  18  21
ENDBRANCH   1  17
BRANCH   5  27
ATOM     27  C   UNL     1      -2.051   2.387   3.253  0.00  0.00    +0.218 C 
ATOM     28  O   UNL     1      -1.353   2.473   2.264  0.00  0.00    -0.275 OA
ATOM     29  N   UNL     1      -2.075   3.393   4.150  0.00  0.00    -0.314 N 
ATOM     30  H   UNL     1      -2.633   3.325   4.940  0.00  0.00    +0.149 HD
BRANCH  29  31
ATOM     31  C   UNL     1      -1.258   4.589   3.931  0.00  0.00    +0.115 C 
BRANCH  31  32
ATOM     32  C   UNL     1      -1.467   5.568   5.088  0.00  0.00    +0.088 C 
BRANCH  32  33
ATOM     33  S   UNL     1      -0.455   7.049   4.817  0.00  0.00    -0.155 S 
BRANCH  33  34
ATOM     34  C   UNL     1      -0.813   8.094   6.256  0.00  0.00    +0.104 C 
BRANCH  34  35
ATOM     35  C   UNL     1      -0.025   9.375   6.155  0.00  0.00    -0.038 A 
ATOM     36  C   UNL     1       1.243   9.451   6.699  0.00  0.00    +0.004 A 
ATOM     37  C   UNL     1       1.966  10.626   6.606  0.00  0.00    +0.000 A 
ATOM     38  C   UNL     1       1.419  11.725   5.969  0.00  0.00    +0.000 A 
ATOM     39  C   UNL     1       0.151  11.649   5.425  0.00  0.00    +0.000 A 
ATOM     40  C   UNL     1      -0.570  10.472   5.514  0.00  0.00    +0.004 A 
ENDBRANCH  34  35
ENDBRANCH  33  34
ENDBRANCH  32  33
ENDBRANCH  31  32
ENDBRANCH  29  31
ENDBRANCH   5  27
TORSDOF 8
