REMARK  Name = ZINC03349807
REMARK  4 active torsions:
REMARK  status: ('A' for Active; 'I' for Inactive)
REMARK    1  A    between atoms: C_4  and  C_7
REMARK    2  A    between atoms: C_7  and  N_8
REMARK    3  A    between atoms: N_10  and  C_11
REMARK    4  A    between atoms: C_21  and  C_23
REMARK                            x       y       z     vdW  Elec       q    Type
REMARK                         _______ _______ _______ _____ _____    ______ ____
ROOT
ATOM      1  N   UNL     1      -2.096   9.074  -0.124  0.00  0.00    -0.226 N 
ATOM      2  C   UNL     1      -3.332   9.292   0.475  0.00  0.00    +0.178 C 
ATOM      3  N   UNL     1      -3.537  10.294   1.300  0.00  0.00    -0.225 NA
ATOM      4  S   UNL     1      -4.612   8.143   0.063  0.00  0.00    -0.059 S 
ATOM      5  C   UNL     1      -3.671   6.654   0.073  0.00  0.00    +0.076 C 
ATOM      6  C   UNL     1      -2.339   6.653   0.061  0.00  0.00    +0.094 C 
ATOM      7  N   UNL     1      -1.537   7.797   0.065  0.00  0.00    -0.258 N 
ATOM      8  H   UNL     1      -0.580   7.708   0.198  0.00  0.00    +0.170 HD
ENDROOT
BRANCH   6   9
ATOM      9  C   UNL     1      -1.661   5.349   0.047  0.00  0.00    +0.152 A 
ATOM     10  C   UNL     1      -2.287   4.142   0.046  0.00  0.00    +0.059 A 
ATOM     11  C   UNL     1      -1.225   3.135   0.031  0.00  0.00    +0.021 A 
ATOM     12  C   UNL     1      -1.208   1.739   0.017  0.00  0.00    +0.011 A 
ATOM     13  C   UNL     1      -0.013   1.076   0.008  0.00  0.00    +0.001 A 
ATOM     14  C   UNL     1       1.182   1.782   0.000  0.00  0.00    +0.004 A 
ATOM     15  C   UNL     1       1.185   3.161   0.008  0.00  0.00    +0.047 A 
ATOM     16  C   UNL     1      -0.017   3.856   0.023  0.00  0.00    +0.136 A 
ATOM     17  O   UNL     1      -0.325   5.169   0.034  0.00  0.00    -0.453 OA
ENDBRANCH   6   9
BRANCH   3  18
ATOM     18  C   UNL     1      -4.771  10.473   1.867  0.00  0.00    +0.068 A 
ATOM     19  C   UNL     1      -5.923  10.375   1.085  0.00  0.00    +0.029 A 
ATOM     20  C   UNL     1      -7.163  10.550   1.663  0.00  0.00    +0.023 A 
ATOM     21  C   UNL     1      -7.267  10.833   3.015  0.00  0.00    +0.059 A 
ATOM     22  C   UNL     1      -6.127  10.937   3.796  0.00  0.00    +0.061 A 
ATOM     23  C   UNL     1      -4.881  10.758   3.230  0.00  0.00    +0.049 A 
ATOM     24 CL   UNL     1      -6.267  11.292   5.489  0.00  0.00    -0.082 Cl
ATOM     25 CL   UNL     1      -8.831  11.059   3.733  0.00  0.00    -0.082 Cl
ENDBRANCH   3  18
BRANCH   1  26
ATOM     26  C   UNL     1      -1.417  10.113  -0.902  0.00  0.00    +0.165 C 
BRANCH  26  30
ATOM     27  C   UNL     1      -2.862  10.058  -4.922  0.00  0.00    +0.000 A 
ATOM     28  C   UNL     1      -3.485  10.848  -3.974  0.00  0.00    +0.000 A 
ATOM     29  C   UNL     1      -3.017  10.866  -2.673  0.00  0.00    +0.005 A 
ATOM     30  C   UNL     1      -1.927  10.093  -2.320  0.00  0.00    -0.028 A 
ATOM     31  C   UNL     1      -1.301   9.306  -3.269  0.00  0.00    +0.005 A 
ATOM     32  C   UNL     1      -1.771   9.285  -4.569  0.00  0.00    +0.000 A 
ENDBRANCH  26  30
ENDBRANCH   1  26
TORSDOF 4
