REMARK  Name = ZINC39006756
REMARK  7 active torsions:
REMARK  status: ('A' for Active; 'I' for Inactive)
REMARK    1  A    between atoms: C_1  and  C_2
REMARK    2  A    between atoms: C_5  and  C_8
REMARK    3  A    between atoms: C_10  and  C_14
REMARK    4  A    between atoms: C_18  and  S_22
REMARK    5  A    between atoms: N_20  and  N_21
REMARK    6  A    between atoms: S_22  and  C_23
REMARK    7  A    between atoms: C_23  and  C_24
REMARK                            x       y       z     vdW  Elec       q    Type
REMARK                         _______ _______ _______ _____ _____    ______ ____
ROOT
ATOM      1  C   UNL     1       1.360  -7.179   0.980  0.00  0.00    +0.185 C 
ATOM      2  N   UNL     1       1.391  -7.321   2.459  0.00  0.00    -0.234 NA
ATOM      3  N   UNL     1       2.272  -8.482   2.663  0.00  0.00    -0.228 NA
ATOM      4  C   UNL     1       1.932  -9.404   1.556  0.00  0.00    +0.214 C 
ATOM      5  N   UNL     1       1.352  -8.573   0.478  0.00  0.00    -0.197 NA
ATOM      6  H   UNL     1       1.774  -6.495   2.894  0.00  0.00    +0.143 HD
ATOM      7  H   UNL     1       2.101  -8.913   3.559  0.00  0.00    +0.143 HD
ENDROOT
BRANCH   1  10
ATOM      8  C   UNL     1       0.062  -4.255  -0.013  0.00  0.00    +0.091 C 
ATOM      9  C   UNL     1       0.074  -5.029   1.089  0.00  0.00    +0.034 C 
ATOM     10  C   UNL     1       0.092  -6.444   0.539  0.00  0.00    +0.187 C 
ATOM     11  N   UNL     1       0.087  -6.238  -0.918  0.00  0.00    -0.176 NA
ATOM     12  N   UNL     1       0.065  -5.024  -1.133  0.00  0.00    -0.154 NA
BRANCH   8  17
ATOM     13  C   UNL     1      -0.016   1.504   0.019  0.00  0.00    +0.044 C 
ATOM     14  C   UNL     1       0.004  -0.003   0.011  0.00  0.00    -0.050 A 
ATOM     15  C   UNL     1       0.006  -0.686  -1.192  0.00  0.00    +0.004 A 
ATOM     16  C   UNL     1       0.025  -2.066  -1.206  0.00  0.00    +0.010 A 
ATOM     17  C   UNL     1       0.042  -2.771  -0.004  0.00  0.00    +0.002 A 
ATOM     18  C   UNL     1       0.040  -2.079   1.205  0.00  0.00    +0.010 A 
ATOM     19  C   UNL     1       0.026  -0.699   1.206  0.00  0.00    +0.004 A 
ENDBRANCH   8  17
ENDBRANCH   1  10
BRANCH   5  20
ATOM     20  N   UNL     1       2.126  -8.689  -0.747  0.00  0.00    -0.264 NA
ATOM     21  H   UNL     1       2.121  -9.638  -1.089  0.00  0.00    +0.137 HD
ATOM     22  H   UNL     1       1.788  -8.050  -1.451  0.00  0.00    +0.137 HD
ENDBRANCH   5  20
BRANCH   4  23
ATOM     23  S   UNL     1       3.429 -10.238   0.960  0.00  0.00    -0.115 S 
BRANCH  23  24
ATOM     24  C   UNL     1       4.513  -8.878   0.446  0.00  0.00    +0.168 C 
BRANCH  24  25
ATOM     25  C   UNL     1       5.810  -9.440  -0.078  0.00  0.00    +0.228 C 
ATOM     26  O   UNL     1       5.985 -10.640  -0.102  0.00  0.00    -0.275 OA
ATOM     27  N   UNL     1       6.775  -8.610  -0.519  0.00  0.00    -0.270 N 
ATOM     28  C   UNL     1       8.014  -9.122  -0.904  0.00  0.00    +0.125 A 
ATOM     29  C   UNL     1       9.039  -8.252  -1.258  0.00  0.00    +0.045 A 
ATOM     30  C   UNL     1      10.263  -8.773  -1.638  0.00  0.00    +0.025 A 
ATOM     31  C   UNL     1      10.420 -10.153  -1.651  0.00  0.00    +0.059 A 
ATOM     32  C   UNL     1       9.357 -10.958  -1.288  0.00  0.00    +0.132 A 
ATOM     33  N   UNL     1       8.204 -10.431  -0.924  0.00  0.00    -0.239 NA
ATOM     34 CL   UNL     1      11.935 -10.859  -2.121  0.00  0.00    -0.082 Cl
ATOM     35  H   UNL     1       6.608  -7.655  -0.569  0.00  0.00    +0.156 HD
ENDBRANCH  24  25
ENDBRANCH  23  24
ENDBRANCH   4  23
TORSDOF 6
