REMARK  Name = ZINC12929190
REMARK  4 active torsions:
REMARK  status: ('A' for Active; 'I' for Inactive)
REMARK    1  A    between atoms: C_12  and  C_14
REMARK    2  A    between atoms: C_14  and  N_15
REMARK    3  A    between atoms: N_18  and  S_21
REMARK    4  A    between atoms: S_21  and  C_24
REMARK                            x       y       z     vdW  Elec       q    Type
REMARK                         _______ _______ _______ _____ _____    ______ ____
ROOT
ATOM      1  N   UNL     1      -4.950   5.542  -0.283  0.00  0.00    -0.293 NA
ATOM      2  C   UNL     1      -4.365   5.712   1.054  0.00  0.00    +0.102 C 
ATOM      3  C   UNL     1      -3.680   7.080   1.137  0.00  0.00    +0.125 C 
ATOM      4  N   UNL     1      -4.651   8.113   0.748  0.00  0.00    -0.174 NA
ATOM      5  C   UNL     1      -5.380   7.941  -0.518  0.00  0.00    +0.125 C 
ATOM      6  C   UNL     1      -5.999   6.539  -0.537  0.00  0.00    +0.102 C 
ENDROOT
BRANCH   4   7
ATOM      7  S   UNL     1      -4.917   9.435   1.709  0.00  0.00    +0.062 S 
ATOM      8  O   UNL     1      -6.275   9.808   1.520  0.00  0.00    -0.153 OA
ATOM      9  O   UNL     1      -4.384   9.121   2.988  0.00  0.00    -0.153 OA
BRANCH   7  10
ATOM     10  C   UNL     1      -3.939  10.752   1.065  0.00  0.00    +0.125 A 
ATOM     11  C   UNL     1      -4.551  11.867   0.524  0.00  0.00    +0.050 A 
ATOM     12  C   UNL     1      -3.783  12.903   0.024  0.00  0.00    +0.043 A 
ATOM     13  C   UNL     1      -2.402  12.819   0.055  0.00  0.00    +0.021 A 
ATOM     14  C   UNL     1      -1.790  11.702   0.591  0.00  0.00    +0.023 A 
ATOM     15  C   UNL     1      -2.558  10.668   1.096  0.00  0.00    +0.067 A 
ATOM     16 CL   UNL     1      -1.790   9.264   1.770  0.00  0.00    -0.082 Cl
ATOM     17 CL   UNL     1      -4.552  14.307  -0.649  0.00  0.00    -0.083 Cl
ENDBRANCH   7  10
ENDBRANCH   4   7
BRANCH   1  18
ATOM     18  C   UNL     1      -5.467   4.178  -0.463  0.00  0.00    +0.158 C 
BRANCH  18  30
ATOM     19  C   UNL     1       0.321   2.472  -0.035  0.00  0.00    +0.022 A 
ATOM     20  C   UNL     1      -0.747   3.340  -0.063  0.00  0.00    +0.030 A 
ATOM     21  C   UNL     1      -2.039   2.843  -0.240  0.00  0.00    +0.078 A 
ATOM     22  C   UNL     1      -2.230   1.451  -0.394  0.00  0.00    +0.066 A 
ATOM     23  C   UNL     1      -1.138   0.588  -0.358  0.00  0.00    +0.035 A 
ATOM     24  C   UNL     1       0.129   1.103  -0.182  0.00  0.00    +0.042 A 
ATOM     25 CL   UNL     1       1.496   0.034  -0.143  0.00  0.00    -0.084 Cl
ATOM     26  C   UNL     1      -3.605   0.960  -0.574  0.00  0.00    +0.259 A 
ATOM     27  O   UNL     1      -3.839  -0.228  -0.708  0.00  0.00    -0.267 OA
ATOM     28  N   UNL     1      -4.598   1.878  -0.589  0.00  0.00    -0.309 N 
ATOM     29  H   UNL     1      -5.642   1.558  -0.724  0.00  0.00    +0.170 HD
ATOM     30  C   UNL     1      -4.321   3.200  -0.438  0.00  0.00    +0.124 A 
ATOM     31  N   UNL     1      -3.119   3.663  -0.273  0.00  0.00    -0.232 NA
ENDBRANCH  18  30
ENDBRANCH   1  18
TORSDOF 4
