REMARK  Name = ZINC06161769
REMARK  7 active torsions:
REMARK  status: ('A' for Active; 'I' for Inactive)
REMARK    1  A    between atoms: C_1  and  C_2
REMARK    2  A    between atoms: C_5  and  C_8
REMARK    3  A    between atoms: C_8  and  N_9
REMARK    4  A    between atoms: C_14  and  C_16
REMARK    5  A    between atoms: N_19  and  S_22
REMARK    6  A    between atoms: S_22  and  C_25
REMARK    7  A    between atoms: C_28  and  C_31
REMARK                            x       y       z     vdW  Elec       q    Type
REMARK                         _______ _______ _______ _____ _____    ______ ____
ROOT
ATOM      1  N   UNL     1       1.356   2.010  -0.000  0.00  0.00    -0.224 N 
ATOM      2  C   UNL     1       2.112   2.298  -1.102  0.00  0.00    +0.164 A 
ATOM      3  C   UNL     1       3.352   2.751  -0.616  0.00  0.00    +0.195 A 
ATOM      4  C   UNL     1       4.333   3.122  -1.554  0.00  0.00    +0.303 A 
ATOM      5  N   UNL     1       4.044   3.027  -2.844  0.00  0.00    -0.194 NA
ATOM      6  C   UNL     1       2.864   2.595  -3.253  0.00  0.00    +0.116 A 
ATOM      7  N   UNL     1       1.915   2.237  -2.416  0.00  0.00    -0.326 N 
ATOM      8  O   UNL     1       5.546   3.566  -1.147  0.00  0.00    -0.263 OA
ATOM      9  N   UNL     1       3.303   2.721   0.727  0.00  0.00    -0.122 NA
ATOM     10  N   UNL     1       2.151   2.300   1.119  0.00  0.00    -0.063 NA
ATOM     11  H   UNL     1       1.037   1.916  -2.770  0.00  0.00    +0.169 HD
ENDROOT
BRANCH   6  12
ATOM     12  C   UNL     1       2.595   2.510  -4.734  0.00  0.00    +0.058 C 
ATOM     13  C   UNL     1       3.601   1.555  -5.380  0.00  0.00    +0.028 C 
ATOM     14  C   UNL     1       3.303   1.444  -6.878  0.00  0.00    +0.110 C 
ATOM     15  N   UNL     1       3.294   2.793  -7.460  0.00  0.00    -0.177 NA
ATOM     16  C   UNL     1       2.429   3.816  -6.856  0.00  0.00    +0.110 C 
ATOM     17  C   UNL     1       2.736   3.901  -5.358  0.00  0.00    +0.028 C 
BRANCH  15  18
ATOM     18  S   UNL     1       4.240   3.154  -8.770  0.00  0.00    +0.061 S 
ATOM     19  O   UNL     1       4.493   1.927  -9.439  0.00  0.00    -0.153 OA
ATOM     20  O   UNL     1       3.632   4.264  -9.417  0.00  0.00    -0.153 OA
BRANCH  18  21
ATOM     21  C   UNL     1       5.791   3.720  -8.152  0.00  0.00    +0.106 A 
ATOM     22  C   UNL     1       5.987   5.065  -7.905  0.00  0.00    +0.029 A 
ATOM     23  C   UNL     1       7.202   5.508  -7.416  0.00  0.00    +0.014 A 
ATOM     24  C   UNL     1       8.224   4.606  -7.184  0.00  0.00    +0.055 A 
ATOM     25  C   UNL     1       8.029   3.261  -7.436  0.00  0.00    +0.014 A 
ATOM     26  C   UNL     1       6.813   2.818  -7.921  0.00  0.00    +0.029 A 
BRANCH  24  27
ATOM     27  C   UNL     1       9.550   5.090  -6.656  0.00  0.00    +0.417 C 
ATOM     28  F   UNL     1      10.391   5.408  -7.728  0.00  0.00    -0.166 F 
ATOM     29  F   UNL     1       9.351   6.226  -5.865  0.00  0.00    -0.166 F 
ATOM     30  F   UNL     1      10.140   4.082  -5.884  0.00  0.00    -0.166 F 
ENDBRANCH  24  27
ENDBRANCH  18  21
ENDBRANCH  15  18
ENDBRANCH   6  12
BRANCH   1  31
ATOM     31  C   UNL     1      -0.018   1.503   0.010  0.00  0.00    +0.182 C 
BRANCH  31  36
ATOM     32  C   UNL     1       0.061  -4.276  -0.022  0.00  0.00    +0.044 C 
ATOM     33  C   UNL     1       0.039  -2.769  -0.013  0.00  0.00    -0.050 A 
ATOM     34  C   UNL     1       0.042  -2.084   1.188  0.00  0.00    +0.004 A 
ATOM     35  C   UNL     1       0.023  -0.702   1.195  0.00  0.00    +0.006 A 
ATOM     36  C   UNL     1       0.002  -0.004   0.002  0.00  0.00    -0.026 A 
ATOM     37  C   UNL     1      -0.006  -0.689  -1.199  0.00  0.00    +0.006 A 
ATOM     38  C   UNL     1       0.018  -2.071  -1.207  0.00  0.00    +0.004 A 
ENDBRANCH  31  36
ENDBRANCH   1  31
TORSDOF 6
