REMARK  Name = ZINC20489156
REMARK  6 active torsions:
REMARK  status: ('A' for Active; 'I' for Inactive)
REMARK    1  A    between atoms: C_1  and  C_2
REMARK    2  A    between atoms: C_15  and  C_16
REMARK    3  A    between atoms: N_18  and  C_19
REMARK    4  A    between atoms: C_19  and  C_20
REMARK    5  A    between atoms: C_20  and  O_21
REMARK    6  A    between atoms: O_21  and  C_22
REMARK                            x       y       z     vdW  Elec       q    Type
REMARK                         _______ _______ _______ _____ _____    ______ ____
ROOT
ATOM      1  C   UNL     1      -1.156   3.582   4.986  0.00  0.00    +0.251 C 
ATOM      2  O   UNL     1      -2.220   4.148   5.154  0.00  0.00    -0.270 OA
ATOM      3  N   UNL     1      -0.705   3.353   3.737  0.00  0.00    -0.309 N 
ATOM      4  H   UNL     1       0.257   2.842   3.584  0.00  0.00    +0.149 HD
ENDROOT
BRANCH   1  19
ATOM      5  C   UNL     1      -1.923   3.969   7.900  0.00  0.00    +0.046 C 
ATOM      6  C   UNL     1      -0.651   3.286   7.469  0.00  0.00    -0.017 A 
ATOM      7  C   UNL     1       0.239   2.793   8.426  0.00  0.00    +0.076 A 
ATOM      8  C   UNL     1       1.412   2.186   7.922  0.00  0.00    +0.116 A 
ATOM      9  N   UNL     1       2.340   1.702   8.729  0.00  0.00    -0.226 NA
ATOM     10  C   UNL     1       2.231   1.739  10.039  0.00  0.00    +0.114 A 
ATOM     11  N   UNL     1       1.112   2.216  10.633  0.00  0.00    -0.296 N 
ATOM     12  C   UNL     1       0.138   2.810   9.900  0.00  0.00    +0.263 A 
ATOM     13  O   UNL     1      -0.807   3.348  10.448  0.00  0.00    -0.267 OA
ATOM     14  C   UNL     1       0.863   2.086  12.072  0.00  0.00    +0.126 C 
ATOM     15  C   UNL     1       2.175   1.985  12.845  0.00  0.00    +0.022 C 
ATOM     16  C   UNL     1       3.003   0.846  12.236  0.00  0.00    +0.009 C 
ATOM     17  C   UNL     1       3.427   1.270  10.831  0.00  0.00    +0.074 C 
ATOM     18  S   UNL     1       1.205   2.300   6.162  0.00  0.00    -0.064 S 
ATOM     19  C   UNL     1      -0.366   3.147   6.142  0.00  0.00    +0.079 A 
ENDBRANCH   1  19
BRANCH   3  20
ATOM     20  C   UNL     1      -1.494   3.787   2.582  0.00  0.00    +0.132 C 
BRANCH  20  21
ATOM     21  C   UNL     1      -0.762   3.410   1.292  0.00  0.00    +0.179 C 
BRANCH  21  22
ATOM     22  O   UNL     1      -0.688   1.987   1.186  0.00  0.00    -0.372 OA
BRANCH  22  23
ATOM     23  C   UNL     1      -0.019   1.526   0.010  0.00  0.00    +0.070 C 
ATOM     24  C   UNL     1       1.417   2.055  -0.000  0.00  0.00    +0.038 C 
ATOM     25  C   UNL     1       2.133   1.562  -1.259  0.00  0.00    -0.008 C 
ATOM     26  C   UNL     1       2.154   0.032  -1.268  0.00  0.00    +0.007 C 
ATOM     27  C   UNL     1       0.718  -0.497  -1.257  0.00  0.00    -0.008 C 
ATOM     28  C   UNL     1       0.002  -0.004   0.002  0.00  0.00    +0.038 C 
ATOM     29  C   UNL     1      -0.022   0.009  -2.496  0.00  0.00    +0.007 C 
ATOM     30  C   UNL     1      -0.043   1.539  -2.488  0.00  0.00    -0.008 C 
ATOM     31  C   UNL     1       1.393   2.069  -2.499  0.00  0.00    +0.007 C 
ATOM     32  C   UNL     1      -0.759   2.033  -1.229  0.00  0.00    +0.038 C 
ENDBRANCH  22  23
ENDBRANCH  21  22
ENDBRANCH  20  21
ENDBRANCH   3  20
TORSDOF 5
