REMARK  Name = ZINC35991197
REMARK  10 active torsions:
REMARK  status: ('A' for Active; 'I' for Inactive)
REMARK    1  A    between atoms: C_1  and  C_2
REMARK    2  A    between atoms: C_2  and  O_3
REMARK    3  A    between atoms: O_3  and  C_4
REMARK    4  A    between atoms: C_4  and  C_6
REMARK    5  A    between atoms: C_7  and  C_25
REMARK    6  A    between atoms: N_8  and  C_22
REMARK    7  A    between atoms: C_12  and  C_14
REMARK    8  A    between atoms: C_22  and  C_23
REMARK    9  A    between atoms: C_25  and  N_26
REMARK   10  A    between atoms: C_31  and  C_33
REMARK                            x       y       z     vdW  Elec       q    Type
REMARK                         _______ _______ _______ _____ _____    ______ ____
ROOT
ATOM      1  C   UNL     1      -3.131  -2.508   0.430  0.00  0.00    +0.077 C 
ATOM      2  C   UNL     1      -3.465  -3.703  -0.103  0.00  0.00    +0.011 C 
ATOM      3  N   UNL     1      -4.738  -3.955  -0.527  0.00  0.00    -0.257 N 
ATOM      4  C   UNL     1      -5.735  -3.064  -0.453  0.00  0.00    +0.307 C 
ATOM      5  O   UNL     1      -6.837  -3.381  -0.856  0.00  0.00    -0.252 OA
ATOM      6  N   UNL     1      -5.557  -1.829   0.056  0.00  0.00    -0.288 N 
ATOM      7  C   UNL     1      -4.219  -1.460   0.547  0.00  0.00    +0.145 C 
ATOM      8  H   UNL     1      -6.294  -1.199   0.100  0.00  0.00    +0.151 HD
ENDROOT
BRANCH   7   9
ATOM      9  C   UNL     1      -4.341  -1.077   2.000  0.00  0.00    -0.004 A 
ATOM     10  C   UNL     1      -5.235  -1.745   2.817  0.00  0.00    +0.008 A 
ATOM     11  C   UNL     1      -5.348  -1.395   4.149  0.00  0.00    +0.020 A 
ATOM     12  C   UNL     1      -4.566  -0.376   4.666  0.00  0.00    +0.042 A 
ATOM     13  C   UNL     1      -3.672   0.292   3.849  0.00  0.00    +0.040 A 
ATOM     14  C   UNL     1      -3.556  -0.062   2.516  0.00  0.00    +0.048 A 
ATOM     15 CL   UNL     1      -2.430   0.771   1.491  0.00  0.00    -0.083 Cl
ATOM     16 CL   UNL     1      -4.709   0.064   6.339  0.00  0.00    -0.083 Cl
ENDBRANCH   7   9
BRANCH   1  17
ATOM     17  C   UNL     1      -1.812  -2.246   0.870  0.00  0.00    +0.339 C 
ATOM     18  O   UNL     1      -1.074  -1.550   0.198  0.00  0.00    -0.245 OA
BRANCH  17  19
ATOM     19  O   UNL     1      -1.374  -2.767   2.035  0.00  0.00    -0.462 OA
BRANCH  19  21
ATOM     20  C   UNL     1       0.284  -3.134   3.755  0.00  0.00    +0.048 C 
ATOM     21  C   UNL     1      -0.031  -2.461   2.418  0.00  0.00    +0.229 C 
ENDBRANCH  19  21
ENDBRANCH  17  19
ENDBRANCH   1  17
BRANCH   3  22
ATOM     22  C   UNL     1      -5.029  -5.273  -1.095  0.00  0.00    +0.141 C 
BRANCH  22  23
ATOM     23  C   UNL     1      -5.597  -6.168  -0.024  0.00  0.00    -0.015 C 
ATOM     24  C   UNL     1      -6.763  -6.741  -0.199  0.00  0.00    +0.005 C 
ENDBRANCH  22  23
ENDBRANCH   3  22
BRANCH   2  25
ATOM     25  C   UNL     1      -2.414  -4.776  -0.233  0.00  0.00    -0.026 C 
BRANCH  25  26
ATOM     26  N   UNL     1      -2.003  -4.891  -1.639  0.00  0.00    +0.385 N 
ATOM     27  C   UNL     1      -1.354  -3.645  -2.061  0.00  0.00    -0.078 C 
ATOM     28  C   UNL     1      -0.997  -3.729  -3.547  0.00  0.00    -0.019 C 
ATOM     29  C   UNL     1      -0.042  -4.905  -3.771  0.00  0.00    -0.003 C 
ATOM     30  C   UNL     1      -0.701  -6.189  -3.258  0.00  0.00    -0.016 C 
ATOM     31  C   UNL     1      -1.069  -6.014  -1.783  0.00  0.00    -0.071 C 
ATOM     32  C   UNL     1      -1.727  -7.295  -1.266  0.00  0.00    -0.013 C 
ATOM     33  H   UNL     1      -2.817  -5.056  -2.213  0.00  0.00    -0.081 HD
ENDBRANCH  25  26
ENDBRANCH   2  25
TORSDOF 8
