REMARK  Name = ZINC18222516
REMARK  8 active torsions:
REMARK  status: ('A' for Active; 'I' for Inactive)
REMARK    1  A    between atoms: C_1  and  C_2
REMARK    2  A    between atoms: C_2  and  C_3
REMARK    3  A    between atoms: N_10  and  N_11
REMARK    4  A    between atoms: N_11  and  C_12
REMARK    5  A    between atoms: C_12  and  N_14
REMARK    6  A    between atoms: C_18  and  C_22
REMARK    7  A    between atoms: C_18  and  C_23
REMARK    8  A    between atoms: C_20  and  C_21
REMARK                            x       y       z     vdW  Elec       q    Type
REMARK                         _______ _______ _______ _____ _____    ______ ____
ROOT
ATOM      1  C   UNL     1       0.850   0.124  -1.476  0.00  0.00    -0.046 A 
ATOM      2  C   UNL     1       0.091  -0.189  -2.592  0.00  0.00    +0.013 A 
ATOM      3  C   UNL     1       0.680  -0.884  -3.649  0.00  0.00    +0.000 A 
ATOM      4  C   UNL     1       2.016  -1.236  -3.534  0.00  0.00    +0.054 A 
ATOM      5  C   UNL     1       2.784  -0.929  -2.422  0.00  0.00    +0.029 A 
ATOM      6  C   UNL     1       2.185  -0.230  -1.379  0.00  0.00    +0.015 A 
ATOM      7  C   UNL     1       4.123  -1.483  -2.721  0.00  0.00    +0.153 C 
ATOM      8  N   UNL     1       5.191  -1.439  -1.961  0.00  0.00    -0.175 NA
ATOM      9  C   UNL     1       3.997  -2.098  -4.063  0.00  0.00    +0.272 C 
ATOM     10  O   UNL     1       4.883  -2.667  -4.674  0.00  0.00    -0.268 OA
ATOM     11  N   UNL     1       2.732  -1.920  -4.490  0.00  0.00    -0.256 N 
ATOM     12  C   UNL     1       2.012  -2.300  -5.717  0.00  0.00    +0.056 C 
ATOM     13  C   UNL     1       0.555  -1.917  -5.842  0.00  0.00    +0.002 C 
ATOM     14  C   UNL     1      -0.062  -1.253  -4.870  0.00  0.00    -0.043 C 
ATOM     15  C   UNL     1      -1.515  -0.881  -5.013  0.00  0.00    +0.044 C 
ATOM     16  C   UNL     1       2.107  -3.820  -5.860  0.00  0.00    +0.036 C 
ATOM     17  C   UNL     1       2.758  -1.682  -6.902  0.00  0.00    +0.036 C 
ENDROOT
BRANCH   1  19
ATOM     18  C   UNL     1       0.365   2.381  -0.569  0.00  0.00    +0.009 C 
ATOM     19  C   UNL     1       0.206   0.876  -0.340  0.00  0.00    +0.032 C 
ENDBRANCH   1  19
BRANCH   8  20
ATOM     20  N   UNL     1       5.105  -0.927  -0.660  0.00  0.00    -0.218 N 
ATOM     21  H   UNL     1       4.242  -0.677  -0.293  0.00  0.00    +0.176 HD
BRANCH  20  22
ATOM     22  C   UNL     1       6.220  -0.781   0.083  0.00  0.00    +0.147 C 
ATOM     23  S   UNL     1       6.115  -0.155   1.672  0.00  0.00    -0.017 S 
BRANCH  22  24
ATOM     24  N   UNL     1       7.419  -1.129  -0.427  0.00  0.00    -0.339 N 
ATOM     25  H   UNL     1       7.478  -1.484  -1.328  0.00  0.00    +0.144 HD
ATOM     26  H   UNL     1       8.222  -1.024   0.107  0.00  0.00    +0.144 HD
ENDBRANCH  22  24
ENDBRANCH  20  22
ENDBRANCH   8  20
TORSDOF 4
