REMARK  Name = ZINC39861954
REMARK  11 active torsions:
REMARK  status: ('A' for Active; 'I' for Inactive)
REMARK    1  A    between atoms: C_1  and  C_2
REMARK    2  A    between atoms: C_2  and  O_3
REMARK    3  A    between atoms: O_3  and  C_4
REMARK    4  A    between atoms: C_6  and  C_19
REMARK    5  A    between atoms: C_9  and  O_10
REMARK    6  A    between atoms: O_10  and  C_11
REMARK    7  A    between atoms: C_11  and  C_12
REMARK    8  A    between atoms: N_23  and  C_27
REMARK    9  A    between atoms: C_27  and  C_29
REMARK   10  A    between atoms: C_27  and  C_33
REMARK   11  A    between atoms: C_29  and  C_30
REMARK                            x       y       z     vdW  Elec       q    Type
REMARK                         _______ _______ _______ _____ _____    ______ ____
ROOT
ATOM      1  C   UNL     1       1.623  -2.097  -1.140  0.00  0.00    +0.162 A 
ATOM      2  C   UNL     1       0.867  -2.829  -0.245  0.00  0.00    +0.057 A 
ATOM      3  C   UNL     1       0.595  -4.178  -0.505  0.00  0.00    -0.020 A 
ATOM      4  C   UNL     1       1.091  -4.777  -1.670  0.00  0.00    +0.012 A 
ATOM      5  C   UNL     1       1.844  -4.038  -2.556  0.00  0.00    +0.050 A 
ATOM      6  C   UNL     1       2.109  -2.699  -2.300  0.00  0.00    +0.162 A 
ENDROOT
BRANCH   3   7
ATOM      7  C   UNL     1      -0.207  -4.963   0.442  0.00  0.00    +0.028 C 
ATOM      8  C   UNL     1      -0.751  -6.145   0.054  0.00  0.00    +0.077 C 
ATOM      9  C   UNL     1      -1.461  -7.162   0.855  0.00  0.00    +0.259 C 
ATOM     10  O   UNL     1      -1.643  -7.022   2.050  0.00  0.00    -0.269 OA
ATOM     11  N   UNL     1      -1.890  -8.232   0.207  0.00  0.00    -0.241 N 
ATOM     12  C   UNL     1      -1.687  -8.383  -1.117  0.00  0.00    +0.121 C 
ATOM     13  S   UNL     1      -2.161  -9.684  -2.124  0.00  0.00    -0.027 S 
ATOM     14  S   UNL     1      -0.810  -6.894  -1.568  0.00  0.00    -0.061 S 
BRANCH  11  15
ATOM     15  C   UNL     1      -2.603  -9.278   0.946  0.00  0.00    +0.204 C 
BRANCH  15  16
ATOM     16  C   UNL     1      -3.986  -9.445   0.371  0.00  0.00    +0.377 C 
ATOM     17  O   UNL     1      -4.187  -9.220  -0.810  0.00  0.00    -0.244 OA
ATOM     18  O   UNL     1      -4.904  -9.807   1.088  0.00  0.00    -0.244 OA
ENDBRANCH  15  16
BRANCH  15  19
ATOM     19  C   UNL     1      -1.838 -10.598   0.827  0.00  0.00    +0.130 C 
BRANCH  19  20
ATOM     20  C   UNL     1      -0.501 -10.467   1.510  0.00  0.00    +0.213 C 
ATOM     21  O   UNL     1      -0.191  -9.421   2.040  0.00  0.00    -0.276 OA
ATOM     22  N   UNL     1       0.350 -11.512   1.532  0.00  0.00    -0.329 N 
ATOM     23  H   UNL     1       0.102 -12.349   1.108  0.00  0.00    +0.145 HD
ATOM     24  H   UNL     1       1.210 -11.428   1.972  0.00  0.00    +0.145 HD
ENDBRANCH  19  20
ENDBRANCH  15  19
ENDBRANCH  11  15
ENDBRANCH   3   7
BRANCH   1  25
ATOM     25  O   UNL     1       1.890  -0.787  -0.891  0.00  0.00    -0.489 OA
BRANCH  25  27
ATOM     26  C   UNL     1       1.761   1.238   0.422  0.00  0.00    +0.048 C 
ATOM     27  C   UNL     1       1.361  -0.235   0.317  0.00  0.00    +0.226 C 
ENDBRANCH  25  27
ENDBRANCH   1  25
BRANCH   6  28
ATOM     28  O   UNL     1       2.847  -1.974  -3.181  0.00  0.00    -0.484 OA
BRANCH  28  29
ATOM     29  C   UNL     1       3.313  -2.652  -4.349  0.00  0.00    +0.264 C 
BRANCH  29  30
ATOM     30  C   UNL     1       4.107  -1.697  -5.201  0.00  0.00    -0.010 A 
ATOM     31  C   UNL     1       3.471  -0.942  -6.169  0.00  0.00    +0.008 A 
ATOM     32  C   UNL     1       4.199  -0.065  -6.951  0.00  0.00    +0.020 A 
ATOM     33  C   UNL     1       5.564   0.057  -6.766  0.00  0.00    +0.041 A 
ATOM     34  C   UNL     1       6.201  -0.699  -5.797  0.00  0.00    +0.020 A 
ATOM     35  C   UNL     1       5.471  -1.571  -5.012  0.00  0.00    +0.008 A 
ATOM     36 CL   UNL     1       6.479   1.157  -7.748  0.00  0.00    -0.084 Cl
ENDBRANCH  29  30
ENDBRANCH  28  29
ENDBRANCH   6  28
TORSDOF 10
