REMARK  Name = ZINC44876767
REMARK  12 active torsions:
REMARK  status: ('A' for Active; 'I' for Inactive)
REMARK    1  A    between atoms: C_1  and  C_2
REMARK    2  A    between atoms: N_5  and  C_8
REMARK    3  A    between atoms: C_8  and  C_9
REMARK    4  A    between atoms: C_12  and  C_15
REMARK    5  A    between atoms: C_15  and  N_16
REMARK    6  A    between atoms: C_17  and  C_19
REMARK    7  A    between atoms: C_19  and  N_20
REMARK    8  A    between atoms: N_20  and  C_21
REMARK    9  A    between atoms: N_20  and  S_28
REMARK   10  A    between atoms: S_28  and  N_31
REMARK   11  A    between atoms: N_31  and  C_32
REMARK   12  A    between atoms: N_31  and  C_33
REMARK                            x       y       z     vdW  Elec       q    Type
REMARK                         _______ _______ _______ _____ _____    ______ ____
ROOT
ATOM      1  N   UNL     1       2.010  -4.413   7.195  0.00  0.00    -0.310 N 
ATOM      2  C   UNL     1       2.585  -4.555   8.405  0.00  0.00    +0.232 C 
ATOM      3  O   UNL     1       2.746  -5.662   8.874  0.00  0.00    -0.274 OA
ATOM      4  H   UNL     1       1.881  -3.528   6.820  0.00  0.00    +0.149 HD
ENDROOT
BRANCH   1   5
ATOM      5  C   UNL     1       1.578  -5.596   6.446  0.00  0.00    +0.139 C 
BRANCH   5   9
ATOM      6  C   UNL     1      -0.143  -4.380   2.730  0.00  0.00    -0.064 A 
ATOM      7  C   UNL     1       1.212  -4.640   2.812  0.00  0.00    +0.002 A 
ATOM      8  C   UNL     1       1.769  -5.033   4.014  0.00  0.00    +0.005 A 
ATOM      9  C   UNL     1       0.971  -5.166   5.135  0.00  0.00    -0.030 A 
ATOM     10  C   UNL     1      -0.384  -4.906   5.053  0.00  0.00    +0.005 A 
ATOM     11  C   UNL     1      -0.940  -4.508   3.852  0.00  0.00    +0.002 A 
BRANCH   6  12
ATOM     12  C   UNL     1      -0.750  -3.952   1.419  0.00  0.00    -0.043 C 
BRANCH  12  17
ATOM     13  C   UNL     1      -0.019   1.526   0.010  0.00  0.00    +0.007 C 
ATOM     14  C   UNL     1       0.002  -0.004   0.002  0.00  0.00    -0.018 C 
ATOM     15  C   UNL     1      -1.434  -0.536   0.023  0.00  0.00    -0.016 C 
ATOM     16  C   UNL     1      -1.405  -2.064   0.095  0.00  0.00    -0.078 C 
ATOM     17  N   UNL     1      -0.707  -2.487   1.315  0.00  0.00    +0.382 N 
ATOM     18  C   UNL     1       0.691  -2.042   1.269  0.00  0.00    -0.078 C 
ATOM     19  C   UNL     1       0.743  -0.513   1.242  0.00  0.00    -0.016 C 
ATOM     20  H   UNL     1      -1.162  -2.082   2.119  0.00  0.00    -0.081 HD
ENDBRANCH  12  17
ENDBRANCH   6  12
ENDBRANCH   5   9
ENDBRANCH   1   5
BRANCH   2  21
ATOM     21  C   UNL     1       3.029  -3.338   9.176  0.00  0.00    +0.228 C 
BRANCH  21  22
ATOM     22  N   UNL     1       3.619  -3.756  10.450  0.00  0.00    -0.182 N 
BRANCH  22  23
ATOM     23  C   UNL     1       4.968  -4.120  10.510  0.00  0.00    +0.088 A 
ATOM     24  C   UNL     1       5.945  -3.148  10.678  0.00  0.00    +0.028 A 
ATOM     25  C   UNL     1       7.276  -3.512  10.737  0.00  0.00    +0.002 A 
ATOM     26  C   UNL     1       7.638  -4.842  10.629  0.00  0.00    +0.003 A 
ATOM     27  C   UNL     1       6.669  -5.814  10.461  0.00  0.00    +0.040 A 
ATOM     28  C   UNL     1       5.333  -5.458  10.407  0.00  0.00    +0.146 A 
ATOM     29  F   UNL     1       4.386  -6.409  10.250  0.00  0.00    -0.203 F 
ENDBRANCH  22  23
BRANCH  22  30
ATOM     30  S   UNL     1       2.689  -3.796  11.819  0.00  0.00    +0.114 S 
ATOM     31  O   UNL     1       3.561  -3.531  12.910  0.00  0.00    -0.138 OA
ATOM     32  O   UNL     1       1.540  -3.004  11.553  0.00  0.00    -0.138 OA
BRANCH  30  33
ATOM     33  N   UNL     1       2.158  -5.354  12.005  0.00  0.00    -0.170 NA
ATOM     34  C   UNL     1       2.880  -6.274  12.887  0.00  0.00    +0.132 C 
ATOM     35  C   UNL     1       0.966  -5.811  11.287  0.00  0.00    +0.132 C 
ENDBRANCH  30  33
ENDBRANCH  22  30
ENDBRANCH  21  22
ENDBRANCH   2  21
TORSDOF 9
