REMARK  Name = ZINC63489553
REMARK  3 active torsions:
REMARK  status: ('A' for Active; 'I' for Inactive)
REMARK    1  A    between atoms: C_1  and  C_2
REMARK    2  A    between atoms: C_9  and  N_17
REMARK    3  A    between atoms: N_17  and  C_18
REMARK                            x       y       z     vdW  Elec       q    Type
REMARK                         _______ _______ _______ _____ _____    ______ ____
ROOT
ATOM      1  C   UNL     1      -0.018   1.503   0.010  0.00  0.00    +0.044 C 
ATOM      2  C   UNL     1       0.002  -0.004   0.002  0.00  0.00    -0.050 A 
ATOM      3  C   UNL     1       0.005  -0.680  -1.226  0.00  0.00    +0.005 A 
ATOM      4  C   UNL     1       0.027  -2.026  -1.316  0.00  0.00    +0.026 A 
ATOM      5  C   UNL     1       0.047  -2.826  -0.142  0.00  0.00    +0.043 A 
ATOM      6  N   UNL     1       0.047  -4.130   0.027  0.00  0.00    -0.376 N 
ATOM      7  C   UNL     1       0.155  -4.412   1.456  0.00  0.00    +0.126 C 
ATOM      8  C   UNL     1      -0.996  -5.284   1.964  0.00  0.00    +0.097 C 
ATOM      9  C   UNL     1      -0.963  -5.289   3.495  0.00  0.00    +0.025 C 
ATOM     10  C   UNL     1      -1.249  -3.897   4.058  0.00  0.00    +0.006 C 
ATOM     11  C   UNL     1      -0.137  -2.922   3.636  0.00  0.00    +0.033 C 
ATOM     12  C   UNL     1       0.045  -3.061   2.143  0.00  0.00    -0.037 C 
ATOM     13  C   UNL     1       0.036  -2.137   1.172  0.00  0.00    -0.001 A 
ATOM     14  C   UNL     1       0.022  -0.668   1.179  0.00  0.00    +0.013 A 
ATOM     15  H   UNL     1      -0.015  -4.793  -0.678  0.00  0.00    +0.160 HD
ENDROOT
BRANCH   8  16
ATOM     16  N   UNL     1      -0.837  -6.650   1.460  0.00  0.00    -0.339 N 
ATOM     17  H   UNL     1       0.043  -6.979   1.219  0.00  0.00    +0.146 HD
BRANCH  16  18
ATOM     18  C   UNL     1      -1.954  -7.479   1.326  0.00  0.00    +0.027 A 
ATOM     19  C   UNL     1      -3.215  -7.008   1.665  0.00  0.00    +0.024 A 
ATOM     20  C   UNL     1      -4.317  -7.830   1.532  0.00  0.00    +0.017 A 
ATOM     21  C   UNL     1      -4.165  -9.122   1.062  0.00  0.00    +0.018 A 
ATOM     22  C   UNL     1      -2.909  -9.595   0.724  0.00  0.00    +0.017 A 
ATOM     23  C   UNL     1      -1.805  -8.775   0.849  0.00  0.00    +0.024 A 
ATOM     24 BR   UNL     1      -5.676 -10.245   0.883  0.00  0.00    -0.050 Br
ENDBRANCH  16  18
ENDBRANCH   8  16
TORSDOF 2
