REMARK  Name = ZINC09293006
REMARK  10 active torsions:
REMARK  status: ('A' for Active; 'I' for Inactive)
REMARK    1  A    between atoms: C_4  and  C_7
REMARK    2  A    between atoms: C_7  and  O_8
REMARK    3  A    between atoms: O_8  and  C_9
REMARK    4  A    between atoms: C_12  and  C_15
REMARK    5  A    between atoms: C_22  and  N_39
REMARK    6  A    between atoms: C_23  and  C_37
REMARK    7  A    between atoms: C_24  and  C_26
REMARK    8  A    between atoms: C_29  and  O_32
REMARK    9  A    between atoms: O_32  and  C_33
REMARK   10  A    between atoms: C_33  and  C_34
REMARK                            x       y       z     vdW  Elec       q    Type
REMARK                         _______ _______ _______ _____ _____    ______ ____
ROOT
ATOM      1  C   UNL     1       8.927  -3.660   1.956  0.00  0.00    +0.074 A 
ATOM      2  C   UNL     1       9.231  -4.609   2.874  0.00  0.00    +0.054 A 
ATOM      3  C   UNL     1      10.570  -4.998   2.674  0.00  0.00    +0.245 A 
ATOM      4  N   UNL     1      11.052  -4.311   1.678  0.00  0.00    -0.135 NA
ATOM      5  N   UNL     1      10.045  -3.461   1.195  0.00  0.00    -0.273 N 
ATOM      6  H   UNL     1      10.128  -2.841   0.454  0.00  0.00    +0.189 HD
ATOM      7  O   UNL     1      11.168  -5.946   3.446  0.00  0.00    -0.421 OA
ATOM      8  C   UNL     1      10.373  -6.699   4.232  0.00  0.00    +0.201 C 
ATOM      9  C   UNL     1       9.081  -6.420   4.505  0.00  0.00    +0.098 C 
ATOM     10  C   UNL     1       8.370  -5.209   3.956  0.00  0.00    +0.102 C 
ENDROOT
BRANCH   1  14
ATOM     11  C   UNL     1       5.191  -1.683   1.513  0.00  0.00    +0.121 A 
ATOM     12  C   UNL     1       6.369  -0.946   1.514  0.00  0.00    +0.046 A 
ATOM     13  C   UNL     1       7.582  -1.584   1.658  0.00  0.00    +0.013 A 
ATOM     14  C   UNL     1       7.627  -2.971   1.802  0.00  0.00    +0.000 A 
ATOM     15  C   UNL     1       6.441  -3.708   1.801  0.00  0.00    +0.013 A 
ATOM     16  C   UNL     1       5.231  -3.062   1.661  0.00  0.00    +0.046 A 
BRANCH  11  17
ATOM     17  O   UNL     1       3.997  -1.050   1.371  0.00  0.00    -0.487 OA
BRANCH  17  18
ATOM     18  C   UNL     1       4.029   0.371   1.222  0.00  0.00    +0.264 C 
BRANCH  18  22
ATOM     19  C   UNL     1       0.042   1.851   0.816  0.00  0.00    +0.000 A 
ATOM     20  C   UNL     1       0.613   1.736   2.070  0.00  0.00    +0.000 A 
ATOM     21  C   UNL     1       1.903   1.257   2.202  0.00  0.00    +0.007 A 
ATOM     22  C   UNL     1       2.622   0.892   1.079  0.00  0.00    -0.010 A 
ATOM     23  C   UNL     1       2.051   1.006  -0.175  0.00  0.00    +0.007 A 
ATOM     24  C   UNL     1       0.762   1.486  -0.306  0.00  0.00    +0.000 A 
ENDBRANCH  18  22
ENDBRANCH  17  18
ENDBRANCH  11  17
ENDBRANCH   1  14
BRANCH  10  25
ATOM     25  C   UNL     1       8.158  -4.200   5.055  0.00  0.00    -0.034 A 
ATOM     26  C   UNL     1       9.247  -3.635   5.692  0.00  0.00    +0.008 A 
ATOM     27  C   UNL     1       9.056  -2.711   6.701  0.00  0.00    +0.046 A 
ATOM     28  C   UNL     1       7.769  -2.350   7.074  0.00  0.00    +0.121 A 
ATOM     29  C   UNL     1       6.678  -2.918   6.433  0.00  0.00    +0.046 A 
ATOM     30  C   UNL     1       6.875  -3.838   5.422  0.00  0.00    +0.008 A 
BRANCH  28  31
ATOM     31  O   UNL     1       7.578  -1.441   8.066  0.00  0.00    -0.483 OA
BRANCH  31  32
ATOM     32  C   UNL     1       6.226  -1.117   8.398  0.00  0.00    +0.324 C 
BRANCH  32  33
ATOM     33  C   UNL     1       6.212  -0.101   9.511  0.00  0.00    +0.248 C 
ATOM     34  O   UNL     1       7.256   0.306   9.975  0.00  0.00    -0.272 OA
ATOM     35  N   UNL     1       5.039   0.356   9.991  0.00  0.00    -0.327 N 
ATOM     36  H   UNL     1       4.203   0.031   9.620  0.00  0.00    +0.145 HD
ATOM     37  H   UNL     1       5.029   1.010  10.707  0.00  0.00    +0.145 HD
ENDBRANCH  32  33
ENDBRANCH  31  32
ENDBRANCH  28  31
ENDBRANCH  10  25
BRANCH   8  38
ATOM     38  N   UNL     1      10.915  -7.828   4.793  0.00  0.00    -0.328 N 
ATOM     39  H   UNL     1      11.840  -8.060   4.619  0.00  0.00    +0.145 HD
ATOM     40  H   UNL     1      10.372  -8.394   5.364  0.00  0.00    +0.145 HD
ENDBRANCH   8  38
BRANCH   9  41
ATOM     41  C   UNL     1       8.353  -7.313   5.355  0.00  0.00    +0.101 C 
ATOM     42  N   UNL     1       7.776  -8.022   6.030  0.00  0.00    -0.191 NA
ENDBRANCH   9  41
TORSDOF 10
