REMARK  Name = ZINC39436870
REMARK  10 active torsions:
REMARK  status: ('A' for Active; 'I' for Inactive)
REMARK    1  A    between atoms: C_1  and  C_2
REMARK    2  A    between atoms: C_2  and  C_4
REMARK    3  A    between atoms: C_2  and  N_27
REMARK    4  A    between atoms: N_11  and  C_14
REMARK    5  A    between atoms: C_14  and  C_15
REMARK    6  A    between atoms: C_18  and  O_25
REMARK    7  A    between atoms: O_25  and  C_26
REMARK    8  A    between atoms: C_28  and  C_30
REMARK    9  A    between atoms: C_30  and  C_31
REMARK   10  A    between atoms: C_30  and  C_32
REMARK                            x       y       z     vdW  Elec       q    Type
REMARK                         _______ _______ _______ _____ _____    ______ ____
ROOT
ATOM      1  C   UNL     1       0.707  -0.490  -1.238  0.00  0.00    +0.154 A 
ATOM      2  N   UNL     1       1.999  -0.480  -1.456  0.00  0.00    -0.132 NA
ATOM      3  N   UNL     1       2.248  -0.970  -2.624  0.00  0.00    -0.134 NA
ATOM      4  C   UNL     1       1.132  -1.308  -3.192  0.00  0.00    +0.132 A 
ATOM      5  N   UNL     1       0.132  -1.023  -2.331  0.00  0.00    -0.315 N 
ATOM      6  C   UNL     1      -1.297  -1.272  -2.594  0.00  0.00    +0.106 C 
ATOM      7  C   UNL     1      -1.696  -0.377  -3.779  0.00  0.00    -0.056 C 
ATOM      8  N   UNL     1      -1.292  -0.969  -5.035  0.00  0.00    +0.384 N 
ATOM      9  C   UNL     1       0.110  -0.909  -5.384  0.00  0.00    -0.071 C 
ATOM     10  C   UNL     1       0.922  -1.919  -4.567  0.00  0.00    +0.058 C 
ATOM     11  H   UNL     1      -1.566  -1.940  -5.021  0.00  0.00    -0.081 HD
ENDROOT
BRANCH   1  13
ATOM     12  C   UNL     1      -0.019   1.526   0.010  0.00  0.00    +0.036 C 
ATOM     13  C   UNL     1       0.002  -0.004   0.002  0.00  0.00    +0.138 C 
BRANCH  13  14
ATOM     14  N   UNL     1       0.711  -0.489   1.189  0.00  0.00    -0.306 N 
ATOM     15  C   UNL     1       0.051  -0.633   2.355  0.00  0.00    +0.216 C 
ATOM     16  O   UNL     1      -1.129  -0.361   2.423  0.00  0.00    -0.276 OA
ATOM     17  H   UNL     1       1.654  -0.707   1.135  0.00  0.00    +0.149 HD
BRANCH  15  18
ATOM     18  C   UNL     1       0.780  -1.133   3.576  0.00  0.00    +0.069 C 
ATOM     19  C   UNL     1       1.924  -0.175   3.914  0.00  0.00    +0.017 C 
ATOM     20  C   UNL     1      -0.191  -1.204   4.756  0.00  0.00    +0.017 C 
ENDBRANCH  15  18
ENDBRANCH  13  14
ENDBRANCH   1  13
BRANCH   8  21
ATOM     21  C   UNL     1      -2.051  -0.309  -6.106  0.00  0.00    -0.042 C 
BRANCH  21  22
ATOM     22  C   UNL     1      -1.750  -0.981  -7.421  0.00  0.00    -0.056 A 
ATOM     23  C   UNL     1      -0.854  -0.425  -8.283  0.00  0.00    +0.006 A 
ATOM     24  C   UNL     1      -0.561  -1.028  -9.502  0.00  0.00    +0.046 A 
ATOM     25  C   UNL     1      -1.166  -2.198  -9.870  0.00  0.00    +0.128 A 
ATOM     26  C   UNL     1      -2.098  -2.801  -9.003  0.00  0.00    +0.024 A 
ATOM     27  C   UNL     1      -2.389  -2.186  -7.760  0.00  0.00    -0.013 A 
ATOM     28  C   UNL     1      -3.315  -2.790  -6.892  0.00  0.00    +0.009 A 
ATOM     29  C   UNL     1      -3.915  -3.957  -7.254  0.00  0.00    +0.001 A 
ATOM     30  C   UNL     1      -3.624  -4.565  -8.474  0.00  0.00    +0.001 A 
ATOM     31  C   UNL     1      -2.741  -4.002  -9.344  0.00  0.00    +0.012 A 
BRANCH  25  32
ATOM     32  O   UNL     1      -0.870  -2.774 -11.064  0.00  0.00    -0.495 OA
ATOM     33  C   UNL     1       0.084  -2.103 -11.890  0.00  0.00    +0.277 C 
ENDBRANCH  25  32
ENDBRANCH  21  22
ENDBRANCH   8  21
TORSDOF 6
