REMARK  Name = ZINC58915042
REMARK  10 active torsions:
REMARK  status: ('A' for Active; 'I' for Inactive)
REMARK    1  A    between atoms: C_1  and  C_2
REMARK    2  A    between atoms: C_4  and  C_14
REMARK    3  A    between atoms: C_5  and  C_13
REMARK    4  A    between atoms: N_6  and  C_7
REMARK    5  A    between atoms: N_15  and  N_16
REMARK    6  A    between atoms: C_17  and  C_19
REMARK    7  A    between atoms: C_19  and  N_20
REMARK    8  A    between atoms: N_20  and  C_21
REMARK    9  A    between atoms: N_20  and  S_28
REMARK   10  A    between atoms: S_28  and  C_31
REMARK                            x       y       z     vdW  Elec       q    Type
REMARK                         _______ _______ _______ _____ _____    ______ ____
ROOT
ATOM      1  N   UNL     1       1.385  -6.641   1.143  0.00  0.00    -0.206 N 
ATOM      2  C   UNL     1       0.988  -7.827   0.641  0.00  0.00    +0.251 C 
ATOM      3  O   UNL     1       1.005  -8.818   1.340  0.00  0.00    -0.272 OA
ATOM      4  H   UNL     1       1.371  -5.848   0.584  0.00  0.00    +0.177 HD
ENDROOT
BRANCH   1   6
ATOM      5  C   UNL     1       2.198  -5.410   2.957  0.00  0.00    +0.140 C 
ATOM      6  N   UNL     1       1.816  -6.552   2.473  0.00  0.00    -0.188 NA
BRANCH   5  10
ATOM      7  C   UNL     1       3.945  -3.580   7.390  0.00  0.00    +0.064 C 
ATOM      8  C   UNL     1       3.425  -4.489   6.306  0.00  0.00    +0.022 A 
ATOM      9  C   UNL     1       3.112  -4.112   5.053  0.00  0.00    +0.032 A 
ATOM     10  C   UNL     1       2.652  -5.317   4.356  0.00  0.00    +0.016 A 
ATOM     11  C   UNL     1       2.727  -6.336   5.262  0.00  0.00    +0.030 A 
ATOM     12  N   UNL     1       3.200  -5.830   6.434  0.00  0.00    -0.317 N 
ATOM     13  C   UNL     1       2.357  -7.774   5.007  0.00  0.00    +0.064 C 
BRANCH  12  14
ATOM     14  C   UNL     1       3.420  -6.574   7.601  0.00  0.00    +0.047 A 
ATOM     15  C   UNL     1       4.396  -7.561   7.622  0.00  0.00    +0.026 A 
ATOM     16  C   UNL     1       4.610  -8.293   8.774  0.00  0.00    +0.002 A 
ATOM     17  C   UNL     1       3.853  -8.044   9.904  0.00  0.00    +0.000 A 
ATOM     18  C   UNL     1       2.880  -7.062   9.885  0.00  0.00    +0.002 A 
ATOM     19  C   UNL     1       2.665  -6.323   8.739  0.00  0.00    +0.026 A 
ENDBRANCH  12  14
ENDBRANCH   5  10
ENDBRANCH   1   6
BRANCH   2  20
ATOM     20  C   UNL     1       0.524  -7.922  -0.790  0.00  0.00    +0.228 C 
BRANCH  20  21
ATOM     21  N   UNL     1       0.150  -9.307  -1.091  0.00  0.00    -0.194 N 
BRANCH  21  22
ATOM     22  C   UNL     1      -1.134  -9.767  -0.784  0.00  0.00    +0.052 A 
ATOM     23  C   UNL     1      -1.312 -10.724   0.206  0.00  0.00    +0.027 A 
ATOM     24  C   UNL     1      -2.581 -11.176   0.508  0.00  0.00    +0.040 A 
ATOM     25  C   UNL     1      -3.676 -10.676  -0.176  0.00  0.00    +0.124 A 
ATOM     26  C   UNL     1      -3.501  -9.722  -1.164  0.00  0.00    +0.040 A 
ATOM     27  C   UNL     1      -2.234  -9.263  -1.466  0.00  0.00    +0.027 A 
ATOM     28  F   UNL     1      -4.917 -11.121   0.120  0.00  0.00    -0.205 F 
ENDBRANCH  21  22
BRANCH  21  29
ATOM     29  S   UNL     1       1.249 -10.326  -1.794  0.00  0.00    +0.075 S 
ATOM     30  O   UNL     1       0.508 -11.413  -2.333  0.00  0.00    -0.150 OA
ATOM     31  O   UNL     1       2.103  -9.517  -2.592  0.00  0.00    -0.150 OA
BRANCH  29  32
ATOM     32  C   UNL     1       2.247 -10.989  -0.502  0.00  0.00    +0.109 A 
ATOM     33  C   UNL     1       3.325 -10.269  -0.023  0.00  0.00    +0.029 A 
ATOM     34  C   UNL     1       4.107 -10.789   0.991  0.00  0.00    +0.002 A 
ATOM     35  C   UNL     1       3.812 -12.029   1.526  0.00  0.00    +0.000 A 
ATOM     36  C   UNL     1       2.733 -12.749   1.047  0.00  0.00    +0.002 A 
ATOM     37  C   UNL     1       1.948 -12.227   0.036  0.00  0.00    +0.029 A 
ENDBRANCH  29  32
ENDBRANCH  21  29
ENDBRANCH  20  21
ENDBRANCH   2  20
TORSDOF 8
