REMARK  Name = ZINC33312889
REMARK  6 active torsions:
REMARK  status: ('A' for Active; 'I' for Inactive)
REMARK    1  A    between atoms: C_1  and  C_2
REMARK    2  A    between atoms: C_8  and  C_10
REMARK    3  A    between atoms: N_20  and  C_21
REMARK    4  A    between atoms: C_21  and  C_22
REMARK    5  A    between atoms: N_24  and  C_25
REMARK    6  A    between atoms: C_25  and  C_26
REMARK                            x       y       z     vdW  Elec       q    Type
REMARK                         _______ _______ _______ _____ _____    ______ ____
ROOT
ATOM      1  C   UNL     1      -2.728   3.813  -0.183  0.00  0.00    +0.051 C 
ATOM      2  C   UNL     1      -1.438   3.044  -0.292  0.00  0.00    -0.049 A 
ATOM      3  C   UNL     1      -1.488   1.728  -0.729  0.00  0.00    +0.003 A 
ATOM      4  C   UNL     1      -0.331   0.983  -0.832  0.00  0.00    +0.000 A 
ATOM      5  C   UNL     1       0.886   1.553  -0.510  0.00  0.00    +0.000 A 
ATOM      6  C   UNL     1       0.939   2.864  -0.083  0.00  0.00    +0.004 A 
ATOM      7  C   UNL     1      -0.223   3.613   0.027  0.00  0.00    -0.047 A 
ATOM      8  C   UNL     1      -0.117   5.042   0.493  0.00  0.00    +0.017 C 
ATOM      9  C   UNL     1      -1.488   5.549   0.940  0.00  0.00    -0.072 C 
ATOM     10  N   UNL     1      -2.463   5.254  -0.122  0.00  0.00    +0.396 N 
ATOM     11  H   UNL     1      -2.036   5.567  -1.087  0.00  0.00    -0.080 HD
ENDROOT
BRANCH   1  19
ATOM     12  C   UNL     1      -8.354   1.111  -0.288  0.00  0.00    +0.007 C 
ATOM     13  C   UNL     1      -6.917   1.182  -0.810  0.00  0.00    -0.011 C 
ATOM     14  C   UNL     1      -6.830   2.229  -1.923  0.00  0.00    +0.022 C 
ATOM     15  C   UNL     1      -5.398   2.272  -2.466  0.00  0.00    +0.108 C 
ATOM     16  N   UNL     1      -4.474   2.503  -1.346  0.00  0.00    -0.303 N 
ATOM     17  C   UNL     1      -4.533   1.604  -0.185  0.00  0.00    +0.108 C 
ATOM     18  C   UNL     1      -5.979   1.572   0.334  0.00  0.00    +0.022 C 
ATOM     19  C   UNL     1      -3.586   3.516  -1.386  0.00  0.00    +0.206 C 
ATOM     20  O   UNL     1      -3.478   4.188  -2.390  0.00  0.00    -0.277 OA
ENDBRANCH   1  19
BRANCH  10  21
ATOM     21  C   UNL     1      -3.707   6.010   0.080  0.00  0.00    +0.020 C 
BRANCH  21  22
ATOM     22  C   UNL     1      -3.435   7.482  -0.096  0.00  0.00    +0.197 C 
ATOM     23  O   UNL     1      -2.339   7.857  -0.457  0.00  0.00    -0.278 OA
ATOM     24  N   UNL     1      -4.408   8.381   0.147  0.00  0.00    -0.313 N 
ATOM     25  H   UNL     1      -5.402   8.041   0.474  0.00  0.00    +0.149 HD
BRANCH  24  26
ATOM     26  C   UNL     1      -4.144   9.812  -0.024  0.00  0.00    +0.139 C 
BRANCH  26  27
ATOM     27  C   UNL     1      -5.387  10.596   0.309  0.00  0.00    -0.027 A 
ATOM     28  C   UNL     1      -6.305  10.888  -0.682  0.00  0.00    +0.009 A 
ATOM     29  C   UNL     1      -7.449  11.602  -0.380  0.00  0.00    +0.050 A 
ATOM     30  C   UNL     1      -7.673  12.038   0.916  0.00  0.00    +0.166 A 
ATOM     31  C   UNL     1      -6.745  11.748   1.914  0.00  0.00    +0.167 A 
ATOM     32  C   UNL     1      -5.604  11.027   1.605  0.00  0.00    +0.054 A 
ATOM     33  O   UNL     1      -7.189  12.280   3.090  0.00  0.00    -0.453 OA
ATOM     34  C   UNL     1      -8.192  13.246   2.721  0.00  0.00    +0.466 C 
ATOM     35  O   UNL     1      -8.698  12.751   1.467  0.00  0.00    -0.453 OA
ENDBRANCH  26  27
ENDBRANCH  24  26
ENDBRANCH  21  22
ENDBRANCH  10  21
TORSDOF 5
