REMARK  Name = ZINC36794873
REMARK  9 active torsions:
REMARK  status: ('A' for Active; 'I' for Inactive)
REMARK    1  A    between atoms: C_1  and  C_2
REMARK    2  A    between atoms: C_2  and  C_3
REMARK    3  A    between atoms: C_3  and  C_28
REMARK    4  A    between atoms: N_6  and  C_10
REMARK    5  A    between atoms: C_10  and  C_11
REMARK    6  A    between atoms: C_13  and  O_14
REMARK    7  A    between atoms: C_23  and  O_25
REMARK    8  A    between atoms: O_25  and  C_26
REMARK    9  A    between atoms: C_26  and  C_27
REMARK                            x       y       z     vdW  Elec       q    Type
REMARK                         _______ _______ _______ _____ _____    ______ ____
ROOT
ATOM      1  C   UNL     1      -5.456   0.480  -1.937  0.00  0.00    -0.012 A 
ATOM      2  C   UNL     1      -5.352  -0.546  -2.855  0.00  0.00    +0.093 A 
ATOM      3  C   UNL     1      -6.350  -1.506  -2.935  0.00  0.00    +0.285 A 
ATOM      4  O   UNL     1      -7.422  -1.464  -2.136  0.00  0.00    -0.425 OA
ATOM      5  C   UNL     1      -7.574  -0.484  -1.222  0.00  0.00    +0.141 A 
ATOM      6  C   UNL     1      -6.586   0.518  -1.094  0.00  0.00    +0.022 A 
ATOM      7  C   UNL     1      -6.737   1.539  -0.138  0.00  0.00    +0.014 A 
ATOM      8  C   UNL     1      -7.832   1.559   0.665  0.00  0.00    +0.024 A 
ATOM      9  C   UNL     1      -8.819   0.563   0.547  0.00  0.00    +0.040 A 
ATOM     10  C   UNL     1      -8.688  -0.452  -0.403  0.00  0.00    +0.070 A 
ATOM     11  N   UNL     1      -9.911   0.594   1.357  0.00  0.00    -0.251 N 
ATOM     12  C   UNL     1     -10.676  -0.482   1.479  0.00  0.00    +0.405 C 
ATOM     13  O   UNL     1     -10.334  -1.535   0.967  0.00  0.00    -0.226 OA
ATOM     14  H   UNL     1     -10.130   1.403   1.845  0.00  0.00    +0.158 HD
ENDROOT
BRANCH   3  15
ATOM     15  O   UNL     1      -6.236  -2.502  -3.834  0.00  0.00    -0.480 OA
ATOM     16  H   UNL     1      -6.974  -3.127  -3.824  0.00  0.00    +0.295 HD
ENDBRANCH   3  15
BRANCH   1  17
ATOM     17  C   UNL     1      -4.382   1.533  -1.834  0.00  0.00    +0.154 C 
BRANCH  17  21
ATOM     18  C   UNL     1      -1.403   0.078  -0.160  0.00  0.00    +0.138 C 
ATOM     19  C   UNL     1      -2.235   0.360  -1.395  0.00  0.00    +0.251 C 
ATOM     20  O   UNL     1      -1.986   0.031  -2.535  0.00  0.00    -0.272 OA
ATOM     21  N   UNL     1      -3.308   1.051  -0.962  0.00  0.00    -0.220 N 
ATOM     22  C   UNL     1      -3.270   1.243   0.361  0.00  0.00    +0.310 C 
ATOM     23  O   UNL     1      -4.128   1.839   0.982  0.00  0.00    -0.252 OA
ATOM     24  N   UNL     1      -2.177   0.702   0.928  0.00  0.00    -0.281 N 
ATOM     25  H   UNL     1      -1.944   0.718   1.869  0.00  0.00    +0.152 HD
BRANCH  18  26
ATOM     26  C   UNL     1      -1.270  -1.406   0.067  0.00  0.00    -0.015 A 
ATOM     27  C   UNL     1      -0.182  -2.088  -0.444  0.00  0.00    +0.007 A 
ATOM     28  C   UNL     1      -0.060  -3.449  -0.236  0.00  0.00    +0.020 A 
ATOM     29  C   UNL     1      -1.027  -4.129   0.483  0.00  0.00    +0.041 A 
ATOM     30  C   UNL     1      -2.116  -3.445   0.995  0.00  0.00    +0.020 A 
ATOM     31  C   UNL     1      -2.234  -2.083   0.791  0.00  0.00    +0.007 A 
ATOM     32 CL   UNL     1      -0.875  -5.838   0.744  0.00  0.00    -0.084 Cl
ENDBRANCH  18  26
BRANCH  18  34
ATOM     33  C   UNL     1      -0.184   2.241  -0.437  0.00  0.00    +0.007 C 
ATOM     34  C   UNL     1      -0.023   0.728  -0.280  0.00  0.00    +0.037 C 
ENDBRANCH  18  34
ENDBRANCH  17  21
ENDBRANCH   1  17
BRANCH  12  35
ATOM     35  O   UNL     1     -11.835  -0.412   2.171  0.00  0.00    -0.450 OA
BRANCH  35  36
ATOM     36  C   UNL     1     -12.610  -1.609   2.262  0.00  0.00    +0.230 C 
ATOM     37  C   UNL     1     -13.876  -1.337   3.076  0.00  0.00    +0.048 C 
ENDBRANCH  35  36
ENDBRANCH  12  35
TORSDOF 7
