REMARK  Name = ZINC20242829
REMARK  9 active torsions:
REMARK  status: ('A' for Active; 'I' for Inactive)
REMARK    1  A    between atoms: C_1  and  N_2
REMARK    2  A    between atoms: N_2  and  C_3
REMARK    3  A    between atoms: N_2  and  C_33
REMARK    4  A    between atoms: C_3  and  C_4
REMARK    5  A    between atoms: C_4  and  C_5
REMARK    6  A    between atoms: C_5  and  N_6
REMARK    7  A    between atoms: C_7  and  C_9
REMARK    8  A    between atoms: N_15  and  C_26
REMARK    9  A    between atoms: C_26  and  C_27
REMARK                            x       y       z     vdW  Elec       q    Type
REMARK                         _______ _______ _______ _____ _____    ______ ____
ROOT
ATOM      1  C   UNL     1      -3.792   5.245  -1.850  0.00  0.00    +0.039 A 
ATOM      2  C   UNL     1      -4.169   6.403  -2.533  0.00  0.00    +0.014 A 
ATOM      3  C   UNL     1      -3.223   7.365  -2.818  0.00  0.00    +0.020 A 
ATOM      4  C   UNL     1      -1.905   7.191  -2.432  0.00  0.00    +0.065 A 
ATOM      5  C   UNL     1      -1.516   6.048  -1.751  0.00  0.00    +0.054 A 
ATOM      6  C   UNL     1      -2.467   5.071  -1.461  0.00  0.00    +0.037 A 
ATOM      7  N   UNL     1      -0.211   5.838  -1.342  0.00  0.00    -0.262 N 
ATOM      8  C   UNL     1       0.917   6.010  -1.978  0.00  0.00    +0.252 C 
ATOM      9  O   UNL     1       1.920   5.714  -1.357  0.00  0.00    -0.270 OA
ATOM     10  C   UNL     1       1.140   6.504  -3.339  0.00  0.00    +0.053 A 
ATOM     11  C   UNL     1       2.071   5.857  -4.163  0.00  0.00    +0.014 A 
ATOM     12  C   UNL     1       2.291   6.307  -5.446  0.00  0.00    +0.001 A 
ATOM     13  C   UNL     1       1.594   7.400  -5.931  0.00  0.00    +0.001 A 
ATOM     14  C   UNL     1       0.674   8.047  -5.125  0.00  0.00    +0.018 A 
ATOM     15  C   UNL     1       0.447   7.606  -3.838  0.00  0.00    +0.056 A 
ATOM     16  S   UNL     1      -0.724   8.440  -2.820  0.00  0.00    +0.088 S 
ATOM     17  O   UNL     1      -0.030   8.649  -1.597  0.00  0.00    -0.247 OA
ENDROOT
BRANCH   1  19
ATOM     18  N   UNL     1      -6.080   4.376  -1.918  0.00  0.00    -0.311 N 
ATOM     19  C   UNL     1      -4.798   4.206  -1.541  0.00  0.00    +0.244 C 
ATOM     20  O   UNL     1      -4.467   3.199  -0.946  0.00  0.00    -0.270 OA
ATOM     21  H   UNL     1      -6.379   5.288  -2.456  0.00  0.00    +0.149 HD
BRANCH  18  22
ATOM     22  C   UNL     1      -7.077   3.347  -1.611  0.00  0.00    +0.102 C 
BRANCH  22  23
ATOM     23  C   UNL     1      -8.442   3.784  -2.145  0.00  0.00    +0.000 C 
BRANCH  23  24
ATOM     24  C   UNL     1      -9.483   2.709  -1.825  0.00  0.00    -0.077 C 
BRANCH  24  26
ATOM     25  C   UNL     1     -11.284   4.314  -1.621  0.00  0.00    -0.096 C 
ATOM     26  N   UNL     1     -10.794   3.129  -2.338  0.00  0.00    +0.380 N 
ATOM     27  H   UNL     1     -10.672   3.400  -3.397  0.00  0.00    -0.082 HD
BRANCH  26  28
ATOM     28  C   UNL     1     -11.765   2.029  -2.263  0.00  0.00    -0.069 C 
ATOM     29  C   UNL     1     -11.266   0.850  -3.099  0.00  0.00    -0.015 C 
ATOM     30  C   UNL     1     -12.277  -0.295  -3.021  0.00  0.00    -0.002 C 
ATOM     31  C   UNL     1     -13.628   0.179  -3.562  0.00  0.00    -0.000 C 
ATOM     32  C   UNL     1     -14.127   1.358  -2.725  0.00  0.00    -0.002 C 
ATOM     33  C   UNL     1     -13.115   2.504  -2.804  0.00  0.00    -0.015 C 
ENDBRANCH  26  28
ENDBRANCH  24  26
ENDBRANCH  23  24
ENDBRANCH  22  23
ENDBRANCH  18  22
ENDBRANCH   1  19
BRANCH   7  34
ATOM     34  C   UNL     1      -0.070   5.347   0.031  0.00  0.00    +0.149 C 
BRANCH  34  35
ATOM     35  C   UNL     1       0.115   6.515   0.965  0.00  0.00    -0.030 A 
ATOM     36  C   UNL     1      -0.987   7.185   1.462  0.00  0.00    +0.005 A 
ATOM     37  C   UNL     1      -0.817   8.256   2.319  0.00  0.00    +0.000 A 
ATOM     38  C   UNL     1       0.456   8.657   2.680  0.00  0.00    +0.000 A 
ATOM     39  C   UNL     1       1.558   7.990   2.179  0.00  0.00    +0.000 A 
ATOM     40  C   UNL     1       1.388   6.916   1.326  0.00  0.00    +0.005 A 
ENDBRANCH  34  35
ENDBRANCH   7  34
TORSDOF 8
