REMARK  Name = ZINC15957521
REMARK  6 active torsions:
REMARK  status: ('A' for Active; 'I' for Inactive)
REMARK    1  A    between atoms: C_1  and  C_2
REMARK    2  A    between atoms: C_13  and  C_16
REMARK    3  A    between atoms: C_16  and  C_17
REMARK    4  A    between atoms: C_17  and  C_18
REMARK    5  A    between atoms: N_23  and  C_26
REMARK    6  A    between atoms: C_26  and  C_27
REMARK                            x       y       z     vdW  Elec       q    Type
REMARK                         _______ _______ _______ _____ _____    ______ ____
ROOT
ATOM      1  C   UNL     1      -0.018   1.503   0.010  0.00  0.00    +0.044 C 
ATOM      2  C   UNL     1       0.002  -0.004   0.002  0.00  0.00    -0.050 A 
ATOM      3  C   UNL     1       0.006  -0.691  -1.199  0.00  0.00    +0.005 A 
ATOM      4  C   UNL     1       0.025  -2.070  -1.212  0.00  0.00    +0.024 A 
ATOM      5  C   UNL     1       0.039  -2.782  -0.015  0.00  0.00    +0.039 A 
ATOM      6  C   UNL     1       0.035  -2.081   1.187  0.00  0.00    +0.004 A 
ATOM      7  C   UNL     1       0.023  -0.704   1.195  0.00  0.00    +0.011 A 
ATOM      8  C   UNL     1       0.053  -3.122   2.269  0.00  0.00    +0.136 C 
ATOM      9  C   UNL     1       1.277  -2.969   3.181  0.00  0.00    +0.122 C 
ATOM     10  C   UNL     1       0.763  -3.364   4.594  0.00  0.00    +0.107 C 
ATOM     11  C   UNL     1      -0.718  -3.743   4.386  0.00  0.00    +0.068 C 
ATOM     12  N   UNL     1      -1.124  -3.008   3.151  0.00  0.00    -0.295 NA
ATOM     13  C   UNL     1       0.858  -2.072   5.373  0.00  0.00    +0.227 C 
ATOM     14  O   UNL     1       0.543  -1.931   6.535  0.00  0.00    -0.275 OA
ATOM     15  N   UNL     1       1.345  -1.110   4.581  0.00  0.00    -0.237 N 
ATOM     16  C   UNL     1       1.628  -1.504   3.318  0.00  0.00    +0.229 C 
ATOM     17  O   UNL     1       2.084  -0.808   2.438  0.00  0.00    -0.275 OA
ATOM     18  C   UNL     1       0.069  -4.440   1.545  0.00  0.00    +0.243 C 
ATOM     19  O   UNL     1       0.089  -5.543   2.048  0.00  0.00    -0.273 OA
ATOM     20  N   UNL     1       0.059  -4.157   0.228  0.00  0.00    -0.283 N 
ATOM     21  H   UNL     1      -1.336  -2.042   3.347  0.00  0.00    +0.123 HD
ATOM     22  H   UNL     1       0.064  -4.830  -0.470  0.00  0.00    +0.155 HD
ENDROOT
BRANCH  11  23
ATOM     23  C   UNL     1      -1.560  -3.271   5.572  0.00  0.00    +0.031 C 
BRANCH  23  24
ATOM     24  C   UNL     1      -2.999  -3.765   5.405  0.00  0.00    +0.126 C 
BRANCH  24  25
ATOM     25  C   UNL     1      -3.828  -3.299   6.574  0.00  0.00    +0.356 C 
ATOM     26  O   UNL     1      -3.317  -2.634   7.458  0.00  0.00    -0.246 OA
ATOM     27  O   UNL     1      -5.011  -3.587   6.635  0.00  0.00    -0.246 OA
ENDBRANCH  24  25
ENDBRANCH  23  24
ENDBRANCH  11  23
BRANCH  15  28
ATOM     28  C   UNL     1       1.561   0.263   5.045  0.00  0.00    +0.151 C 
BRANCH  28  29
ATOM     29  C   UNL     1       2.957   0.392   5.599  0.00  0.00    -0.026 A 
ATOM     30  C   UNL     1       3.193   0.143   6.938  0.00  0.00    +0.009 A 
ATOM     31  C   UNL     1       4.471   0.259   7.451  0.00  0.00    +0.050 A 
ATOM     32  C   UNL     1       5.519   0.627   6.623  0.00  0.00    +0.166 A 
ATOM     33  C   UNL     1       5.282   0.878   5.274  0.00  0.00    +0.167 A 
ATOM     34  C   UNL     1       3.999   0.754   4.766  0.00  0.00    +0.054 A 
ATOM     35  O   UNL     1       6.462   1.220   4.679  0.00  0.00    -0.453 OA
ATOM     36  C   UNL     1       7.348   1.571   5.758  0.00  0.00    +0.466 C 
ATOM     37  O   UNL     1       6.849   0.810   6.873  0.00  0.00    -0.453 OA
ENDBRANCH  28  29
ENDBRANCH  15  28
TORSDOF 5
