REMARK  Name = ZINC06441979
REMARK  11 active torsions:
REMARK  status: ('A' for Active; 'I' for Inactive)
REMARK    1  A    between atoms: C_1  and  C_2
REMARK    2  A    between atoms: C_7  and  C_15
REMARK    3  A    between atoms: C_13  and  C_14
REMARK    4  A    between atoms: C_15  and  C_17
REMARK    5  A    between atoms: C_15  and  N_68
REMARK    6  A    between atoms: N_21  and  C_22
REMARK    7  A    between atoms: C_22  and  C_23
REMARK    8  A    between atoms: C_23  and  O_24
REMARK    9  A    between atoms: O_24  and  C_25
REMARK   10  A    between atoms: N_28  and  C_31
REMARK   11  A    between atoms: C_34  and  N_37
REMARK                            x       y       z     vdW  Elec       q    Type
REMARK                         _______ _______ _______ _____ _____    ______ ____
ROOT
ATOM      1  C   UNL     1      -0.013   1.086   0.008  0.00  0.00    +0.039 C 
ENDROOT
BRANCH   1   8
ATOM      2  C   UNL     1       7.751   2.911  -0.135  0.00  0.00    +0.044 C 
ATOM      3  C   UNL     1       6.354   2.345  -0.131  0.00  0.00    -0.046 A 
ATOM      4  C   UNL     1       6.169   0.974  -0.244  0.00  0.00    +0.004 A 
ATOM      5  C   UNL     1       4.912   0.440  -0.242  0.00  0.00    +0.010 A 
ATOM      6  C   UNL     1       3.801   1.282  -0.126  0.00  0.00    -0.001 A 
ATOM      7  C   UNL     1       2.439   0.743  -0.114  0.00  0.00    +0.017 A 
ATOM      8  C   UNL     1       1.401   1.607  -0.003  0.00  0.00    +0.011 A 
ATOM      9  C   UNL     1       1.640   2.994   0.109  0.00  0.00    +0.251 A 
ATOM     10  O   UNL     1       0.692   3.754   0.213  0.00  0.00    -0.268 OA
ATOM     11  N   UNL     1       2.886   3.498   0.104  0.00  0.00    -0.322 N 
ATOM     12  H   UNL     1       3.015   4.456   0.183  0.00  0.00    +0.169 HD
ATOM     13  C   UNL     1       3.985   2.672  -0.011  0.00  0.00    +0.052 A 
ATOM     14  C   UNL     1       5.274   3.193  -0.016  0.00  0.00    -0.024 A 
ATOM     15  C   UNL     1       5.490   4.680   0.105  0.00  0.00    +0.046 C 
ENDBRANCH   1   8
BRANCH   1  21
ATOM     16  C   UNL     1       0.034   1.167   2.428  0.00  0.00    -0.058 C 
ATOM     17  C   UNL     1      -0.670   1.746   3.658  0.00  0.00    +0.086 C 
ATOM     18  N   UNL     1      -2.055   1.256   3.702  0.00  0.00    -0.333 N 
ATOM     19  C   UNL     1      -2.789   1.648   2.491  0.00  0.00    +0.086 C 
ATOM     20  C   UNL     1      -2.085   1.069   1.261  0.00  0.00    -0.058 C 
ATOM     21  N   UNL     1      -0.701   1.587   1.216  0.00  0.00    +0.391 N 
ATOM     22  H   UNL     1      -0.730   2.613   1.182  0.00  0.00    -0.080 HD
BRANCH  18  23
ATOM     23  C   UNL     1      -2.709   1.706   4.851  0.00  0.00    +0.030 A 
ATOM     24  C   UNL     1      -3.891   2.428   4.742  0.00  0.00    +0.025 A 
ATOM     25  C   UNL     1      -4.537   2.867   5.880  0.00  0.00    +0.034 A 
ATOM     26  C   UNL     1      -4.004   2.599   7.128  0.00  0.00    +0.126 A 
ATOM     27  C   UNL     1      -2.825   1.885   7.240  0.00  0.00    +0.034 A 
ATOM     28  C   UNL     1      -2.176   1.438   6.106  0.00  0.00    +0.025 A 
BRANCH  26  29
ATOM     29  N   UNL     1      -4.697   3.075   8.345  0.00  0.00    +0.056 N 
ATOM     30  O   UNL     1      -4.229   2.839   9.445  0.00  0.00    -0.126 OA
ATOM     31  O   UNL     1      -5.736   3.704   8.248  0.00  0.00    -0.126 OA
ENDBRANCH  26  29
ENDBRANCH  18  23
ENDBRANCH   1  21
BRANCH   1  32
ATOM     32  C   UNL     1      -0.742   1.585  -1.213  0.00  0.00    +0.143 A 
ATOM     33  N   UNL     1      -1.200   2.797  -1.409  0.00  0.00    -0.115 NA
ATOM     34  N   UNL     1      -1.757   2.828  -2.571  0.00  0.00    -0.023 NA
ATOM     35  N   UNL     1      -1.673   1.665  -3.117  0.00  0.00    -0.044 NA
ATOM     36  N   UNL     1      -1.053   0.871  -2.311  0.00  0.00    -0.228 N 
BRANCH  36  37
ATOM     37  C   UNL     1      -0.746  -0.541  -2.546  0.00  0.00    +0.175 C 
BRANCH  37  38
ATOM     38  C   UNL     1      -1.896  -1.407  -2.029  0.00  0.00    +0.183 C 
BRANCH  38  39
ATOM     39  O   UNL     1      -1.596  -2.785  -2.259  0.00  0.00    -0.381 OA
ATOM     40  C   UNL     1      -2.613  -3.684  -1.809  0.00  0.00    +0.194 C 
ENDBRANCH  38  39
ENDBRANCH  37  38
ENDBRANCH  36  37
ENDBRANCH   1  32
TORSDOF 8
