REMARK  Name = ZINC08947751
REMARK  11 active torsions:
REMARK  status: ('A' for Active; 'I' for Inactive)
REMARK    1  A    between atoms: C_1  and  C_2
REMARK    2  A    between atoms: C_2  and  C_24
REMARK    3  A    between atoms: N_5  and  C_9
REMARK    4  A    between atoms: C_9  and  C_10
REMARK    5  A    between atoms: N_12  and  C_13
REMARK    6  A    between atoms: C_16  and  O_20
REMARK    7  A    between atoms: O_20  and  C_21
REMARK    8  A    between atoms: C_27  and  C_30
REMARK    9  A    between atoms: C_30  and  C_31
REMARK   10  A    between atoms: C_30  and  C_32
REMARK   11  A    between atoms: C_30  and  C_33
REMARK                            x       y       z     vdW  Elec       q    Type
REMARK                         _______ _______ _______ _____ _____    ______ ____
ROOT
ATOM      1  C   UNL     1      -0.792   2.014   1.223  0.00  0.00    +0.047 C 
ATOM      2  C   UNL     1      -0.014   1.500   0.010  0.00  0.00    +0.135 C 
ATOM      3  C   UNL     1      -0.617   2.027  -1.277  0.00  0.00    +0.251 C 
ATOM      4  O   UNL     1      -1.738   1.831  -1.695  0.00  0.00    -0.272 OA
ATOM      5  N   UNL     1       0.353   2.759  -1.860  0.00  0.00    -0.215 N 
ATOM      6  C   UNL     1       1.473   2.767  -1.129  0.00  0.00    +0.310 C 
ATOM      7  O   UNL     1       2.485   3.359  -1.449  0.00  0.00    -0.252 OA
ATOM      8  N   UNL     1       1.353   2.047   0.001  0.00  0.00    -0.281 N 
ATOM      9  H   UNL     1       2.035   1.914   0.678  0.00  0.00    +0.152 HD
ENDROOT
BRANCH   2  10
ATOM     10  C   UNL     1       0.017  -0.007   0.002  0.00  0.00    -0.015 A 
ATOM     11  C   UNL     1      -0.997  -0.716  -0.613  0.00  0.00    +0.006 A 
ATOM     12  C   UNL     1      -0.966  -2.098  -0.624  0.00  0.00    +0.004 A 
ATOM     13  C   UNL     1       0.075  -2.771  -0.012  0.00  0.00    -0.042 A 
ATOM     14  C   UNL     1       1.087  -2.062   0.607  0.00  0.00    +0.004 A 
ATOM     15  C   UNL     1       1.058  -0.679   0.615  0.00  0.00    +0.006 A 
BRANCH  13  16
ATOM     16  C   UNL     1       0.106  -4.277  -0.019  0.00  0.00    -0.013 C 
ATOM     17  C   UNL     1       0.093  -4.795   1.421  0.00  0.00    +0.015 C 
ATOM     18  C   UNL     1      -1.120  -4.809  -0.764  0.00  0.00    +0.015 C 
ATOM     19  C   UNL     1       1.378  -4.758  -0.722  0.00  0.00    +0.015 C 
ENDBRANCH  13  16
ENDBRANCH   2  10
BRANCH   5  20
ATOM     20  C   UNL     1       0.199   3.459  -3.138  0.00  0.00    +0.214 C 
BRANCH  20  21
ATOM     21  C   UNL     1       0.605   2.543  -4.264  0.00  0.00    +0.235 C 
ATOM     22  O   UNL     1       0.985   1.416  -4.023  0.00  0.00    -0.274 OA
ATOM     23  N   UNL     1       0.546   2.975  -5.539  0.00  0.00    -0.284 N 
ATOM     24  H   UNL     1       0.179   3.851  -5.738  0.00  0.00    +0.155 HD
BRANCH  23  25
ATOM     25  C   UNL     1       1.014   2.159  -6.578  0.00  0.00    +0.035 A 
ATOM     26  C   UNL     1       0.855   0.782  -6.504  0.00  0.00    +0.027 A 
ATOM     27  C   UNL     1       1.316  -0.022  -7.528  0.00  0.00    +0.049 A 
ATOM     28  C   UNL     1       1.938   0.546  -8.630  0.00  0.00    +0.145 A 
ATOM     29  C   UNL     1       2.097   1.923  -8.705  0.00  0.00    +0.084 A 
ATOM     30  C   UNL     1       1.630   2.729  -7.684  0.00  0.00    +0.047 A 
ATOM     31 CL   UNL     1       2.874   2.633 -10.085  0.00  0.00    -0.080 Cl
BRANCH  28  32
ATOM     32  O   UNL     1       2.391  -0.246  -9.639  0.00  0.00    -0.433 OA
BRANCH  32  33
ATOM     33  C   UNL     1       2.193  -1.654  -9.496  0.00  0.00    +0.541 C 
ATOM     34  F   UNL     1       2.847  -2.103  -8.343  0.00  0.00    -0.166 F 
ATOM     35  F   UNL     1       0.825  -1.925  -9.392  0.00  0.00    -0.166 F 
ENDBRANCH  32  33
ENDBRANCH  28  32
ENDBRANCH  23  25
ENDBRANCH  20  21
ENDBRANCH   5  20
TORSDOF 7
