REMARK  Name = ZINC22247674
REMARK  7 active torsions:
REMARK  status: ('A' for Active; 'I' for Inactive)
REMARK    1  A    between atoms: C_1  and  C_2
REMARK    2  A    between atoms: C_3  and  C_36
REMARK    3  A    between atoms: C_11  and  C_13
REMARK    4  A    between atoms: C_13  and  N_14
REMARK    5  A    between atoms: N_17  and  C_20
REMARK    6  A    between atoms: C_20  and  C_21
REMARK    7  A    between atoms: C_26  and  C_35
REMARK                            x       y       z     vdW  Elec       q    Type
REMARK                         _______ _______ _______ _____ _____    ______ ____
ROOT
ATOM      1  N   UNL     1       0.104  -4.815   4.051  0.00  0.00    +0.386 N 
ATOM      2  C   UNL     1      -1.153  -5.094   3.345  0.00  0.00    -0.063 C 
ATOM      3  C   UNL     1      -1.130  -6.528   2.811  0.00  0.00    +0.066 C 
ATOM      4  N   UNL     1      -0.961  -7.463   3.933  0.00  0.00    -0.298 NA
ATOM      5  C   UNL     1       0.282  -7.179   4.665  0.00  0.00    +0.066 C 
ATOM      6  C   UNL     1       0.248  -5.739   5.183  0.00  0.00    -0.063 C 
ATOM      7  H   UNL     1       0.880  -4.936   3.417  0.00  0.00    -0.081 HD
ENDROOT
BRANCH   1   8
ATOM      8  C   UNL     1       0.090  -3.432   4.547  0.00  0.00    -0.003 C 
BRANCH   8  19
ATOM      9  C   UNL     1      -0.018   1.503   0.010  0.00  0.00    +0.045 C 
ATOM     10  C   UNL     1       0.002  -0.004   0.002  0.00  0.00    -0.026 A 
ATOM     11  C   UNL     1       0.006  -0.677  -1.160  0.00  0.00    -0.008 A 
ATOM     12  S   UNL     1       0.032  -2.385  -0.648  0.00  0.00    -0.073 S 
ATOM     13  C   UNL     1       0.037  -2.144   1.110  0.00  0.00    +0.116 A 
ATOM     14  C   UNL     1       0.024  -0.745   1.250  0.00  0.00    +0.075 A 
ATOM     15  C   UNL     1       0.029  -0.257   2.597  0.00  0.00    +0.260 A 
ATOM     16  O   UNL     1       0.014   0.942   2.821  0.00  0.00    -0.267 OA
ATOM     17  N   UNL     1       0.051  -1.142   3.611  0.00  0.00    -0.312 N 
ATOM     18  H   UNL     1       0.054  -0.817   4.525  0.00  0.00    +0.170 HD
ATOM     19  C   UNL     1       0.067  -2.480   3.380  0.00  0.00    +0.094 A 
ATOM     20  N   UNL     1       0.053  -2.956   2.163  0.00  0.00    -0.229 NA
ATOM     21  C   UNL     1      -0.009  -0.122  -2.561  0.00  0.00    +0.052 C 
ENDBRANCH   8  19
ENDBRANCH   1   8
BRANCH   4  22
ATOM     22  C   UNL     1      -0.991  -8.855   3.468  0.00  0.00    +0.180 C 
BRANCH  22  23
ATOM     23  C   UNL     1      -1.062  -9.781   4.655  0.00  0.00    +0.234 C 
ATOM     24  O   UNL     1      -1.085  -9.324   5.779  0.00  0.00    -0.274 OA
ATOM     25  N   UNL     1      -1.100 -11.115   4.469  0.00  0.00    -0.269 N 
ATOM     26  C   UNL     1      -1.176 -12.034   5.615  0.00  0.00    +0.115 C 
ATOM     27  C   UNL     1       0.199 -12.422   6.095  0.00  0.00    +0.033 C 
ATOM     28  C   UNL     1       1.010 -13.273   5.132  0.00  0.00    +0.050 C 
ATOM     29  S   UNL     1       1.523 -12.282   3.699  0.00  0.00    -0.120 S 
ATOM     30  C   UNL     1       0.067 -12.284   2.679  0.00  0.00    +0.030 A 
ATOM     31  C   UNL     1      -1.075 -11.659   3.181  0.00  0.00    +0.050 A 
ATOM     32  C   UNL     1      -2.213 -11.594   2.384  0.00  0.00    +0.024 A 
ATOM     33  C   UNL     1      -2.209 -12.175   1.130  0.00  0.00    +0.002 A 
ATOM     34  C   UNL     1      -1.086 -12.825   0.653  0.00  0.00    +0.001 A 
ATOM     35  C   UNL     1       0.074 -12.878   1.435  0.00  0.00    +0.016 A 
ATOM     36  C   UNL     1       2.252 -13.805   5.848  0.00  0.00    +0.019 C 
ENDBRANCH  22  23
ENDBRANCH   4  22
TORSDOF 4
