REMARK  Name = ZINC14290986
REMARK  9 active torsions:
REMARK  status: ('A' for Active; 'I' for Inactive)
REMARK    1  A    between atoms: C_1  and  C_2
REMARK    2  A    between atoms: C_2  and  C_3
REMARK    3  A    between atoms: C_3  and  C_4
REMARK    4  A    between atoms: C_4  and  C_6
REMARK    5  A    between atoms: C_4  and  N_23
REMARK    6  A    between atoms: N_8  and  N_9
REMARK    7  A    between atoms: C_10  and  C_12
REMARK    8  A    between atoms: N_26  and  C_27
REMARK    9  A    between atoms: C_27  and  C_28
REMARK                            x       y       z     vdW  Elec       q    Type
REMARK                         _______ _______ _______ _____ _____    ______ ____
ROOT
ATOM      1  C   UNL     1      -3.130  11.764   0.228  0.00  0.00    +0.162 C 
ENDROOT
BRANCH   1   2
ATOM      2  N   UNL     1      -4.348  12.444  -0.221  0.00  0.00    -0.288 N 
ATOM      3  C   UNL     1      -4.333  13.773  -0.446  0.00  0.00    +0.300 C 
ATOM      4  O   UNL     1      -3.310  14.408  -0.276  0.00  0.00    -0.253 OA
ATOM      5  N   UNL     1      -5.454  14.399  -0.859  0.00  0.00    -0.295 N 
ATOM      6  H   UNL     1      -5.164  11.938  -0.356  0.00  0.00    +0.151 HD
ATOM      7  H   UNL     1      -6.270  13.893  -0.994  0.00  0.00    +0.151 HD
BRANCH   5   8
ATOM      8  C   UNL     1      -5.438  15.843  -1.103  0.00  0.00    +0.141 C 
BRANCH   8   9
ATOM      9  C   UNL     1      -6.805  16.291  -1.553  0.00  0.00    -0.030 A 
ATOM     10  C   UNL     1      -7.119  16.305  -2.899  0.00  0.00    +0.008 A 
ATOM     11  C   UNL     1      -8.374  16.711  -3.312  0.00  0.00    +0.038 A 
ATOM     12  C   UNL     1      -9.313  17.114  -2.378  0.00  0.00    +0.123 A 
ATOM     13  C   UNL     1      -8.996  17.104  -1.030  0.00  0.00    +0.038 A 
ATOM     14  C   UNL     1      -7.742  16.692  -0.619  0.00  0.00    +0.008 A 
ATOM     15  F   UNL     1     -10.539  17.515  -2.781  0.00  0.00    -0.205 F 
ENDBRANCH   8   9
ENDBRANCH   5   8
ENDBRANCH   1   2
BRANCH   1  16
ATOM     16  C   UNL     1      -3.190  10.312  -0.169  0.00  0.00    +0.249 C 
ATOM     17  O   UNL     1      -4.155   9.887  -0.768  0.00  0.00    -0.272 OA
ATOM     18  N   UNL     1      -2.172   9.486   0.141  0.00  0.00    -0.233 N 
ATOM     19  H   UNL     1      -1.400   9.826   0.620  0.00  0.00    +0.173 HD
BRANCH  18  20
ATOM     20  N   UNL     1      -2.228   8.135  -0.228  0.00  0.00    -0.231 N 
ATOM     21  C   UNL     1      -1.209   7.309   0.082  0.00  0.00    +0.273 C 
ATOM     22  O   UNL     1      -0.244   7.734   0.681  0.00  0.00    -0.270 OA
ATOM     23  H   UNL     1      -3.000   7.795  -0.707  0.00  0.00    +0.173 HD
BRANCH  21  24
ATOM     24  C   UNL     1      -1.270   5.856  -0.315  0.00  0.00    +0.297 C 
ATOM     25  C   UNL     1      -2.417   5.163   0.432  0.00  0.00    +0.283 C 
ATOM     26  O   UNL     1      -2.437   3.785   0.043  0.00  0.00    -0.484 OA
ATOM     27  C   UNL     1      -1.241   3.136   0.031  0.00  0.00    +0.162 A 
ATOM     28  C   UNL     1      -1.219   1.749   0.017  0.00  0.00    +0.049 A 
ATOM     29  C   UNL     1      -0.013   1.076   0.008  0.00  0.00    +0.004 A 
ATOM     30  C   UNL     1       1.176   1.782   0.000  0.00  0.00    +0.004 A 
ATOM     31  C   UNL     1       1.161   3.164   0.009  0.00  0.00    +0.049 A 
ATOM     32  C   UNL     1      -0.046   3.846   0.026  0.00  0.00    +0.163 A 
ATOM     33  O   UNL     1      -0.045   5.207   0.043  0.00  0.00    -0.472 OA
ENDBRANCH  21  24
ENDBRANCH  18  20
ENDBRANCH   1  16
BRANCH   1  34
ATOM     34  C   UNL     1      -3.017  11.873   1.750  0.00  0.00    +0.031 C 
BRANCH  34  36
ATOM     35  C   UNL     1      -2.717  13.447   3.666  0.00  0.00    +0.004 C 
ATOM     36  C   UNL     1      -2.830  13.339   2.144  0.00  0.00    -0.001 C 
ENDBRANCH  34  36
ENDBRANCH   1  34
TORSDOF 8
