REMARK  Name = ZINC18046334
REMARK  6 active torsions:
REMARK  status: ('A' for Active; 'I' for Inactive)
REMARK    1  A    between atoms: C_1  and  C_2
REMARK    2  A    between atoms: N_10  and  C_13
REMARK    3  A    between atoms: C_16  and  N_19
REMARK    4  A    between atoms: C_20  and  C_22
REMARK    5  A    between atoms: N_31  and  C_34
REMARK    6  A    between atoms: C_34  and  C_35
REMARK                            x       y       z     vdW  Elec       q    Type
REMARK                         _______ _______ _______ _____ _____    ______ ____
ROOT
ATOM      1  C   UNL     1      -0.040   1.587  -0.035  0.00  0.00    +0.025 C 
ATOM      2  C   UNL     1      -0.028   0.057  -0.033  0.00  0.00    +0.064 C 
ATOM      3  C   UNL     1       0.729  -0.476  -1.267  0.00  0.00    +0.107 C 
ATOM      4  C   UNL     1       1.504  -1.721  -0.754  0.00  0.00    +0.123 C 
ATOM      5  C   UNL     1       2.953  -1.315  -0.903  0.00  0.00    +0.233 C 
ATOM      6  O   UNL     1       3.908  -2.006  -0.619  0.00  0.00    -0.274 OA
ATOM      7  N   UNL     1       3.018  -0.073  -1.397  0.00  0.00    -0.210 N 
ATOM      8  C   UNL     1       1.819   0.501  -1.646  0.00  0.00    +0.232 C 
ATOM      9  O   UNL     1       1.638   1.613  -2.094  0.00  0.00    -0.274 OA
ATOM     10  C   UNL     1       1.133  -1.821   0.731  0.00  0.00    +0.136 C 
ATOM     11  N   UNL     1       0.737  -0.452   1.137  0.00  0.00    -0.296 NA
ATOM     12  C   UNL     1       0.037  -2.823   0.957  0.00  0.00    +0.004 A 
ATOM     13  C   UNL     1      -1.255  -2.935   0.494  0.00  0.00    +0.008 A 
ATOM     14  C   UNL     1      -2.043  -4.000   0.892  0.00  0.00    +0.000 A 
ATOM     15  C   UNL     1      -1.530  -4.951   1.756  0.00  0.00    +0.002 A 
ATOM     16  C   UNL     1      -0.237  -4.842   2.223  0.00  0.00    +0.024 A 
ATOM     17  C   UNL     1       0.563  -3.772   1.828  0.00  0.00    +0.042 A 
ATOM     18  N   UNL     1       1.880  -3.447   2.159  0.00  0.00    -0.268 N 
ATOM     19  C   UNL     1       2.290  -2.314   1.556  0.00  0.00    +0.245 C 
ATOM     20  O   UNL     1       3.381  -1.793   1.659  0.00  0.00    -0.273 OA
ATOM     21  H   UNL     1       1.542   0.127   1.322  0.00  0.00    +0.123 HD
ENDROOT
BRANCH   7  22
ATOM     22  C   UNL     1       4.234   0.583  -1.645  0.00  0.00    +0.044 A 
ATOM     23  C   UNL     1       5.183  -0.004  -2.471  0.00  0.00    +0.026 A 
ATOM     24  C   UNL     1       6.379   0.641  -2.715  0.00  0.00    +0.025 A 
ATOM     25  C   UNL     1       6.633   1.876  -2.134  0.00  0.00    +0.033 A 
ATOM     26  C   UNL     1       5.684   2.462  -1.307  0.00  0.00    +0.025 A 
ATOM     27  C   UNL     1       4.485   1.820  -1.068  0.00  0.00    +0.026 A 
BRANCH  25  28
ATOM     28  N   UNL     1       7.846   2.530  -2.381  0.00  0.00    -0.286 N 
ATOM     29  C   UNL     1       8.423   3.269  -1.412  0.00  0.00    +0.214 C 
ATOM     30  O   UNL     1       7.945   3.287  -0.297  0.00  0.00    -0.276 OA
ATOM     31  C   UNL     1       9.662   4.072  -1.714  0.00  0.00    +0.109 C 
ATOM     32  H   UNL     1       8.272   2.451  -3.249  0.00  0.00    +0.155 HD
ENDBRANCH  25  28
ENDBRANCH   7  22
BRANCH  18  33
ATOM     33  C   UNL     1       2.719  -4.245   3.056  0.00  0.00    +0.125 C 
BRANCH  33  34
ATOM     34  C   UNL     1       3.484  -5.291   2.244  0.00  0.00    +0.099 C 
ATOM     35 BR   UNL     1       4.610  -6.362   3.449  0.00  0.00    -0.090 Br
ENDBRANCH  33  34
ENDBRANCH  18  33
TORSDOF 4
