REMARK  Name = ZINC14878564
REMARK  10 active torsions:
REMARK  status: ('A' for Active; 'I' for Inactive)
REMARK    1  A    between atoms: C_1  and  C_2
REMARK    2  A    between atoms: C_2  and  O_3
REMARK    3  A    between atoms: O_3  and  C_4
REMARK    4  A    between atoms: C_9  and  N_65
REMARK    5  A    between atoms: C_15  and  C_30
REMARK    6  A    between atoms: C_16  and  O_23
REMARK    7  A    between atoms: O_23  and  C_24
REMARK    8  A    between atoms: C_24  and  C_25
REMARK    9  A    between atoms: C_30  and  O_32
REMARK   10  A    between atoms: O_32  and  C_33
REMARK                            x       y       z     vdW  Elec       q    Type
REMARK                         _______ _______ _______ _____ _____    ______ ____
ROOT
ATOM      1  C   UNL     1      -0.095   4.188   0.501  0.00  0.00    -0.072 C 
ATOM      2  C   UNL     1       1.152   3.563  -0.122  0.00  0.00    +0.036 C 
ATOM      3  C   UNL     1       1.120   2.057  -0.024  0.00  0.00    +0.038 A 
ATOM      4  C   UNL     1       2.348   1.412   0.043  0.00  0.00    +0.120 A 
ATOM      5  C   UNL     1       2.392  -0.050   0.093  0.00  0.00    +0.142 A 
ATOM      6  C   UNL     1       1.192  -0.732   0.062  0.00  0.00    +0.116 A 
ATOM      7  C   UNL     1       0.002  -0.004   0.001  0.00  0.00    +0.255 A 
ATOM      8  O   UNL     1      -1.057  -0.608  -0.038  0.00  0.00    -0.268 OA
ATOM      9  N   UNL     1      -0.016   1.349  -0.017  0.00  0.00    -0.313 N 
ATOM     10  C   UNL     1      -1.339   1.982  -0.009  0.00  0.00    +0.106 C 
ATOM     11  C   UNL     1      -1.456   3.026  -1.120  0.00  0.00    -0.056 C 
ATOM     12  N   UNL     1      -1.102   4.347  -0.569  0.00  0.00    +0.383 N 
ATOM     13  H   UNL     1      -0.706   4.927  -1.318  0.00  0.00    -0.081 HD
ENDROOT
BRANCH  12  19
ATOM     14  C   UNL     1      -6.381   4.873   0.484  0.00  0.00    +0.403 C 
ATOM     15  O   UNL     1      -7.101   5.184  -0.444  0.00  0.00    -0.226 OA
ATOM     16  N   UNL     1      -5.082   5.231   0.478  0.00  0.00    -0.268 N 
ATOM     17  C   UNL     1      -4.522   5.997  -0.644  0.00  0.00    +0.109 C 
ATOM     18  C   UNL     1      -3.292   5.258  -1.180  0.00  0.00    +0.004 C 
ATOM     19  C   UNL     1      -2.308   5.013  -0.033  0.00  0.00    -0.066 C 
ATOM     20  C   UNL     1      -2.973   4.137   1.032  0.00  0.00    +0.004 C 
ATOM     21  C   UNL     1      -4.199   4.863   1.593  0.00  0.00    +0.109 C 
BRANCH  14  22
ATOM     22  O   UNL     1      -6.881   4.172   1.519  0.00  0.00    -0.451 OA
BRANCH  22  24
ATOM     23  C   UNL     1      -8.672   3.032   2.712  0.00  0.00    +0.048 C 
ATOM     24  C   UNL     1      -8.289   3.821   1.458  0.00  0.00    +0.230 C 
ENDBRANCH  22  24
ENDBRANCH  14  22
ENDBRANCH  12  19
BRANCH   4  25
ATOM     25  C   UNL     1       3.595   2.192   0.064  0.00  0.00    +0.344 C 
ATOM     26  O   UNL     1       4.180   2.374   1.114  0.00  0.00    -0.245 OA
BRANCH  25  27
ATOM     27  O   UNL     1       4.088   2.705  -1.081  0.00  0.00    -0.464 OA
ATOM     28  C   UNL     1       5.323   3.463  -0.985  0.00  0.00    +0.280 C 
ENDBRANCH  25  27
ENDBRANCH   4  25
BRANCH   5  29
ATOM     29  O   UNL     1       3.570  -0.712   0.167  0.00  0.00    -0.486 OA
BRANCH  29  30
ATOM     30  C   UNL     1       3.510  -2.139   0.211  0.00  0.00    +0.271 C 
BRANCH  30  31
ATOM     31  C   UNL     1       4.907  -2.698   0.291  0.00  0.00    +0.027 A 
ATOM     32  C   UNL     1       5.652  -2.980   1.388  0.00  0.00    +0.014 A 
ATOM     33  C   UNL     1       6.925  -3.493   1.220  0.00  0.00    +0.008 A 
ATOM     34  C   UNL     1       7.390  -3.699  -0.036  0.00  0.00    +0.045 A 
ATOM     35  S   UNL     1       6.008  -3.168  -1.034  0.00  0.00    -0.098 S 
ENDBRANCH  30  31
ENDBRANCH  29  30
ENDBRANCH   5  29
TORSDOF 8
