REMARK  Name = ZINC14476920
REMARK  3 active torsions:
REMARK  status: ('A' for Active; 'I' for Inactive)
REMARK    1  A    between atoms: C_1  and  C_2
REMARK    2  A    between atoms: C_5  and  N_26
REMARK    3  A    between atoms: C_9  and  C_18
REMARK                            x       y       z     vdW  Elec       q    Type
REMARK                         _______ _______ _______ _____ _____    ______ ____
ROOT
ATOM      1  C   UNL     1      -0.283   1.590  -0.099  0.00  0.00    +0.045 C 
ATOM      2  C   UNL     1      -0.168   0.087  -0.092  0.00  0.00    -0.029 A 
ATOM      3  C   UNL     1       0.145  -0.577  -1.257  0.00  0.00    +0.007 A 
ATOM      4  C   UNL     1       0.265  -1.954  -1.263  0.00  0.00    +0.033 A 
ATOM      5  C   UNL     1       0.052  -2.664  -0.096  0.00  0.00    +0.132 A 
ATOM      6  C   UNL     1      -0.275  -2.008   1.072  0.00  0.00    +0.011 A 
ATOM      7  C   UNL     1      -0.384  -0.615   1.095  0.00  0.00    +0.037 A 
ATOM      8  N   UNL     1      -0.683   0.126   2.237  0.00  0.00    -0.336 N 
ATOM      9  C   UNL     1      -0.988  -0.634   3.459  0.00  0.00    +0.106 C 
ATOM     10  C   UNL     1      -0.045  -1.819   3.493  0.00  0.00    +0.029 C 
ATOM     11  C   UNL     1      -0.531  -2.741   2.331  0.00  0.00    +0.051 C 
ATOM     12  C   UNL     1       0.110  -4.042   2.644  0.00  0.00    -0.023 C 
ATOM     13  C   UNL     1       0.283  -4.122   3.959  0.00  0.00    -0.030 C 
ATOM     14  C   UNL     1      -0.207  -2.836   4.629  0.00  0.00    +0.033 C 
ATOM     15  H   UNL     1      -1.401   0.809   2.047  0.00  0.00    +0.147 HD
ENDROOT
BRANCH   9  16
ATOM     16  C   UNL     1      -0.766   0.232   4.672  0.00  0.00    -0.007 A 
ATOM     17  C   UNL     1       0.164   1.254   4.631  0.00  0.00    +0.007 A 
ATOM     18  C   UNL     1       0.367   2.050   5.743  0.00  0.00    +0.002 A 
ATOM     19  C   UNL     1      -0.359   1.824   6.898  0.00  0.00    +0.021 A 
ATOM     20  C   UNL     1      -1.289   0.801   6.941  0.00  0.00    +0.060 A 
ATOM     21  C   UNL     1      -1.498   0.009   5.824  0.00  0.00    +0.064 A 
ATOM     22 CL   UNL     1      -2.671  -1.270   5.874  0.00  0.00    -0.082 Cl
ATOM     23 CL   UNL     1      -2.201   0.517   8.390  0.00  0.00    -0.082 Cl
ENDBRANCH   9  16
BRANCH   5  24
ATOM     24  N   UNL     1       0.178  -4.139  -0.100  0.00  0.00    +0.057 N 
ATOM     25  O   UNL     1       1.168  -4.665  -0.575  0.00  0.00    -0.126 OA
ATOM     26  O   UNL     1      -0.710  -4.826   0.373  0.00  0.00    -0.126 OA
ENDBRANCH   5  24
TORSDOF 2
