REMARK  Name = ZINC59392928
REMARK  9 active torsions:
REMARK  status: ('A' for Active; 'I' for Inactive)
REMARK    1  A    between atoms: C_1  and  C_2
REMARK    2  A    between atoms: C_2  and  C_3
REMARK    3  A    between atoms: C_2  and  N_4
REMARK    4  A    between atoms: N_4  and  C_5
REMARK    5  A    between atoms: C_11  and  C_13
REMARK    6  A    between atoms: C_13  and  S_14
REMARK    7  A    between atoms: S_14  and  C_15
REMARK    8  A    between atoms: C_23  and  C_24
REMARK    9  A    between atoms: C_30  and  C_33
REMARK                            x       y       z     vdW  Elec       q    Type
REMARK                         _______ _______ _______ _____ _____    ______ ____
ROOT
ATOM      1  C   UNL     1      -2.650   1.014   5.049  0.00  0.00    +0.163 C 
ATOM      2  N   UNL     1      -3.587   1.777   5.654  0.00  0.00    -0.338 N 
ATOM      3  C   UNL     1      -3.259   2.667   6.562  0.00  0.00    +0.027 C 
ATOM      4  C   UNL     1      -1.815   2.787   6.987  0.00  0.00    +0.065 C 
ATOM      5  C   UNL     1      -1.574   4.209   7.502  0.00  0.00    +0.012 C 
ATOM      6  C   UNL     1      -2.521   4.482   8.668  0.00  0.00    +0.005 C 
ATOM      7  C   UNL     1      -3.969   4.491   8.207  0.00  0.00    +0.037 C 
ATOM      8  C   UNL     1      -4.241   3.487   7.135  0.00  0.00    -0.027 C 
ATOM      9  C   UNL     1      -5.513   3.361   6.689  0.00  0.00    +0.013 C 
ATOM     10  C   UNL     1      -0.919   2.525   5.773  0.00  0.00    +0.147 C 
ATOM     11  N   UNL     1      -1.381   1.312   5.093  0.00  0.00    -0.253 NA
ATOM     12  H   UNL     1      -4.520   1.666   5.413  0.00  0.00    +0.168 HD
ENDROOT
BRANCH   9  13
ATOM     13  C   UNL     1      -6.540   4.324   7.114  0.00  0.00    -0.025 A 
ATOM     14  C   UNL     1      -6.269   5.697   7.089  0.00  0.00    +0.008 A 
ATOM     15  C   UNL     1      -7.237   6.593   7.488  0.00  0.00    +0.001 A 
ATOM     16  C   UNL     1      -8.474   6.139   7.913  0.00  0.00    +0.000 A 
ATOM     17  C   UNL     1      -8.749   4.783   7.942  0.00  0.00    +0.001 A 
ATOM     18  C   UNL     1      -7.794   3.873   7.540  0.00  0.00    +0.008 A 
ENDBRANCH   9  13
BRANCH  10  19
ATOM     19  C   UNL     1      -0.992   3.698   4.830  0.00  0.00    -0.022 A 
ATOM     20  C   UNL     1      -2.067   3.828   3.970  0.00  0.00    +0.006 A 
ATOM     21  C   UNL     1      -2.135   4.904   3.105  0.00  0.00    +0.000 A 
ATOM     22  C   UNL     1      -1.128   5.850   3.099  0.00  0.00    +0.000 A 
ATOM     23  C   UNL     1      -0.053   5.721   3.959  0.00  0.00    +0.000 A 
ATOM     24  C   UNL     1       0.012   4.648   4.828  0.00  0.00    +0.006 A 
ENDBRANCH  10  19
BRANCH   1  25
ATOM     25  S   UNL     1      -3.157  -0.432   4.179  0.00  0.00    -0.079 S 
BRANCH  25  26
ATOM     26  C   UNL     1      -1.607  -1.132   3.550  0.00  0.00    +0.173 C 
BRANCH  26  28
ATOM     27  N   UNL     1      -0.890  -3.137   2.291  0.00  0.00    -0.268 N 
ATOM     28  C   UNL     1      -1.902  -2.391   2.776  0.00  0.00    +0.230 C 
ATOM     29  O   UNL     1      -3.051  -2.733   2.590  0.00  0.00    -0.274 OA
BRANCH  27  30
ATOM     30  C   UNL     1      -1.163  -4.253   1.493  0.00  0.00    +0.037 A 
ATOM     31  C   UNL     1      -0.124  -4.944   0.882  0.00  0.00    +0.023 A 
ATOM     32  C   UNL     1      -0.398  -6.046   0.096  0.00  0.00    +0.002 A 
ATOM     33  C   UNL     1      -1.704  -6.462  -0.083  0.00  0.00    +0.000 A 
ATOM     34  C   UNL     1      -2.740  -5.777   0.524  0.00  0.00    +0.002 A 
ATOM     35  C   UNL     1      -2.474  -4.677   1.315  0.00  0.00    +0.023 A 
ENDBRANCH  27  30
BRANCH  27  37
ATOM     36  C   UNL     1       1.212  -3.984   3.209  0.00  0.00    +0.028 C 
ATOM     37  C   UNL     1       0.497  -2.778   2.598  0.00  0.00    +0.075 C 
ATOM     38  C   UNL     1       1.212  -2.359   1.312  0.00  0.00    +0.028 C 
ENDBRANCH  27  37
ENDBRANCH  26  28
ENDBRANCH  25  26
ENDBRANCH   1  25
TORSDOF 7
