REMARK  Name = ZINC30983062
REMARK  7 active torsions:
REMARK  status: ('A' for Active; 'I' for Inactive)
REMARK    1  A    between atoms: C_1  and  C_2
REMARK    2  A    between atoms: C_2  and  C_35
REMARK    3  A    between atoms: C_4  and  N_13
REMARK    4  A    between atoms: C_14  and  C_16
REMARK    5  A    between atoms: N_19  and  C_22
REMARK    6  A    between atoms: C_22  and  C_23
REMARK    7  A    between atoms: C_25  and  C_28
REMARK                            x       y       z     vdW  Elec       q    Type
REMARK                         _______ _______ _______ _____ _____    ______ ____
ROOT
ATOM      1  C   UNL     1       6.335  -0.233   1.384  0.00  0.00    +0.071 C 
ATOM      2  C   UNL     1       7.388   0.777   1.850  0.00  0.00    -0.006 C 
ATOM      3  C   UNL     1       8.402   0.069   2.751  0.00  0.00    -0.077 C 
ATOM      4  N   UNL     1       9.041  -1.024   2.008  0.00  0.00    +0.386 N 
ATOM      5  C   UNL     1       8.055  -2.030   1.591  0.00  0.00    -0.077 C 
ATOM      6  C   UNL     1       7.031  -1.385   0.655  0.00  0.00    -0.006 C 
ATOM      7  H   UNL     1       9.487  -0.595   1.098  0.00  0.00    -0.081 HD
ENDROOT
BRANCH   1   9
ATOM      8  N   UNL     1       4.638   1.494   0.876  0.00  0.00    -0.308 N 
ATOM      9  C   UNL     1       5.368   0.445   0.448  0.00  0.00    +0.216 C 
ATOM     10  O   UNL     1       5.246   0.046  -0.691  0.00  0.00    -0.276 OA
ATOM     11  H   UNL     1       4.748   1.855   1.909  0.00  0.00    +0.149 HD
BRANCH   8  15
ATOM     12  C   UNL     1       2.114   5.653  -0.015  0.00  0.00    +0.055 C 
ATOM     13  C   UNL     1       2.289   4.173  -0.359  0.00  0.00    +0.107 C 
ATOM     14  C   UNL     1       3.483   3.600   0.415  0.00  0.00    +0.074 C 
ATOM     15  C   UNL     1       3.697   2.152  -0.034  0.00  0.00    +0.110 C 
ATOM     16  C   UNL     1       2.383   1.415  -0.017  0.00  0.00    +0.015 A 
ATOM     17  C   UNL     1       2.395   0.030  -0.024  0.00  0.00    +0.009 A 
ATOM     18  C   UNL     1       1.209  -0.678  -0.013  0.00  0.00    +0.001 A 
ATOM     19  C   UNL     1       0.002  -0.004   0.002  0.00  0.00    +0.004 A 
ATOM     20  C   UNL     1      -0.017   1.375   0.010  0.00  0.00    +0.046 A 
ATOM     21  C   UNL     1       1.176   2.092   0.002  0.00  0.00    +0.126 A 
ATOM     22  O   UNL     1       1.117   3.449   0.019  0.00  0.00    -0.486 OA
ATOM     23  C   UNL     1       2.527   4.017  -1.863  0.00  0.00    +0.055 C 
ENDBRANCH   8  15
ENDBRANCH   1   9
BRANCH   4  24
ATOM     24  C   UNL     1      10.118  -1.638   2.796  0.00  0.00    +0.022 C 
BRANCH  24  25
ATOM     25  C   UNL     1      10.970  -0.557   3.409  0.00  0.00    +0.211 A 
ATOM     26  N   UNL     1      10.790   0.006   4.578  0.00  0.00    -0.193 NA
ATOM     27  C   UNL     1      11.788   0.910   4.703  0.00  0.00    +0.202 A 
ATOM     28  N   UNL     1      12.509   0.843   3.614  0.00  0.00    -0.056 NA
ATOM     29  O   UNL     1      12.055   0.003   2.865  0.00  0.00    -0.340 OA
BRANCH  27  30
ATOM     30  C   UNL     1      12.022   1.810   5.860  0.00  0.00    +0.023 A 
ATOM     31  C   UNL     1      11.162   1.775   6.956  0.00  0.00    +0.014 A 
ATOM     32  C   UNL     1      11.386   2.610   8.032  0.00  0.00    +0.039 A 
ATOM     33  C   UNL     1      12.457   3.489   8.018  0.00  0.00    +0.123 A 
ATOM     34  C   UNL     1      13.311   3.530   6.928  0.00  0.00    +0.039 A 
ATOM     35  C   UNL     1      13.098   2.695   5.850  0.00  0.00    +0.014 A 
ATOM     36  F   UNL     1      12.670   4.308   9.071  0.00  0.00    -0.205 F 
ENDBRANCH  27  30
ENDBRANCH  24  25
ENDBRANCH   4  24
TORSDOF 5
