REMARK  Name = ZINC13212321
REMARK  10 active torsions:
REMARK  status: ('A' for Active; 'I' for Inactive)
REMARK    1  A    between atoms: C_4  and  N_31
REMARK    2  A    between atoms: C_5  and  N_7
REMARK    3  A    between atoms: N_7  and  C_8
REMARK    4  A    between atoms: C_8  and  C_9
REMARK    5  A    between atoms: C_9  and  N_10
REMARK    6  A    between atoms: N_10  and  C_11
REMARK    7  A    between atoms: C_14  and  N_28
REMARK    8  A    between atoms: C_16  and  S_17
REMARK    9  A    between atoms: S_17  and  N_20
REMARK   10  A    between atoms: C_23  and  C_26
REMARK                            x       y       z     vdW  Elec       q    Type
REMARK                         _______ _______ _______ _____ _____    ______ ____
ROOT
ATOM      1  C   UNL     1      -7.665   0.301   1.145  0.00  0.00    +0.054 A 
ATOM      2  C   UNL     1      -7.926   1.666   1.117  0.00  0.00    +0.027 A 
ATOM      3  C   UNL     1      -9.198   2.130   1.385  0.00  0.00    +0.034 A 
ATOM      4  C   UNL     1     -10.213   1.239   1.681  0.00  0.00    +0.128 A 
ATOM      5  C   UNL     1      -9.958  -0.120   1.710  0.00  0.00    +0.063 A 
ATOM      6  C   UNL     1      -8.689  -0.591   1.437  0.00  0.00    +0.128 A 
ENDROOT
BRANCH   6   7
ATOM      7  S   UNL     1      -8.366  -2.323   1.467  0.00  0.00    +0.063 S 
ATOM      8  O   UNL     1      -9.591  -2.959   1.806  0.00  0.00    -0.153 OA
ATOM      9  O   UNL     1      -7.657  -2.625   0.273  0.00  0.00    -0.153 OA
BRANCH   7  10
ATOM     10  N   UNL     1      -7.323  -2.606   2.721  0.00  0.00    -0.176 NA
ATOM     11  C   UNL     1      -5.877  -2.713   2.483  0.00  0.00    +0.110 C 
ATOM     12  C   UNL     1      -5.372  -4.027   3.075  0.00  0.00    +0.032 C 
ATOM     13  C   UNL     1      -5.774  -4.108   4.550  0.00  0.00    +0.105 C 
ATOM     14  C   UNL     1      -7.299  -4.079   4.667  0.00  0.00    +0.032 C 
ATOM     15  C   UNL     1      -7.826  -2.760   4.093  0.00  0.00    +0.110 C 
BRANCH  13  16
ATOM     16  C   UNL     1      -5.249  -5.390   5.144  0.00  0.00    +0.359 C 
ATOM     17  O   UNL     1      -6.016  -6.197   5.612  0.00  0.00    -0.246 OA
ATOM     18  O   UNL     1      -3.929  -5.635   5.152  0.00  0.00    -0.246 OA
ENDBRANCH  13  16
ENDBRANCH   7  10
ENDBRANCH   6   7
BRANCH   4  19
ATOM     19  N   UNL     1     -11.576   1.740   1.967  0.00  0.00    +0.056 N 
ATOM     20  O   UNL     1     -11.803   2.937   1.942  0.00  0.00    -0.126 OA
ATOM     21  O   UNL     1     -12.471   0.956   2.228  0.00  0.00    -0.126 OA
ENDBRANCH   4  19
BRANCH   1  22
ATOM     22  N   UNL     1      -6.380  -0.172   0.875  0.00  0.00    -0.341 N 
ATOM     23  H   UNL     1      -6.215  -1.126   0.822  0.00  0.00    +0.146 HD
BRANCH  22  24
ATOM     24  C   UNL     1      -5.279   0.774   0.671  0.00  0.00    +0.120 C 
BRANCH  24  25
ATOM     25  C   UNL     1      -3.988   0.001   0.393  0.00  0.00    +0.120 C 
BRANCH  25  26
ATOM     26  N   UNL     1      -2.887   0.946   0.189  0.00  0.00    -0.341 N 
ATOM     27  H   UNL     1      -3.052   1.901   0.242  0.00  0.00    +0.146 HD
BRANCH  26  32
ATOM     28  C   UNL     1      -0.114  -1.350  -0.546  0.00  0.00    +0.002 A 
ATOM     29  C   UNL     1       0.946  -0.464  -0.616  0.00  0.00    +0.002 A 
ATOM     30  C   UNL     1       0.735   0.889  -0.425  0.00  0.00    +0.034 A 
ATOM     31  C   UNL     1      -0.534   1.359  -0.152  0.00  0.00    +0.147 A 
ATOM     32  C   UNL     1      -1.601   0.473  -0.081  0.00  0.00    +0.058 A 
ATOM     33  C   UNL     1      -1.387  -0.885  -0.279  0.00  0.00    +0.025 A 
BRANCH  31  34
ATOM     34  N   UNL     1      -0.758   2.807   0.059  0.00  0.00    +0.058 N 
ATOM     35  O   UNL     1       0.190   3.571   0.099  0.00  0.00    -0.126 OA
ATOM     36  O   UNL     1      -1.891   3.236   0.187  0.00  0.00    -0.126 OA
ENDBRANCH  31  34
ENDBRANCH  26  32
ENDBRANCH  25  26
ENDBRANCH  24  25
ENDBRANCH  22  24
ENDBRANCH   1  22
TORSDOF 10
