REMARK  Name = ZINC13244699
REMARK  12 active torsions:
REMARK  status: ('A' for Active; 'I' for Inactive)
REMARK    1  A    between atoms: C_1  and  C_2
REMARK    2  A    between atoms: C_4  and  C_33
REMARK    3  A    between atoms: C_5  and  N_9
REMARK    4  A    between atoms: C_6  and  C_8
REMARK    5  A    between atoms: C_10  and  C_12
REMARK    6  A    between atoms: C_12  and  N_13
REMARK    7  A    between atoms: C_14  and  C_16
REMARK    8  A    between atoms: C_16  and  N_17
REMARK    9  A    between atoms: N_20  and  CA_21
REMARK   10  A    between atoms: CA_21  and  C_23
REMARK   11  A    between atoms: CA_21  and  C_31
REMARK   12  A    between atoms: C_23  and  C_24
REMARK                            x       y       z     vdW  Elec       q    Type
REMARK                         _______ _______ _______ _____ _____    ______ ____
ROOT
ATOM      1  C   UNL     1      -6.846   0.439   2.246  0.00  0.00    +0.201 C 
ENDROOT
BRANCH   1   2
ATOM      2  N   UNL     1      -6.338   1.026   1.004  0.00  0.00    -0.291 N 
ATOM      3  C   UNL     1      -6.050   2.342   0.949  0.00  0.00    +0.301 C 
ATOM      4  O   UNL     1      -6.211   3.041   1.931  0.00  0.00    -0.253 OA
ATOM      5  N   UNL     1      -5.582   2.882  -0.194  0.00  0.00    -0.286 N 
ATOM      6  H   UNL     1      -6.210   0.469   0.221  0.00  0.00    +0.151 HD
ATOM      7  H   UNL     1      -5.454   2.324  -0.977  0.00  0.00    +0.151 HD
BRANCH   5   8
ATOM      8  CA  UNL     1      -5.269   4.312  -0.254  0.00  0.00    +0.196 C 
BRANCH   8   9
ATOM      9  C   UNL     1      -3.869   4.540   0.257  0.00  0.00    +0.376 C 
ATOM     10  O   UNL     1      -3.203   3.605   0.632  0.00  0.00    -0.244 OA
ATOM     11  OXT UNL     1      -3.361   5.783   0.290  0.00  0.00    -0.244 OA
ENDBRANCH   8   9
BRANCH   8  12
ATOM     12  C   UNL     1      -5.369   4.796  -1.701  0.00  0.00    +0.130 C 
BRANCH  12  13
ATOM     13  C   UNL     1      -6.796   4.681  -2.172  0.00  0.00    +0.218 C 
ATOM     14  O   UNL     1      -7.649   4.254  -1.423  0.00  0.00    -0.276 OA
ATOM     15  N   UNL     1      -7.124   5.053  -3.425  0.00  0.00    -0.301 N 
ATOM     16  C   UNL     1      -6.196   5.591  -4.430  0.00  0.00    +0.108 C 
ATOM     17  C   UNL     1      -7.020   5.896  -5.699  0.00  0.00    +0.020 C 
ATOM     18  C   UNL     1      -8.461   6.051  -5.145  0.00  0.00    +0.020 C 
ATOM     19  C   UNL     1      -8.475   4.994  -4.013  0.00  0.00    +0.108 C 
ENDBRANCH  12  13
ENDBRANCH   8  12
ENDBRANCH   5   8
ENDBRANCH   1   2
BRANCH   1  21
ATOM     20  N   UNL     1      -7.559  -1.786   3.058  0.00  0.00    -0.305 N 
ATOM     21  C   UNL     1      -7.088  -1.035   2.043  0.00  0.00    +0.231 C 
ATOM     22  O   UNL     1      -6.858  -1.544   0.967  0.00  0.00    -0.274 OA
ATOM     23  H   UNL     1      -7.742  -1.379   3.918  0.00  0.00    +0.149 HD
BRANCH  20  24
ATOM     24  C   UNL     1      -7.793  -3.219   2.860  0.00  0.00    +0.200 C 
BRANCH  24  26
ATOM     25  N   UNL     1      -8.604  -5.139   4.193  0.00  0.00    -0.284 N 
ATOM     26  C   UNL     1      -8.316  -3.823   4.138  0.00  0.00    +0.234 C 
ATOM     27  O   UNL     1      -8.476  -3.126   5.117  0.00  0.00    -0.274 OA
ATOM     28  H   UNL     1      -8.526  -5.686   3.396  0.00  0.00    +0.155 HD
BRANCH  25  33
ATOM     29  C   UNL     1     -10.276  -7.476   9.084  0.00  0.00    +0.044 C 
ATOM     30  C   UNL     1      -9.832  -6.855   7.785  0.00  0.00    -0.050 A 
ATOM     31  C   UNL     1     -10.587  -7.036   6.640  0.00  0.00    +0.008 A 
ATOM     32  C   UNL     1     -10.182  -6.468   5.448  0.00  0.00    -0.029 A 
ATOM     33  C   UNL     1      -9.017  -5.715   5.399  0.00  0.00    +0.039 A 
ATOM     34  C   UNL     1      -8.259  -5.539   6.550  0.00  0.00    -0.029 A 
ATOM     35  C   UNL     1      -8.671  -6.105   7.740  0.00  0.00    +0.008 A 
ATOM     36  C   UNL     1      -6.990  -4.727   6.500  0.00  0.00    +0.045 C 
ATOM     37  C   UNL     1     -11.006  -6.666   4.201  0.00  0.00    +0.045 C 
ENDBRANCH  25  33
ENDBRANCH  24  26
ENDBRANCH  20  24
ENDBRANCH   1  21
TORSDOF 9
