REMARK  Name = ZINC60362724
REMARK  6 active torsions:
REMARK  status: ('A' for Active; 'I' for Inactive)
REMARK    1  A    between atoms: C_4  and  N_7
REMARK    2  A    between atoms: N_7  and  C_8
REMARK    3  A    between atoms: C_11  and  C_17
REMARK    4  A    between atoms: C_13  and  N_14
REMARK    5  A    between atoms: N_19  and  C_20
REMARK    6  A    between atoms: C_27  and  N_29
REMARK                            x       y       z     vdW  Elec       q    Type
REMARK                         _______ _______ _______ _____ _____    ______ ____
ROOT
ATOM      1  C   UNL     1       3.298  -6.276  -0.138  0.00  0.00    +0.244 C 
ATOM      2  O   UNL     1       4.312  -6.944  -0.090  0.00  0.00    -0.270 OA
ATOM      3  N   UNL     1       2.095  -6.881  -0.201  0.00  0.00    -0.308 N 
ATOM      4  H   UNL     1       1.285  -6.348  -0.239  0.00  0.00    +0.149 HD
ENDROOT
BRANCH   3   5
ATOM      5  C   UNL     1       2.010  -8.344  -0.210  0.00  0.00    +0.082 C 
ATOM      6  C   UNL     1       2.067  -8.852   1.243  0.00  0.00    +0.186 C 
ATOM      7  S   UNL     1       0.422  -9.647   1.476  0.00  0.00    -0.031 S 
ATOM      8  O   UNL     1       0.543 -11.045   1.250  0.00  0.00    -0.174 OA
ATOM      9  O   UNL     1      -0.156  -9.178   2.686  0.00  0.00    -0.174 OA
ATOM     10  C   UNL     1      -0.450  -8.873   0.044  0.00  0.00    +0.152 C 
ATOM     11  C   UNL     1       0.737  -8.756  -0.947  0.00  0.00    -0.025 C 
BRANCH  11  12
ATOM     12  N   UNL     1       0.417  -7.747  -1.966  0.00  0.00    +0.384 N 
ATOM     13  C   UNL     1      -0.812  -8.136  -2.669  0.00  0.00    -0.078 C 
ATOM     14  C   UNL     1      -1.194  -7.049  -3.675  0.00  0.00    -0.019 C 
ATOM     15  C   UNL     1      -0.058  -6.875  -4.687  0.00  0.00    -0.004 C 
ATOM     16  C   UNL     1       1.234  -6.542  -3.937  0.00  0.00    -0.019 C 
ATOM     17  C   UNL     1       1.527  -7.648  -2.921  0.00  0.00    -0.078 C 
ATOM     18  H   UNL     1       0.278  -6.852  -1.520  0.00  0.00    -0.081 HD
ENDBRANCH  11  12
ENDBRANCH   3   5
BRANCH   1  22
ATOM     19  C   UNL     1       3.542  -2.037  -0.108  0.00  0.00    +0.062 A 
ATOM     20  C   UNL     1       2.299  -2.661  -0.173  0.00  0.00    +0.026 A 
ATOM     21  C   UNL     1       2.216  -4.034  -0.183  0.00  0.00    +0.015 A 
ATOM     22  C   UNL     1       3.383  -4.803  -0.128  0.00  0.00    +0.039 A 
ATOM     23  C   UNL     1       4.629  -4.174  -0.063  0.00  0.00    +0.047 A 
ATOM     24  C   UNL     1       4.705  -2.800  -0.058  0.00  0.00    +0.148 A 
BRANCH  24  25
ATOM     25  N   UNL     1       6.025  -2.133   0.005  0.00  0.00    +0.058 N 
ATOM     26  O   UNL     1       7.038  -2.789  -0.070  0.00  0.00    -0.126 OA
ATOM     27  O   UNL     1       6.091  -0.933   0.131  0.00  0.00    -0.126 OA
ENDBRANCH  24  25
BRANCH  19  28
ATOM     28  N   UNL     1       3.623  -0.648  -0.097  0.00  0.00    -0.313 N 
ATOM     29  H   UNL     1       3.428  -0.157   0.716  0.00  0.00    +0.152 HD
BRANCH  28  33
ATOM     30  C   UNL     1       4.699   1.401  -3.559  0.00  0.00    +0.000 A 
ATOM     31  C   UNL     1       4.336   2.105  -2.425  0.00  0.00    +0.002 A 
ATOM     32  C   UNL     1       3.978   1.429  -1.275  0.00  0.00    +0.023 A 
ATOM     33  C   UNL     1       3.983   0.039  -1.259  0.00  0.00    +0.031 A 
ATOM     34  C   UNL     1       4.349  -0.664  -2.399  0.00  0.00    +0.023 A 
ATOM     35  C   UNL     1       4.705   0.018  -3.546  0.00  0.00    +0.002 A 
ENDBRANCH  28  33
ENDBRANCH  19  28
ENDBRANCH   1  22
TORSDOF 6
