REMARK  Name = ZINC43262884
REMARK  11 active torsions:
REMARK  status: ('A' for Active; 'I' for Inactive)
REMARK    1  A    between atoms: C_1  and  C_2
REMARK    2  A    between atoms: C_2  and  C_3
REMARK    3  A    between atoms: C_3  and  C_5
REMARK    4  A    between atoms: C_3  and  N_21
REMARK    5  A    between atoms: C_5  and  C_7
REMARK    6  A    between atoms: C_5  and  N_13
REMARK    7  A    between atoms: N_13  and  C_14
REMARK    8  A    between atoms: N_13  and  C_18
REMARK    9  A    between atoms: C_14  and  C_15
REMARK   10  A    between atoms: C_15  and  C_16
REMARK   11  A    between atoms: C_15  and  C_17
REMARK                            x       y       z     vdW  Elec       q    Type
REMARK                         _______ _______ _______ _____ _____    ______ ____
ROOT
ATOM      1  C   UNL     1      -1.778  -2.105   0.240  0.00  0.00    +0.079 C 
ENDROOT
BRANCH   1   2
ATOM      2  C   UNL     1      -1.454  -2.244   1.705  0.00  0.00    +0.006 A 
ATOM      3  C   UNL     1      -0.260  -2.501   2.294  0.00  0.00    +0.014 A 
ATOM      4  C   UNL     1      -0.198  -2.586   3.673  0.00  0.00    +0.023 A 
ATOM      5  C   UNL     1      -1.332  -2.410   4.394  0.00  0.00    +0.055 A 
ATOM      6  S   UNL     1      -2.540  -2.106   3.115  0.00  0.00    -0.085 S 
ATOM      7 BR   UNL     1      -1.572  -2.465   6.269  0.00  0.00    -0.043 Br
ENDBRANCH   1   2
BRANCH   1   8
ATOM      8  C   UNL     1      -1.857  -0.621  -0.126  0.00  0.00    -0.053 C 
BRANCH   8   9
ATOM      9  N   UNL     1      -2.316  -0.483  -1.515  0.00  0.00    +0.381 N 
ATOM     10  H   UNL     1      -1.745  -1.058  -2.116  0.00  0.00    -0.090 HD
ATOM     11  H   UNL     1      -3.278  -0.779  -1.582  0.00  0.00    -0.090 HD
ATOM     12  H   UNL     1      -2.240   0.481  -1.800  0.00  0.00    -0.090 HD
ENDBRANCH   8   9
BRANCH   8  14
ATOM     13  C   UNL     1      -0.576   1.521  -0.226  0.00  0.00    +0.002 C 
ATOM     14  C   UNL     1      -0.473   0.014   0.019  0.00  0.00    -0.018 C 
ENDBRANCH   8  14
ENDBRANCH   1   8
BRANCH   1  15
ATOM     15  N   UNL     1      -3.069  -2.748  -0.039  0.00  0.00    -0.293 NA
BRANCH  15  16
ATOM     16  C   UNL     1      -4.186  -1.889   0.378  0.00  0.00    +0.057 C 
ATOM     17  C   UNL     1      -4.961  -2.297   1.632  0.00  0.00    +0.020 C 
ATOM     18  C   UNL     1      -5.600  -2.458   0.251  0.00  0.00    +0.020 C 
ENDBRANCH  15  16
BRANCH  15  19
ATOM     19  C   UNL     1      -3.183  -3.106  -1.459  0.00  0.00    +0.088 C 
BRANCH  19  20
ATOM     20  C   UNL     1      -2.267  -4.295  -1.759  0.00  0.00    -0.003 C 
ATOM     21  C   UNL     1      -2.712  -5.503  -0.933  0.00  0.00    +0.008 C 
ATOM     22  C   UNL     1      -2.348  -4.637  -3.248  0.00  0.00    +0.008 C 
ENDBRANCH  19  20
ENDBRANCH  15  19
ENDBRANCH   1  15
TORSDOF 8
