REMARK  Name = ZINC09498735
REMARK  6 active torsions:
REMARK  status: ('A' for Active; 'I' for Inactive)
REMARK    1  A    between atoms: C_1  and  C_2
REMARK    2  A    between atoms: C_5  and  N_9
REMARK    3  A    between atoms: C_6  and  C_8
REMARK    4  A    between atoms: C_14  and  C_28
REMARK    5  A    between atoms: N_16  and  C_22
REMARK    6  A    between atoms: C_33  and  O_34
REMARK                            x       y       z     vdW  Elec       q    Type
REMARK                         _______ _______ _______ _____ _____    ______ ____
ROOT
ATOM      1  N   UNL     1       0.059  -4.172  -0.021  0.00  0.00    -0.208 N 
ATOM      2  C   UNL     1      -1.073  -4.947  -0.025  0.00  0.00    +0.235 C 
ATOM      3  O   UNL     1      -2.212  -4.591  -0.238  0.00  0.00    -0.274 OA
ATOM      4  C   UNL     1      -0.612  -6.279   0.282  0.00  0.00    +0.146 C 
ATOM      5  C   UNL     1      -1.033  -7.681   0.129  0.00  0.00    +0.161 C 
ATOM      6  N   UNL     1       0.272  -8.415   0.193  0.00  0.00    -0.244 N 
ATOM      7  O   UNL     1       1.323  -7.428   0.290  0.00  0.00    -0.257 OA
ATOM      8  C   UNL     1       0.796  -6.303  -0.437  0.00  0.00    +0.249 C 
ATOM      9  C   UNL     1       1.205  -4.913  -0.032  0.00  0.00    +0.259 C 
ATOM     10  O   UNL     1       2.324  -4.531   0.234  0.00  0.00    -0.272 OA
ENDROOT
BRANCH   1  15
ATOM     11  C   UNL     1      -0.018   1.503   0.010  0.00  0.00    +0.044 C 
ATOM     12  C   UNL     1       0.002  -0.004   0.002  0.00  0.00    -0.050 A 
ATOM     13  C   UNL     1       0.006  -0.688  -1.200  0.00  0.00    +0.005 A 
ATOM     14  C   UNL     1       0.025  -2.068  -1.211  0.00  0.00    +0.024 A 
ATOM     15  C   UNL     1       0.040  -2.771  -0.013  0.00  0.00    +0.047 A 
ATOM     16  C   UNL     1       0.037  -2.082   1.192  0.00  0.00    -0.028 A 
ATOM     17  C   UNL     1       0.023  -0.700   1.196  0.00  0.00    +0.008 A 
ATOM     18  C   UNL     1       0.053  -2.840   2.494  0.00  0.00    +0.046 C 
ENDBRANCH   1  15
BRANCH   5  19
ATOM     19  C   UNL     1      -1.709  -7.896  -1.201  0.00  0.00    +0.022 A 
ATOM     20  C   UNL     1      -1.008  -8.459  -2.250  0.00  0.00    +0.029 A 
ATOM     21  C   UNL     1      -1.628  -8.656  -3.471  0.00  0.00    +0.043 A 
ATOM     22  C   UNL     1      -2.951  -8.289  -3.645  0.00  0.00    +0.043 A 
ATOM     23  C   UNL     1      -3.655  -7.725  -2.598  0.00  0.00    +0.084 A 
ATOM     24  C   UNL     1      -3.037  -7.533  -1.370  0.00  0.00    +0.140 A 
ATOM     25 CL   UNL     1      -5.315  -7.264  -2.817  0.00  0.00    -0.080 Cl
ATOM     26 CL   UNL     1      -0.744  -9.363  -4.787  0.00  0.00    -0.083 Cl
BRANCH  24  27
ATOM     27  O   UNL     1      -3.729  -6.983  -0.338  0.00  0.00    -0.505 OA
ATOM     28  H   UNL     1      -3.676  -6.019  -0.297  0.00  0.00    +0.292 HD
ENDBRANCH  24  27
ENDBRANCH   5  19
BRANCH   6  29
ATOM     29  C   UNL     1       0.442  -9.801   0.164  0.00  0.00    +0.065 A 
ATOM     30  C   UNL     1      -0.664 -10.636   0.061  0.00  0.00    +0.028 A 
ATOM     31  C   UNL     1      -0.493 -12.006   0.033  0.00  0.00    +0.002 A 
ATOM     32  C   UNL     1       0.778 -12.547   0.105  0.00  0.00    +0.000 A 
ATOM     33  C   UNL     1       1.881 -11.719   0.207  0.00  0.00    +0.002 A 
ATOM     34  C   UNL     1       1.717 -10.348   0.231  0.00  0.00    +0.028 A 
ENDBRANCH   6  29
TORSDOF 4
