REMARK  Name = ZINC16904535
REMARK  4 active torsions:
REMARK  status: ('A' for Active; 'I' for Inactive)
REMARK    1  A    between atoms: C_1  and  N_2
REMARK    2  A    between atoms: C_6  and  C_7
REMARK    3  A    between atoms: N_15  and  C_16
REMARK    4  A    between atoms: C_19  and  O_22
REMARK                            x       y       z     vdW  Elec       q    Type
REMARK                         _______ _______ _______ _____ _____    ______ ____
ROOT
ATOM      1  C   UNL     1       1.717   3.519   0.005  0.00  0.00    +0.140 C 
ATOM      2  N   UNL     1       1.316   2.111   0.001  0.00  0.00    -0.249 N 
ATOM      3  C   UNL     1       2.241   1.166  -0.013  0.00  0.00    +0.259 C 
ATOM      4  O   UNL     1       3.428   1.439  -0.023  0.00  0.00    -0.269 OA
ATOM      5  C   UNL     1       1.775  -0.229  -0.016  0.00  0.00    +0.079 C 
ATOM      6  C   UNL     1       2.500  -1.383  -0.029  0.00  0.00    +0.046 C 
ATOM      7  S   UNL     1       0.002  -0.004   0.002  0.00  0.00    -0.049 S 
ATOM      8  C   UNL     1      -0.022   1.781   0.012  0.00  0.00    +0.168 C 
ATOM      9  N   UNL     1      -1.062   2.585   0.021  0.00  0.00    -0.226 NA
ENDROOT
BRANCH   6  10
ATOM     10  C   UNL     1       1.838  -2.635  -0.029  0.00  0.00    +0.040 A 
ATOM     11  C   UNL     1       2.442  -3.879  -0.041  0.00  0.00    +0.027 A 
ATOM     12  C   UNL     1       1.418  -4.832  -0.036  0.00  0.00    +0.019 A 
ATOM     13  C   UNL     1       0.235  -4.174  -0.022  0.00  0.00    +0.083 A 
ATOM     14  N   UNL     1       0.476  -2.836  -0.011  0.00  0.00    -0.361 N 
ATOM     15  H   UNL     1      -0.199  -2.139   0.004  0.00  0.00    +0.165 HD
ENDBRANCH   6  10
BRANCH   9  16
ATOM     16  C   UNL     1      -2.329   2.065   0.025  0.00  0.00    +0.067 A 
ATOM     17  C   UNL     1      -2.659   1.017  -0.837  0.00  0.00    +0.031 A 
ATOM     18  C   UNL     1      -3.935   0.493  -0.825  0.00  0.00    +0.047 A 
ATOM     19  C   UNL     1      -4.893   1.014   0.033  0.00  0.00    +0.117 A 
ATOM     20  C   UNL     1      -4.571   2.059   0.888  0.00  0.00    +0.047 A 
ATOM     21  C   UNL     1      -3.297   2.585   0.887  0.00  0.00    +0.031 A 
BRANCH  19  22
ATOM     22  O   UNL     1      -6.152   0.498   0.037  0.00  0.00    -0.507 OA
ATOM     23  H   UNL     1      -6.755   0.930  -0.582  0.00  0.00    +0.292 HD
ENDBRANCH  19  22
ENDBRANCH   9  16
TORSDOF 3
