REMARK  Name = ZINC35712911
REMARK  5 active torsions:
REMARK  status: ('A' for Active; 'I' for Inactive)
REMARK    1  A    between atoms: C_1  and  C_2
REMARK    2  A    between atoms: C_8  and  C_10
REMARK    3  A    between atoms: C_12  and  N_22
REMARK    4  A    between atoms: C_15  and  N_16
REMARK    5  A    between atoms: C_23  and  C_25
REMARK                            x       y       z     vdW  Elec       q    Type
REMARK                         _______ _______ _______ _____ _____    ______ ____
ROOT
ATOM      1  C   UNL     1      -0.189  -3.807   3.113  0.00  0.00    +0.060 A 
ATOM      2  C   UNL     1       1.092  -3.257   3.206  0.00  0.00    +0.038 A 
ATOM      3  C   UNL     1       2.023  -3.821   4.061  0.00  0.00    +0.034 A 
ATOM      4  C   UNL     1       1.687  -4.933   4.827  0.00  0.00    +0.025 A 
ATOM      5  C   UNL     1       0.425  -5.482   4.741  0.00  0.00    +0.026 A 
ATOM      6  C   UNL     1      -0.523  -4.925   3.892  0.00  0.00    +0.042 A 
ENDROOT
BRANCH   1  14
ATOM      7  C   UNL     1      -3.746   1.371   3.676  0.00  0.00    +0.007 C 
ATOM      8  C   UNL     1      -2.688   0.539   2.948  0.00  0.00    -0.011 C 
ATOM      9  C   UNL     1      -3.378  -0.451   2.006  0.00  0.00    +0.022 C 
ATOM     10  C   UNL     1      -2.316  -1.259   1.254  0.00  0.00    +0.108 C 
ATOM     11  N   UNL     1      -1.415  -1.884   2.232  0.00  0.00    -0.297 N 
ATOM     12  C   UNL     1      -0.769  -1.034   3.242  0.00  0.00    +0.108 C 
ATOM     13  C   UNL     1      -1.849  -0.229   3.972  0.00  0.00    +0.022 C 
ATOM     14  C   UNL     1      -1.186  -3.212   2.204  0.00  0.00    +0.248 C 
ATOM     15  O   UNL     1      -1.803  -3.919   1.431  0.00  0.00    -0.270 OA
ENDBRANCH   1  14
BRANCH   6  16
ATOM     16  N   UNL     1      -1.797  -5.476   3.810  0.00  0.00    -0.329 N 
ATOM     17  C   UNL     1      -2.091  -6.542   2.841  0.00  0.00    +0.105 C 
ATOM     18  C   UNL     1      -2.707  -7.730   3.587  0.00  0.00    +0.019 C 
ATOM     19  C   UNL     1      -3.923  -7.252   4.384  0.00  0.00    +0.003 C 
ATOM     20  C   UNL     1      -3.482  -6.211   5.415  0.00  0.00    +0.019 C 
ATOM     21  C   UNL     1      -2.873  -5.010   4.695  0.00  0.00    +0.105 C 
ENDBRANCH   6  16
BRANCH   3  22
ATOM     22  N   UNL     1       3.308  -3.270   4.155  0.00  0.00    -0.285 N 
ATOM     23  C   UNL     1       3.886  -2.717   3.070  0.00  0.00    +0.223 C 
ATOM     24  O   UNL     1       3.333  -2.778   1.991  0.00  0.00    -0.275 OA
ATOM     25  H   UNL     1       3.782  -3.287   5.001  0.00  0.00    +0.155 HD
BRANCH  23  26
ATOM     26  C   UNL     1       5.218  -2.024   3.196  0.00  0.00    +0.048 C 
ATOM     27  C   UNL     1       6.264  -3.017   3.705  0.00  0.00    +0.019 C 
ATOM     28  C   UNL     1       7.616  -2.313   3.834  0.00  0.00    -0.009 C 
ATOM     29  C   UNL     1       8.044  -1.779   2.466  0.00  0.00    +0.007 C 
ATOM     30  C   UNL     1       6.998  -0.785   1.956  0.00  0.00    -0.009 C 
ATOM     31  C   UNL     1       5.646  -1.489   1.828  0.00  0.00    +0.019 C 
ATOM     32  C   UNL     1       6.876   0.378   2.942  0.00  0.00    +0.007 C 
ATOM     33  C   UNL     1       6.448  -0.157   4.310  0.00  0.00    -0.009 C 
ATOM     34  C   UNL     1       7.494  -1.150   4.820  0.00  0.00    +0.007 C 
ATOM     35  C   UNL     1       5.096  -0.861   4.182  0.00  0.00    +0.019 C 
ENDBRANCH  23  26
ENDBRANCH   3  22
TORSDOF 4
