REMARK  Name = ZINC20752753
REMARK  3 active torsions:
REMARK  status: ('A' for Active; 'I' for Inactive)
REMARK    1  A    between atoms: C_5  and  C_7
REMARK    2  A    between atoms: N_9  and  C_10
REMARK    3  A    between atoms: C_17  and  C_26
REMARK                            x       y       z     vdW  Elec       q    Type
REMARK                         _______ _______ _______ _____ _____    ______ ____
ROOT
ATOM      1  C   UNL     1      -1.518   7.303   0.330  0.00  0.00    +0.001 A 
ATOM      2  C   UNL     1      -0.735   6.661   1.271  0.00  0.00    +0.006 A 
ATOM      3  C   UNL     1       0.410   5.972   0.896  0.00  0.00    -0.019 A 
ATOM      4  C   UNL     1       0.773   5.931  -0.437  0.00  0.00    +0.044 A 
ATOM      5  C   UNL     1      -0.023   6.584  -1.398  0.00  0.00    +0.058 A 
ATOM      6  C   UNL     1      -1.171   7.270  -1.002  0.00  0.00    +0.015 A 
ATOM      7  N   UNL     1       1.906   5.263  -0.875  0.00  0.00    -0.335 N 
ATOM      8  C   UNL     1       2.248   4.142   0.003  0.00  0.00    +0.112 C 
ATOM      9  C   UNL     1       2.484   4.645   1.419  0.00  0.00    +0.029 C 
ATOM     10  C   UNL     1       1.204   5.295   1.982  0.00  0.00    +0.049 C 
ATOM     11  C   UNL     1       1.740   6.369   2.914  0.00  0.00    -0.023 C 
ATOM     12  C   UNL     1       2.970   6.683   2.595  0.00  0.00    -0.030 C 
ATOM     13  C   UNL     1       3.435   5.867   1.403  0.00  0.00    +0.033 C 
ATOM     14  H   UNL     1       2.528   5.479  -1.757  0.00  0.00    +0.147 HD
ENDROOT
BRANCH   8  15
ATOM     15  C   UNL     1       1.115   3.148   0.008  0.00  0.00    +0.010 A 
ATOM     16  C   UNL     1       1.169   1.793   0.001  0.00  0.00    +0.013 A 
ATOM     17  C   UNL     1      -0.013   1.076   0.008  0.00  0.00    +0.008 A 
ATOM     18  C   UNL     1      -1.190   1.748   0.017  0.00  0.00    +0.045 A 
ATOM     19  S   UNL     1      -0.644   3.448   0.027  0.00  0.00    -0.100 S 
ENDBRANCH   8  15
BRANCH   5  20
ATOM     20  C   UNL     1       0.358   6.543  -2.822  0.00  0.00    +0.246 C 
ATOM     21  O   UNL     1       1.359   5.945  -3.167  0.00  0.00    -0.270 OA
ATOM     22  N   UNL     1      -0.404   7.168  -3.742  0.00  0.00    -0.308 N 
ATOM     23  H   UNL     1      -1.310   7.708  -3.430  0.00  0.00    +0.149 HD
BRANCH  22  24
ATOM     24  C   UNL     1      -0.026   7.127  -5.156  0.00  0.00    +0.073 C 
ATOM     25  C   UNL     1       0.981   8.241  -5.448  0.00  0.00    +0.022 C 
ATOM     26  C   UNL     1       1.376   8.198  -6.925  0.00  0.00    +0.002 C 
ATOM     27  C   UNL     1       0.131   8.397  -7.792  0.00  0.00    +0.000 C 
ATOM     28  C   UNL     1      -0.876   7.282  -7.500  0.00  0.00    +0.002 C 
ATOM     29  C   UNL     1      -1.271   7.325  -6.023  0.00  0.00    +0.022 C 
ENDBRANCH  22  24
ENDBRANCH   5  20
TORSDOF 3
