REMARK  Name = ZINC62506179
REMARK  15 active torsions:
REMARK  status: ('A' for Active; 'I' for Inactive)
REMARK    1  A    between atoms: C_1  and  C_2
REMARK    2  A    between atoms: C_2  and  C_3
REMARK    3  A    between atoms: C_2  and  C_4
REMARK    4  A    between atoms: C_4  and  C_6
REMARK    5  A    between atoms: C_4  and  N_20
REMARK    6  A    between atoms: N_8  and  C_9
REMARK    7  A    between atoms: C_9  and  C_10
REMARK    8  A    between atoms: C_10  and  C_11
REMARK    9  A    between atoms: C_10  and  C_12
REMARK   10  A    between atoms: C_10  and  O_19
REMARK   11  A    between atoms: C_21  and  O_23
REMARK   12  A    between atoms: O_23  and  C_24
REMARK   13  A    between atoms: C_24  and  C_25
REMARK   14  A    between atoms: C_24  and  C_26
REMARK   15  A    between atoms: C_24  and  C_27
REMARK                            x       y       z     vdW  Elec       q    Type
REMARK                         _______ _______ _______ _____ _____    ______ ____
ROOT
ATOM      1  C   UNL     1      -2.125  -0.137  -1.266  0.00  0.00    +0.234 C 
ATOM      2  O   UNL     1      -3.122   0.552  -1.228  0.00  0.00    -0.274 OA
ATOM      3  N   UNL     1      -1.635  -0.549  -2.452  0.00  0.00    -0.311 N 
ATOM      4  H   UNL     1      -0.837  -1.100  -2.483  0.00  0.00    +0.149 HD
ENDROOT
BRANCH   1   5
ATOM      5  C   UNL     1      -1.433  -0.534   0.013  0.00  0.00    +0.165 C 
BRANCH   5   6
ATOM      6  N   UNL     1      -2.155   0.035   1.154  0.00  0.00    -0.270 N 
ATOM      7  C   UNL     1      -2.067  -0.550   2.366  0.00  0.00    +0.401 C 
ATOM      8  O   UNL     1      -1.390  -1.548   2.511  0.00  0.00    -0.226 OA
ATOM      9  H   UNL     1      -2.696   0.831   1.038  0.00  0.00    +0.153 HD
BRANCH   7  10
ATOM     10  O   UNL     1      -2.730  -0.028   3.415  0.00  0.00    -0.445 OA
BRANCH  10  11
ATOM     11  C   UNL     1      -2.592  -0.699   4.669  0.00  0.00    +0.107 C 
ATOM     12  C   UNL     1      -1.119  -0.714   5.080  0.00  0.00    +0.055 C 
ATOM     13  C   UNL     1      -3.411   0.035   5.732  0.00  0.00    +0.055 C 
ATOM     14  C   UNL     1      -3.099  -2.137   4.536  0.00  0.00    +0.055 C 
ENDBRANCH  10  11
ENDBRANCH   7  10
ENDBRANCH   5   6
BRANCH   5  16
ATOM     15  C   UNL     1      -0.019   1.526   0.010  0.00  0.00    +0.009 C 
ATOM     16  C   UNL     1       0.002  -0.004   0.002  0.00  0.00    +0.012 C 
ATOM     17  C   UNL     1       0.742  -0.511   1.242  0.00  0.00    +0.009 C 
ENDBRANCH   5  16
ENDBRANCH   1   5
BRANCH   3  18
ATOM     18  C   UNL     1      -2.307  -0.163  -3.696  0.00  0.00    +0.143 C 
BRANCH  18  19
ATOM     19  C   UNL     1      -1.553  -0.757  -4.888  0.00  0.00    +0.104 C 
ATOM     20  C   UNL     1      -1.533  -2.282  -4.771  0.00  0.00    +0.048 C 
BRANCH  19  21
ATOM     21  C   UNL     1      -2.245  -0.360  -6.167  0.00  0.00    -0.015 A 
ATOM     22  C   UNL     1      -3.610  -0.142  -6.175  0.00  0.00    +0.009 A 
ATOM     23  C   UNL     1      -4.245   0.221  -7.348  0.00  0.00    +0.039 A 
ATOM     24  C   UNL     1      -3.513   0.368  -8.514  0.00  0.00    +0.123 A 
ATOM     25  C   UNL     1      -2.146   0.149  -8.504  0.00  0.00    +0.039 A 
ATOM     26  C   UNL     1      -1.512  -0.209  -7.330  0.00  0.00    +0.009 A 
ATOM     27  F   UNL     1      -4.133   0.723  -9.661  0.00  0.00    -0.205 F 
ENDBRANCH  19  21
BRANCH  19  28
ATOM     28  O   UNL     1      -0.213  -0.262  -4.898  0.00  0.00    -0.383 OA
ATOM     29  H   UNL     1      -0.149   0.700  -4.971  0.00  0.00    +0.211 HD
ENDBRANCH  19  28
ENDBRANCH  18  19
ENDBRANCH   3  18
TORSDOF 9
