REMARK  Name = ZINC36399023
REMARK  6 active torsions:
REMARK  status: ('A' for Active; 'I' for Inactive)
REMARK    1  A    between atoms: C_1  and  C_2
REMARK    2  A    between atoms: C_2  and  C_3
REMARK    3  A    between atoms: C_2  and  C_4
REMARK    4  A    between atoms: C_2  and  N_5
REMARK    5  A    between atoms: N_6  and  C_8
REMARK    6  A    between atoms: C_13  and  N_14
REMARK                            x       y       z     vdW  Elec       q    Type
REMARK                         _______ _______ _______ _____ _____    ______ ____
ROOT
ATOM      1  C   UNL     1       1.586  -0.352  -3.229  0.00  0.00    +0.128 A 
ATOM      2  C   UNL     1       1.600  -1.734  -3.426  0.00  0.00    +0.048 A 
ATOM      3  C   UNL     1       2.119  -2.258  -4.591  0.00  0.00    +0.021 A 
ATOM      4  C   UNL     1       2.628  -1.418  -5.570  0.00  0.00    +0.032 A 
ATOM      5  C   UNL     1       2.620  -0.049  -5.389  0.00  0.00    +0.042 A 
ATOM      6  C   UNL     1       2.095   0.495  -4.223  0.00  0.00    +0.068 A 
ATOM      7 BR   UNL     1       3.316   1.085  -6.731  0.00  0.00    -0.048 Br
ATOM      8 BR   UNL     1       2.138  -4.130  -4.855  0.00  0.00    -0.050 Br
ENDROOT
BRANCH   1  10
ATOM      9  N   UNL     1       0.515  -0.568  -1.249  0.00  0.00    -0.164 NA
ATOM     10  N   UNL     1       1.072   0.173  -2.073  0.00  0.00    -0.049 N 
ATOM     11  O   UNL     1       1.175   1.562  -1.819  0.00  0.00    -0.145 OA
BRANCH   9  13
ATOM     12  C   UNL     1      -1.139   1.033  -0.422  0.00  0.00    +0.037 C 
ATOM     13  C   UNL     1      -0.078   0.001  -0.036  0.00  0.00    +0.076 C 
ATOM     14  C   UNL     1       1.013   0.679   0.795  0.00  0.00    +0.037 C 
ATOM     15  C   UNL     1      -0.726  -1.115   0.786  0.00  0.00    +0.037 C 
ENDBRANCH   9  13
ENDBRANCH   1  10
BRANCH   6  16
ATOM     16  N   UNL     1       2.080   1.875  -4.041  0.00  0.00    -0.355 N 
ATOM     17  H   UNL     1       1.806   2.249  -3.189  0.00  0.00    +0.142 HD
ATOM     18  H   UNL     1       2.344   2.463  -4.766  0.00  0.00    +0.142 HD
ENDBRANCH   6  16
TORSDOF 3
