REMARK  Name = ZINC09860227
REMARK  7 active torsions:
REMARK  status: ('A' for Active; 'I' for Inactive)
REMARK    1  A    between atoms: C_4  and  C_7
REMARK    2  A    between atoms: C_17  and  C_23
REMARK    3  A    between atoms: C_23  and  C_24
REMARK    4  A    between atoms: C_24  and  C_25
REMARK    5  A    between atoms: C_25  and  C_26
REMARK    6  A    between atoms: N_28  and  C_29
REMARK    7  A    between atoms: C_29  and  C_30
REMARK                            x       y       z     vdW  Elec       q    Type
REMARK                         _______ _______ _______ _____ _____    ______ ____
ROOT
ATOM      1  C   UNL     1      -4.542   4.624  -0.014  0.00  0.00    +0.182 A 
ATOM      2  N   UNL     1      -3.764   3.536  -0.058  0.00  0.00    -0.206 NA
ATOM      3  C   UNL     1      -2.499   3.896  -0.050  0.00  0.00    +0.169 A 
ATOM      4  C   UNL     1      -1.233   3.141  -0.083  0.00  0.00    +0.043 A 
ATOM      5  C   UNL     1      -1.219   1.749  -0.141  0.00  0.00    +0.013 A 
ATOM      6  C   UNL     1      -0.014   1.079  -0.166  0.00  0.00    +0.001 A 
ATOM      7  C   UNL     1       1.179   1.785  -0.144  0.00  0.00    +0.002 A 
ATOM      8  C   UNL     1       1.178   3.164  -0.091  0.00  0.00    +0.027 A 
ATOM      9  C   UNL     1      -0.024   3.854  -0.060  0.00  0.00    +0.062 A 
ATOM     10  N   UNL     1      -0.055   5.243  -0.008  0.00  0.00    -0.263 N 
ATOM     11  C   UNL     1       0.926   6.190   0.024  0.00  0.00    +0.139 A 
ATOM     12  N   UNL     1       0.337   7.354   0.070  0.00  0.00    -0.132 NA
ATOM     13  N   UNL     1      -0.939   7.203   0.069  0.00  0.00    -0.108 NA
ATOM     14  C   UNL     1      -1.237   5.923   0.022  0.00  0.00    +0.259 A 
ATOM     15  N   UNL     1      -2.450   5.258   0.001  0.00  0.00    -0.177 N 
ATOM     16  N   UNL     1      -3.781   5.698   0.023  0.00  0.00    -0.142 NA
ENDROOT
BRANCH   1  20
ATOM     17  C   UNL     1      -8.794   4.612   0.004  0.00  0.00    +0.000 A 
ATOM     18  C   UNL     1      -8.108   5.813   0.045  0.00  0.00    +0.001 A 
ATOM     19  C   UNL     1      -6.728   5.822   0.040  0.00  0.00    +0.011 A 
ATOM     20  C   UNL     1      -6.026   4.620  -0.008  0.00  0.00    +0.021 A 
ATOM     21  C   UNL     1      -6.722   3.414  -0.056  0.00  0.00    +0.011 A 
ATOM     22  C   UNL     1      -8.102   3.416  -0.044  0.00  0.00    +0.001 A 
ENDBRANCH   1  20
BRANCH  11  23
ATOM     23  C   UNL     1       2.412   5.940   0.008  0.00  0.00    +0.077 C 
BRANCH  23  24
ATOM     24  C   UNL     1       2.880   5.738  -1.434  0.00  0.00    +0.017 C 
BRANCH  24  25
ATOM     25  C   UNL     1       4.389   5.483  -1.450  0.00  0.00    +0.096 C 
BRANCH  25  26
ATOM     26  C   UNL     1       4.850   5.285  -2.871  0.00  0.00    +0.213 C 
ATOM     27  O   UNL     1       4.050   5.341  -3.781  0.00  0.00    -0.276 OA
ATOM     28  N   UNL     1       6.150   5.044  -3.130  0.00  0.00    -0.308 N 
ATOM     29  H   UNL     1       6.790   4.999  -2.402  0.00  0.00    +0.149 HD
BRANCH  28  30
ATOM     30  C   UNL     1       6.598   4.851  -4.511  0.00  0.00    +0.178 C 
BRANCH  30  31
ATOM     31  C   UNL     1       8.085   4.600  -4.527  0.00  0.00    +0.122 A 
ATOM     32  C   UNL     1       8.680   3.397  -4.444  0.00  0.00    +0.046 A 
ATOM     33  C   UNL     1      10.075   3.626  -4.496  0.00  0.00    +0.041 A 
ATOM     34  C   UNL     1      10.247   4.955  -4.608  0.00  0.00    +0.195 A 
ATOM     35  O   UNL     1       9.038   5.540  -4.633  0.00  0.00    -0.466 OA
ENDBRANCH  30  31
ENDBRANCH  28  30
ENDBRANCH  25  26
ENDBRANCH  24  25
ENDBRANCH  23  24
ENDBRANCH  11  23
TORSDOF 7
