REMARK  Name = ZINC15955896
REMARK  6 active torsions:
REMARK  status: ('A' for Active; 'I' for Inactive)
REMARK    1  A    between atoms: C_1  and  C_2
REMARK    2  A    between atoms: C_2  and  C_3
REMARK    3  A    between atoms: C_3  and  C_4
REMARK    4  A    between atoms: C_4  and  C_5
REMARK    5  A    between atoms: C_5  and  N_6
REMARK    6  A    between atoms: C_26  and  C_28
REMARK                            x       y       z     vdW  Elec       q    Type
REMARK                         _______ _______ _______ _____ _____    ______ ____
ROOT
ATOM      1  N   UNL     1       1.676   8.360  -0.978  0.00  0.00    -0.291 N 
ATOM      2  C   UNL     1       2.888   8.057  -1.721  0.00  0.00    +0.203 C 
ATOM      3  C   UNL     1       3.498   6.761  -1.297  0.00  0.00    +0.234 C 
ATOM      4  O   UNL     1       4.528   6.416  -1.838  0.00  0.00    -0.274 OA
ATOM      5  N   UNL     1       2.981   5.965  -0.378  0.00  0.00    -0.276 N 
ATOM      6  C   UNL     1       1.712   6.216   0.304  0.00  0.00    +0.167 C 
ATOM      7  C   UNL     1       1.142   7.546  -0.070  0.00  0.00    +0.237 C 
ATOM      8  O   UNL     1       0.128   7.907   0.490  0.00  0.00    -0.274 OA
ATOM      9  C   UNL     1       0.716   5.106  -0.061  0.00  0.00    +0.069 C 
ATOM     10  C   UNL     1       1.413   3.774   0.043  0.00  0.00    -0.015 A 
ATOM     11  C   UNL     1       0.821   2.455   0.132  0.00  0.00    +0.003 A 
ATOM     12  C   UNL     1      -0.505   2.011   0.152  0.00  0.00    +0.010 A 
ATOM     13  C   UNL     1      -0.705   0.656   0.248  0.00  0.00    +0.001 A 
ATOM     14  C   UNL     1       0.350  -0.239   0.320  0.00  0.00    +0.002 A 
ATOM     15  C   UNL     1       1.671   0.172   0.302  0.00  0.00    +0.026 A 
ATOM     16  C   UNL     1       1.904   1.542   0.206  0.00  0.00    +0.047 A 
ATOM     17  N   UNL     1       3.055   2.275   0.162  0.00  0.00    -0.356 N 
ATOM     18  H   UNL     1       3.952   1.907   0.193  0.00  0.00    +0.166 HD
ATOM     19  C   UNL     1       2.753   3.607   0.066  0.00  0.00    +0.046 A 
ATOM     20  C   UNL     1       3.738   4.752  -0.004  0.00  0.00    +0.154 C 
ENDROOT
BRANCH  20  21
ATOM     21  C   UNL     1       4.390   4.950   1.341  0.00  0.00    -0.020 A 
ATOM     22  C   UNL     1       3.609   5.101   2.472  0.00  0.00    +0.006 A 
ATOM     23  C   UNL     1       4.206   5.282   3.705  0.00  0.00    +0.001 A 
ATOM     24  C   UNL     1       5.584   5.312   3.808  0.00  0.00    +0.015 A 
ATOM     25  C   UNL     1       6.365   5.160   2.677  0.00  0.00    +0.018 A 
ATOM     26  C   UNL     1       5.768   4.974   1.444  0.00  0.00    +0.021 A 
ATOM     27 BR   UNL     1       8.251   5.201   2.818  0.00  0.00    -0.050 Br
ENDBRANCH  20  21
BRANCH   1  28
ATOM     28  C   UNL     1       1.004   9.634  -1.244  0.00  0.00    +0.108 C 
BRANCH  28  29
ATOM     29  C   UNL     1       1.559  10.708  -0.307  0.00  0.00    +0.019 C 
BRANCH  29  30
ATOM     30  C   UNL     1       0.857  12.039  -0.585  0.00  0.00    +0.001 C 
BRANCH  30  32
ATOM     31  C   UNL     1       0.710  14.444   0.075  0.00  0.00    +0.004 C 
ATOM     32  C   UNL     1       1.412  13.114   0.352  0.00  0.00    -0.003 C 
ENDBRANCH  30  32
ENDBRANCH  29  30
ENDBRANCH  28  29
ENDBRANCH   1  28
TORSDOF 5
