REMARK  Name = ZINC09126473
REMARK  7 active torsions:
REMARK  status: ('A' for Active; 'I' for Inactive)
REMARK    1  A    between atoms: C_1  and  C_2
REMARK    2  A    between atoms: C_2  and  C_4
REMARK    3  A    between atoms: C_2  and  N_55
REMARK    4  A    between atoms: C_7  and  S_16
REMARK    5  A    between atoms: N_8  and  C_9
REMARK    6  A    between atoms: S_16  and  C_17
REMARK    7  A    between atoms: C_17  and  C_18
REMARK                            x       y       z     vdW  Elec       q    Type
REMARK                         _______ _______ _______ _____ _____    ______ ____
ROOT
ATOM      1  C   UNL     1      -0.438  -0.843   0.991  0.00  0.00    +0.125 A 
ATOM      2  N   UNL     1      -0.239  -2.064   0.581  0.00  0.00    -0.135 NA
ATOM      3  N   UNL     1       0.293  -2.056  -0.589  0.00  0.00    -0.122 NA
ATOM      4  C   UNL     1       0.459  -0.819  -0.997  0.00  0.00    +0.196 A 
ATOM      5  N   UNL     1       0.002  -0.004   0.002  0.00  0.00    -0.275 N 
ENDROOT
BRANCH   5   6
ATOM      6  C   UNL     1      -0.017   1.399   0.010  0.00  0.00    +0.050 A 
ATOM      7  C   UNL     1      -1.228   2.077   0.019  0.00  0.00    +0.028 A 
ATOM      8  C   UNL     1      -1.244   3.458   0.033  0.00  0.00    +0.022 A 
ATOM      9  C   UNL     1      -0.054   4.165   0.025  0.00  0.00    +0.041 A 
ATOM     10  C   UNL     1       1.154   3.491   0.010  0.00  0.00    +0.022 A 
ATOM     11  C   UNL     1       1.175   2.110   0.002  0.00  0.00    +0.028 A 
ATOM     12 CL   UNL     1      -0.078   5.901   0.035  0.00  0.00    -0.084 Cl
ENDBRANCH   5   6
BRANCH   1  14
ATOM     13  C   UNL     1      -0.016  -0.638   3.426  0.00  0.00    -0.005 C 
ATOM     14  C   UNL     1      -1.042  -0.431   2.309  0.00  0.00    -0.002 C 
BRANCH  14  20
ATOM     15  C   UNL     1      -3.197  -1.153   1.478  0.00  0.00    -0.078 C 
ATOM     16  C   UNL     1      -4.353  -2.126   1.725  0.00  0.00    -0.019 C 
ATOM     17  C   UNL     1      -5.030  -1.779   3.053  0.00  0.00    -0.004 C 
ATOM     18  C   UNL     1      -3.992  -1.839   4.177  0.00  0.00    -0.019 C 
ATOM     19  C   UNL     1      -2.847  -0.875   3.859  0.00  0.00    -0.078 C 
ATOM     20  N   UNL     1      -2.222  -1.277   2.582  0.00  0.00    +0.386 N 
ATOM     21  H   UNL     1      -1.921  -2.256   2.652  0.00  0.00    -0.081 HD
ENDBRANCH  14  20
ENDBRANCH   1  14
BRANCH   4  22
ATOM     22  S   UNL     1       1.143  -0.306  -2.538  0.00  0.00    -0.079 S 
BRANCH  22  23
ATOM     23  C   UNL     1       1.494  -1.920  -3.279  0.00  0.00    +0.133 C 
BRANCH  23  24
ATOM     24  C   UNL     1       2.103  -1.724  -4.643  0.00  0.00    +0.059 A 
ATOM     25  C   UNL     1       3.453  -1.921  -4.843  0.00  0.00    +0.095 A 
ATOM     26  C   UNL     1       3.998  -1.741  -6.115  0.00  0.00    +0.259 A 
ATOM     27  O   UNL     1       5.191  -1.919  -6.299  0.00  0.00    -0.267 OA
ATOM     28  N   UNL     1       3.195  -1.359  -7.153  0.00  0.00    -0.262 N 
ATOM     29  C   UNL     1       3.582  -1.136  -8.453  0.00  0.00    +0.104 A 
ATOM     30  C   UNL     1       2.699  -0.765  -9.379  0.00  0.00    +0.067 A 
ATOM     31  S   UNL     1       1.183  -0.701  -8.436  0.00  0.00    -0.058 S 
ATOM     32  C   UNL     1       1.868  -1.181  -6.865  0.00  0.00    +0.180 A 
ATOM     33  N   UNL     1       1.349  -1.354  -5.675  0.00  0.00    -0.227 NA
ENDBRANCH  23  24
ENDBRANCH  22  23
ENDBRANCH   4  22
TORSDOF 6
