REMARK  Name = ZINC44552073
REMARK  8 active torsions:
REMARK  status: ('A' for Active; 'I' for Inactive)
REMARK    1  A    between atoms: C_1  and  C_2
REMARK    2  A    between atoms: C_7  and  C_9
REMARK    3  A    between atoms: C_7  and  C_10
REMARK    4  A    between atoms: C_17  and  C_19
REMARK    5  A    between atoms: N_20  and  N_21
REMARK    6  A    between atoms: N_21  and  C_22
REMARK    7  A    between atoms: C_22  and  N_24
REMARK    8  A    between atoms: N_27  and  C_30
REMARK                            x       y       z     vdW  Elec       q    Type
REMARK                         _______ _______ _______ _____ _____    ______ ____
ROOT
ATOM      1  C   UNL     1      -5.948  -2.981  -0.663  0.00  0.00    +0.134 C 
ATOM      2  N   UNL     1      -6.313  -1.735  -0.558  0.00  0.00    -0.291 N 
ATOM      3  N   UNL     1      -6.894  -3.995  -0.549  0.00  0.00    -0.342 N 
ATOM      4  H   UNL     1      -6.622  -4.923  -0.627  0.00  0.00    +0.144 HD
ATOM      5  H   UNL     1      -7.825  -3.775  -0.391  0.00  0.00    +0.144 HD
ATOM      6  H   UNL     1      -7.215  -1.516  -0.275  0.00  0.00    +0.186 HD
ENDROOT
BRANCH   1  22
ATOM      7  C   UNL     1      -0.079   1.415   0.810  0.00  0.00    +0.013 C 
ATOM      8  C   UNL     1      -0.074  -0.120   0.734  0.00  0.00    -0.014 C 
ATOM      9  C   UNL     1       0.728  -0.649  -0.486  0.00  0.00    +0.030 C 
ATOM     10  C   UNL     1       0.152  -2.084  -0.571  0.00  0.00    +0.076 C 
ATOM     11  C   UNL     1       0.788  -2.894   0.556  0.00  0.00    +0.029 C 
ATOM     12  C   UNL     1       0.604  -2.283   1.933  0.00  0.00    -0.033 C 
ATOM     13  C   UNL     1       0.519  -0.769   1.983  0.00  0.00    +0.014 C 
ATOM     14  C   UNL     1       1.831  -2.700   2.783  0.00  0.00    +0.011 C 
ATOM     15  C   UNL     1      -0.625  -2.902   2.616  0.00  0.00    +0.011 C 
ATOM     16  N   UNL     1      -1.292  -1.931  -0.301  0.00  0.00    -0.310 N 
ATOM     17  C   UNL     1      -1.484  -0.699   0.479  0.00  0.00    +0.113 C 
ATOM     18  C   UNL     1      -2.298  -2.794  -0.721  0.00  0.00    +0.141 A 
ATOM     19  C   UNL     1      -1.971  -3.982  -1.373  0.00  0.00    +0.154 A 
ATOM     20  N   UNL     1      -2.925  -4.803  -1.772  0.00  0.00    -0.258 NA
ATOM     21  C   UNL     1      -4.193  -4.504  -1.556  0.00  0.00    +0.142 A 
ATOM     22  C   UNL     1      -4.529  -3.317  -0.904  0.00  0.00    +0.123 A 
ATOM     23  N   UNL     1      -3.568  -2.490  -0.496  0.00  0.00    -0.226 NA
ENDBRANCH   1  22
BRANCH   2  24
ATOM     24  N   UNL     1      -5.404  -0.711  -0.852  0.00  0.00    -0.240 N 
ATOM     25  H   UNL     1      -4.526  -0.928  -1.205  0.00  0.00    +0.174 HD
BRANCH  24  26
ATOM     26  C   UNL     1      -5.747   0.576  -0.645  0.00  0.00    +0.151 C 
ATOM     27  S   UNL     1      -7.328   0.965  -0.116  0.00  0.00    -0.017 S 
BRANCH  26  28
ATOM     28  N   UNL     1      -4.846   1.556  -0.856  0.00  0.00    -0.308 N 
ATOM     29  C   UNL     1      -3.526   1.249  -1.422  0.00  0.00    +0.125 C 
ATOM     30  C   UNL     1      -3.316   2.112  -2.673  0.00  0.00    +0.124 C 
ATOM     31  N   UNL     1      -3.637   3.507  -2.340  0.00  0.00    -0.327 N 
ATOM     32  C   UNL     1      -4.958   3.814  -1.773  0.00  0.00    +0.124 C 
ATOM     33  C   UNL     1      -5.170   2.952  -0.528  0.00  0.00    +0.125 C 
BRANCH  31  34
ATOM     34  C   UNL     1      -2.704   4.523  -2.558  0.00  0.00    +0.030 A 
ATOM     35  C   UNL     1      -1.507   4.242  -3.205  0.00  0.00    +0.023 A 
ATOM     36  C   UNL     1      -0.587   5.249  -3.419  0.00  0.00    +0.002 A 
ATOM     37  C   UNL     1      -0.855   6.536  -2.989  0.00  0.00    +0.000 A 
ATOM     38  C   UNL     1      -2.045   6.819  -2.345  0.00  0.00    +0.002 A 
ATOM     39  C   UNL     1      -2.972   5.818  -2.132  0.00  0.00    +0.023 A 
ENDBRANCH  31  34
ENDBRANCH  26  28
ENDBRANCH  24  26
ENDBRANCH   2  24
TORSDOF 5
