REMARK  Name = ZINC37137891
REMARK  5 active torsions:
REMARK  status: ('A' for Active; 'I' for Inactive)
REMARK    1  A    between atoms: C_3  and  C_9
REMARK    2  A    between atoms: C_9  and  N_10
REMARK    3  A    between atoms: N_10  and  C_11
REMARK    4  A    between atoms: C_14  and  S_18
REMARK    5  A    between atoms: S_18  and  N_21
REMARK                            x       y       z     vdW  Elec       q    Type
REMARK                         _______ _______ _______ _____ _____    ______ ____
ROOT
ATOM      1  C   UNL     1       5.503   2.770   1.543  0.00  0.00    +0.042 A 
ATOM      2  C   UNL     1       6.126   3.477   0.523  0.00  0.00    +0.026 A 
ATOM      3  C   UNL     1       7.327   4.116   0.761  0.00  0.00    +0.030 A 
ATOM      4  C   UNL     1       7.910   4.051   2.013  0.00  0.00    +0.106 A 
ATOM      5  C   UNL     1       7.293   3.348   3.031  0.00  0.00    +0.045 A 
ATOM      6  C   UNL     1       6.089   2.711   2.801  0.00  0.00    +0.041 A 
ATOM      7 BR   UNL     1       5.242   1.755   4.196  0.00  0.00    -0.048 Br
ENDROOT
BRANCH   4   8
ATOM      8  S   UNL     1       9.443   4.867   2.312  0.00  0.00    +0.056 S 
ATOM      9  O   UNL     1      10.050   4.201   3.411  0.00  0.00    -0.153 OA
ATOM     10  O   UNL     1      10.086   4.999   1.052  0.00  0.00    -0.153 OA
BRANCH   8  11
ATOM     11  N   UNL     1       9.090   6.401   2.826  0.00  0.00    -0.204 NA
ATOM     12  H   UNL     1       8.166   6.684   2.908  0.00  0.00    +0.144 HD
ATOM     13  H   UNL     1       9.807   7.016   3.045  0.00  0.00    +0.144 HD
ENDBRANCH   8  11
ENDBRANCH   4   8
BRANCH   1  14
ATOM     14  N   UNL     1       4.287   2.123   1.305  0.00  0.00    -0.339 N 
ATOM     15  H   UNL     1       3.851   1.632   2.019  0.00  0.00    +0.146 HD
BRANCH  14  16
ATOM     16  C   UNL     1       3.671   2.186  -0.023  0.00  0.00    +0.138 C 
BRANCH  16  19
ATOM     17  C   UNL     1      -0.017   1.378   0.010  0.00  0.00    +0.002 A 
ATOM     18  C   UNL     1       1.171   2.086   0.002  0.00  0.00    +0.007 A 
ATOM     19  C   UNL     1       2.378   1.413  -0.013  0.00  0.00    -0.011 A 
ATOM     20  C   UNL     1       2.398   0.030  -0.021  0.00  0.00    +0.064 A 
ATOM     21  C   UNL     1       1.209  -0.679  -0.013  0.00  0.00    +0.060 A 
ATOM     22  C   UNL     1       0.002  -0.004   0.002  0.00  0.00    +0.021 A 
ATOM     23 CL   UNL     1       1.234  -2.415  -0.023  0.00  0.00    -0.082 Cl
ATOM     24 CL   UNL     1       3.914  -0.816  -0.041  0.00  0.00    -0.082 Cl
ENDBRANCH  16  19
ENDBRANCH  14  16
ENDBRANCH   1  14
TORSDOF 5
