REMARK  Name = ZINC20850698
REMARK  8 active torsions:
REMARK  status: ('A' for Active; 'I' for Inactive)
REMARK    1  A    between atoms: C_1  and  C_2
REMARK    2  A    between atoms: C_5  and  C_9
REMARK    3  A    between atoms: C_6  and  C_8
REMARK    4  A    between atoms: C_9  and  S_10
REMARK    5  A    between atoms: S_10  and  C_11
REMARK    6  A    between atoms: C_16  and  C_28
REMARK    7  A    between atoms: C_22  and  C_26
REMARK    8  A    between atoms: C_22  and  C_27
REMARK                            x       y       z     vdW  Elec       q    Type
REMARK                         _______ _______ _______ _____ _____    ______ ____
ROOT
ATOM      1  C   UNL     1       5.683   3.398  -1.577  0.00  0.00    +0.211 A 
ATOM      2  N   UNL     1       6.268   3.740  -0.420  0.00  0.00    -0.187 NA
ATOM      3  C   UNL     1       7.370   4.394  -0.665  0.00  0.00    +0.219 A 
ATOM      4  N   UNL     1       7.513   4.491  -2.010  0.00  0.00    -0.220 N 
ATOM      5  N   UNL     1       6.415   3.845  -2.575  0.00  0.00    -0.141 NA
ATOM      6  C   UNL     1       8.638   5.160  -2.651  0.00  0.00    +0.177 C 
ATOM      7  C   UNL     1       9.390   5.993  -1.636  0.00  0.00    +0.041 C 
ATOM      8  C   UNL     1       9.203   5.846  -0.307  0.00  0.00    +0.020 C 
ATOM      9  N   UNL     1       8.299   4.946   0.202  0.00  0.00    -0.287 N 
ATOM     10  C   UNL     1       9.991   6.673   0.682  0.00  0.00    +0.058 C 
ATOM     11  C   UNL     1      10.304   8.041   0.075  0.00  0.00    -0.023 C 
ATOM     12  C   UNL     1      11.099   7.824  -1.217  0.00  0.00    +0.086 C 
ATOM     13  C   UNL     1      10.307   6.936  -2.136  0.00  0.00    +0.164 C 
ATOM     14  O   UNL     1      10.463   7.034  -3.337  0.00  0.00    -0.292 OA
ATOM     15  C   UNL     1       8.999   8.776  -0.240  0.00  0.00    +0.011 C 
ATOM     16  C   UNL     1      11.135   8.865   1.060  0.00  0.00    +0.011 C 
ATOM     17  H   UNL     1       8.297   4.660   1.264  0.00  0.00    +0.155 HD
ENDROOT
BRANCH   6  18
ATOM     18  C   UNL     1       9.566   4.128  -3.237  0.00  0.00    -0.000 A 
ATOM     19  C   UNL     1      10.164   3.190  -2.416  0.00  0.00    +0.009 A 
ATOM     20  C   UNL     1      11.011   2.239  -2.954  0.00  0.00    +0.020 A 
ATOM     21  C   UNL     1      11.270   2.233  -4.313  0.00  0.00    +0.042 A 
ATOM     22  C   UNL     1      10.677   3.175  -5.134  0.00  0.00    +0.040 A 
ATOM     23  C   UNL     1       9.825   4.123  -4.596  0.00  0.00    +0.048 A 
ATOM     24 CL   UNL     1       9.079   5.305  -5.626  0.00  0.00    -0.083 Cl
ATOM     25 CL   UNL     1      12.339   1.043  -4.988  0.00  0.00    -0.083 Cl
ENDBRANCH   6  18
BRANCH   1  26
ATOM     26  S   UNL     1       4.175   2.501  -1.735  0.00  0.00    -0.080 S 
BRANCH  26  27
ATOM     27  C   UNL     1       3.672   2.182  -0.022  0.00  0.00    +0.112 C 
BRANCH  27  32
ATOM     28  C   UNL     1      -1.293  -0.775   0.010  0.00  0.00    +0.044 C 
ATOM     29  C   UNL     1       0.002  -0.004   0.002  0.00  0.00    -0.050 A 
ATOM     30  C   UNL     1       1.209  -0.679  -0.014  0.00  0.00    +0.003 A 
ATOM     31  C   UNL     1       2.396   0.028  -0.022  0.00  0.00    +0.005 A 
ATOM     32  C   UNL     1       2.377   1.411  -0.014  0.00  0.00    -0.034 A 
ATOM     33  C   UNL     1       1.171   2.085   0.002  0.00  0.00    -0.046 A 
ATOM     34  C   UNL     1      -0.017   1.378   0.010  0.00  0.00    +0.007 A 
ATOM     35  C   UNL     1       1.151   3.592   0.010  0.00  0.00    +0.044 C 
ENDBRANCH  27  32
ENDBRANCH  26  27
ENDBRANCH   1  26
TORSDOF 4
