REMARK  Name = ZINC15901051
REMARK  6 active torsions:
REMARK  status: ('A' for Active; 'I' for Inactive)
REMARK    1  A    between atoms: N_10  and  C_11
REMARK    2  A    between atoms: C_11  and  C_12
REMARK    3  A    between atoms: N_14  and  N_15
REMARK    4  A    between atoms: C_16  and  C_18
REMARK    5  A    between atoms: C_19  and  C_20
REMARK    6  A    between atoms: C_24  and  N_26
REMARK                            x       y       z     vdW  Elec       q    Type
REMARK                         _______ _______ _______ _____ _____    ______ ____
ROOT
ATOM      1  N   UNL     1       7.269   1.564  -0.277  0.00  0.00    -0.231 N 
ATOM      2  C   UNL     1       6.091   2.218  -0.272  0.00  0.00    +0.253 C 
ATOM      3  O   UNL     1       6.069   3.432  -0.187  0.00  0.00    -0.269 OA
ATOM      4  H   UNL     1       7.287   0.596  -0.344  0.00  0.00    +0.173 HD
ENDROOT
BRANCH   1   7
ATOM      5  C   UNL     1       9.648   1.627  -0.191  0.00  0.00    +0.246 C 
ATOM      6  O   UNL     1       9.670   0.418  -0.275  0.00  0.00    -0.273 OA
ATOM      7  N   UNL     1       8.469   2.281  -0.186  0.00  0.00    -0.233 N 
ATOM      8  H   UNL     1       8.452   3.249  -0.119  0.00  0.00    +0.173 HD
BRANCH   5   9
ATOM      9  C   UNL     1      10.938   2.400  -0.093  0.00  0.00    +0.202 C 
BRANCH   9  19
ATOM     10  C   UNL     1      11.507  -1.018   3.316  0.00  0.00    +0.000 A 
ATOM     11  C   UNL     1      11.080   0.297   3.337  0.00  0.00    +0.002 A 
ATOM     12  C   UNL     1      11.271   1.100   2.234  0.00  0.00    +0.023 A 
ATOM     13  C   UNL     1      11.894   0.596   1.091  0.00  0.00    +0.033 A 
ATOM     14  C   UNL     1      12.314  -0.723   1.073  0.00  0.00    -0.026 A 
ATOM     15  C   UNL     1      12.121  -1.524   2.187  0.00  0.00    +0.005 A 
ATOM     16  C   UNL     1      12.985  -1.331  -0.133  0.00  0.00    +0.038 C 
ATOM     17  C   UNL     1      13.447  -0.221  -1.080  0.00  0.00    +0.024 C 
ATOM     18  C   UNL     1      12.284   0.763  -1.257  0.00  0.00    +0.106 C 
ATOM     19  N   UNL     1      12.063   1.461   0.011  0.00  0.00    -0.321 N 
ENDBRANCH   9  19
ENDBRANCH   5   9
ENDBRANCH   1   7
BRANCH   2  20
ATOM     20  C   UNL     1       4.837   1.468  -0.367  0.00  0.00    +0.069 C 
ATOM     21  C   UNL     1       3.658   2.122  -0.361  0.00  0.00    +0.013 C 
BRANCH  21  22
ATOM     22  C   UNL     1       2.398   1.368  -0.457  0.00  0.00    -0.023 A 
ATOM     23  C   UNL     1       2.420  -0.027  -0.554  0.00  0.00    +0.009 A 
ATOM     24  C   UNL     1       1.235  -0.726  -0.644  0.00  0.00    +0.023 A 
ATOM     25  C   UNL     1       0.026  -0.051  -0.638  0.00  0.00    +0.071 A 
ATOM     26  C   UNL     1      -0.003   1.331  -0.543  0.00  0.00    +0.145 A 
ATOM     27  C   UNL     1       1.173   2.044  -0.452  0.00  0.00    +0.042 A 
ATOM     28 CL   UNL     1      -1.461  -0.940  -0.753  0.00  0.00    -0.081 Cl
BRANCH  26  29
ATOM     29  N   UNL     1      -1.300   2.044  -0.544  0.00  0.00    +0.058 N 
ATOM     30  O   UNL     1      -1.327   3.259  -0.460  0.00  0.00    -0.126 OA
ATOM     31  O   UNL     1      -2.340   1.416  -0.629  0.00  0.00    -0.126 OA
ENDBRANCH  26  29
ENDBRANCH  21  22
ENDBRANCH   2  20
TORSDOF 6
