REMARK  Name = ZINC63230283
REMARK  8 active torsions:
REMARK  status: ('A' for Active; 'I' for Inactive)
REMARK    1  A    between atoms: C_1  and  N_2
REMARK    2  A    between atoms: N_2  and  C_3
REMARK    3  A    between atoms: N_2  and  C_4
REMARK    4  A    between atoms: C_7  and  C_10
REMARK    5  A    between atoms: C_10  and  C_12
REMARK    6  A    between atoms: C_10  and  C_26
REMARK    7  A    between atoms: C_12  and  N_13
REMARK    8  A    between atoms: C_14  and  C_16
REMARK                            x       y       z     vdW  Elec       q    Type
REMARK                         _______ _______ _______ _____ _____    ______ ____
ROOT
ATOM      1  C   UNL     1      -0.031  -2.845  -4.901  0.00  0.00    +0.064 C 
ENDROOT
BRANCH   1   2
ATOM      2  C   UNL     1       1.204  -2.484  -5.686  0.00  0.00    -0.033 C 
ATOM      3  C   UNL     1       2.174  -3.326  -6.109  0.00  0.00    -0.000 A 
ATOM      4  C   UNL     1       2.364  -4.774  -5.970  0.00  0.00    +0.010 A 
ATOM      5  C   UNL     1       3.462  -5.348  -6.513  0.00  0.00    +0.001 A 
ATOM      6  C   UNL     1       4.421  -4.595  -7.204  0.00  0.00    +0.002 A 
ATOM      7  C   UNL     1       4.316  -3.260  -7.374  0.00  0.00    +0.026 A 
ATOM      8  C   UNL     1       3.201  -2.553  -6.844  0.00  0.00    +0.043 A 
ATOM      9  N   UNL     1       2.879  -1.283  -6.874  0.00  0.00    -0.380 N 
ATOM     10  C   UNL     1       1.606  -1.107  -6.166  0.00  0.00    +0.145 C 
ATOM     11  H   UNL     1       3.393  -0.578  -7.297  0.00  0.00    +0.160 HD
ENDBRANCH   1   2
BRANCH   1  15
ATOM     12  C   UNL     1      -0.030  -0.726  -1.190  0.00  0.00    +0.029 A 
ATOM     13  C   UNL     1      -0.037  -2.115  -1.198  0.00  0.00    +0.023 A 
ATOM     14  C   UNL     1      -0.038  -2.796  -2.399  0.00  0.00    +0.006 A 
ATOM     15  C   UNL     1      -0.031  -2.098  -3.593  0.00  0.00    -0.039 A 
ATOM     16  C   UNL     1      -0.023  -0.715  -3.588  0.00  0.00    +0.006 A 
ATOM     17  C   UNL     1      -0.028  -0.027  -2.391  0.00  0.00    +0.023 A 
BRANCH  12  19
ATOM     18  C   UNL     1      -0.028   1.432   0.030  0.00  0.00    +0.129 C 
ATOM     19  N   UNL     1      -0.029  -0.033   0.023  0.00  0.00    -0.336 N 
ATOM     20  C   UNL     1      -0.031  -0.771   1.288  0.00  0.00    +0.129 C 
ENDBRANCH  12  19
ENDBRANCH   1  15
BRANCH   1  21
ATOM     21  C   UNL     1      -1.276  -2.466  -5.706  0.00  0.00    +0.117 C 
BRANCH  21  22
ATOM     22  N   UNL     1      -1.338  -3.279  -6.922  0.00  0.00    -0.310 N 
ATOM     23  C   UNL     1      -2.356  -3.117  -7.790  0.00  0.00    +0.245 C 
ATOM     24  O   UNL     1      -3.223  -2.295  -7.563  0.00  0.00    -0.270 OA
ATOM     25  H   UNL     1      -0.646  -3.934  -7.104  0.00  0.00    +0.149 HD
BRANCH  23  26
ATOM     26  C   UNL     1      -2.419  -3.936  -9.015  0.00  0.00    +0.044 A 
ATOM     27  C   UNL     1      -1.373  -4.785  -9.345  0.00  0.00    +0.013 A 
ATOM     28  C   UNL     1      -1.426  -5.559 -10.497  0.00  0.00    +0.001 A 
ATOM     29  C   UNL     1      -2.501  -5.507 -11.333  0.00  0.00    +0.008 A 
ATOM     30  C   UNL     1      -3.584  -4.661 -11.038  0.00  0.00    -0.017 A 
ATOM     31  C   UNL     1      -3.551  -3.868  -9.865  0.00  0.00    -0.006 A 
ATOM     32  C   UNL     1      -4.633  -3.028  -9.570  0.00  0.00    +0.009 A 
ATOM     33  C   UNL     1      -5.705  -2.988 -10.410  0.00  0.00    +0.001 A 
ATOM     34  C   UNL     1      -5.742  -3.771 -11.561  0.00  0.00    +0.001 A 
ATOM     35  C   UNL     1      -4.703  -4.589 -11.886  0.00  0.00    +0.008 A 
ENDBRANCH  23  26
ENDBRANCH  21  22
ENDBRANCH   1  21
TORSDOF 6
