REMARK  Name = ZINC36827092
REMARK  3 active torsions:
REMARK  status: ('A' for Active; 'I' for Inactive)
REMARK    1  A    between atoms: C_4  and  N_11
REMARK    2  A    between atoms: C_5  and  C_7
REMARK    3  A    between atoms: N_8  and  O_9
REMARK                            x       y       z     vdW  Elec       q    Type
REMARK                         _______ _______ _______ _____ _____    ______ ____
ROOT
ATOM      1  C   UNL     1       0.041   1.527  -0.373  0.00  0.00    +0.001 A 
ATOM      2  C   UNL     1       0.048   0.179  -0.691  0.00  0.00    +0.002 A 
ATOM      3  C   UNL     1       1.224  -0.543  -0.645  0.00  0.00    +0.024 A 
ATOM      4  C   UNL     1       2.409   0.081  -0.278  0.00  0.00    +0.041 A 
ATOM      5  C   UNL     1       2.405   1.445   0.044  0.00  0.00    +0.039 A 
ATOM      6  C   UNL     1       1.209   2.162  -0.007  0.00  0.00    +0.013 A 
ENDROOT
BRANCH   4   7
ATOM      7  N   UNL     1       3.596  -0.644  -0.231  0.00  0.00    -0.326 N 
ATOM      8  C   UNL     1       4.274  -1.061  -1.467  0.00  0.00    +0.105 C 
ATOM      9  C   UNL     1       4.521  -2.571  -1.412  0.00  0.00    +0.019 C 
ATOM     10  C   UNL     1       5.278  -2.919  -0.128  0.00  0.00    +0.007 C 
ATOM     11  C   UNL     1       4.425  -2.525   1.084  0.00  0.00    +0.009 C 
ATOM     12  C   UNL     1       4.204  -1.006   1.056  0.00  0.00    +0.077 C 
ATOM     13  C   UNL     1       3.296  -0.579   2.204  0.00  0.00    +0.023 C 
ATOM     14  C   UNL     1       1.954  -1.306   2.107  0.00  0.00    +0.002 C 
ATOM     15  C   UNL     1       2.193  -2.817   2.177  0.00  0.00    +0.000 C 
ATOM     16  C   UNL     1       3.086  -3.261   1.005  0.00  0.00    +0.005 C 
ENDBRANCH   4   7
BRANCH   5  17
ATOM     17  C   UNL     1       3.660   2.121   0.436  0.00  0.00    +0.164 C 
ATOM     18  N   UNL     1       4.791   1.479   0.374  0.00  0.00    -0.071 NA
ATOM     19  N   UNL     1       3.632   3.436   0.870  0.00  0.00    -0.340 N 
ATOM     20  H   UNL     1       2.790   3.914   0.916  0.00  0.00    +0.144 HD
ATOM     21  H   UNL     1       4.456   3.879   1.127  0.00  0.00    +0.144 HD
BRANCH  18  22
ATOM     22  O   UNL     1       5.997   2.136   0.720  0.00  0.00    -0.408 OA
ATOM     23  H   UNL     1       6.780   1.570   0.674  0.00  0.00    +0.328 HD
ENDBRANCH  18  22
ENDBRANCH   5  17
TORSDOF 3
