REMARK  Name = ZINC09010021
REMARK  4 active torsions:
REMARK  status: ('A' for Active; 'I' for Inactive)
REMARK    1  A    between atoms: C_4  and  C_7
REMARK    2  A    between atoms: C_7  and  C_9
REMARK    3  A    between atoms: C_11  and  C_34
REMARK    4  A    between atoms: C_34  and  C_36
REMARK                            x       y       z     vdW  Elec       q    Type
REMARK                         _______ _______ _______ _____ _____    ______ ____
ROOT
ATOM      1  C   UNL     1      -3.052   4.857  -1.493  0.00  0.00    +0.110 C 
ATOM      2  C   UNL     1      -2.365   5.532  -0.272  0.00  0.00    +0.158 C 
ATOM      3  N   UNL     1      -2.857   6.913  -0.324  0.00  0.00    -0.311 N 
ATOM      4  C   UNL     1      -2.199   7.879   0.399  0.00  0.00    +0.038 A 
ATOM      5  C   UNL     1      -1.324   7.601   1.431  0.00  0.00    +0.024 A 
ATOM      6  C   UNL     1      -0.698   8.637   2.101  0.00  0.00    +0.002 A 
ATOM      7  C   UNL     1      -0.941   9.953   1.746  0.00  0.00    +0.001 A 
ATOM      8  C   UNL     1      -1.813  10.250   0.717  0.00  0.00    +0.010 A 
ATOM      9  C   UNL     1      -2.450   9.221   0.037  0.00  0.00    -0.004 A 
ATOM     10  C   UNL     1      -3.404   9.491  -1.066  0.00  0.00    +0.007 C 
ATOM     11  C   UNL     1      -3.590   8.519  -1.978  0.00  0.00    -0.003 C 
ATOM     12  C   UNL     1      -2.806   7.259  -1.771  0.00  0.00    +0.117 C 
ATOM     13  C   UNL     1      -3.366   6.021  -2.455  0.00  0.00    +0.108 C 
ATOM     14  C   UNL     1      -2.777   5.790  -3.805  0.00  0.00    -0.008 A 
ATOM     15  C   UNL     1      -1.476   5.612  -4.224  0.00  0.00    +0.006 A 
ATOM     16  C   UNL     1      -1.272   5.417  -5.586  0.00  0.00    +0.000 A 
ATOM     17  C   UNL     1      -2.326   5.404  -6.476  0.00  0.00    +0.002 A 
ATOM     18  C   UNL     1      -3.638   5.580  -6.063  0.00  0.00    +0.023 A 
ATOM     19  C   UNL     1      -3.857   5.778  -4.699  0.00  0.00    +0.038 A 
ATOM     20  N   UNL     1      -5.046   5.979  -4.020  0.00  0.00    -0.284 N 
ATOM     21  C   UNL     1      -4.851   6.132  -2.692  0.00  0.00    +0.231 C 
ATOM     22  O   UNL     1      -5.705   6.322  -1.852  0.00  0.00    -0.274 OA
ATOM     23  H   UNL     1      -5.917   6.007  -4.447  0.00  0.00    +0.155 HD
ENDROOT
BRANCH   1  24
ATOM     24  C   UNL     1      -2.116   3.873  -2.146  0.00  0.00    +0.170 C 
ATOM     25  O   UNL     1      -0.936   4.134  -2.246  0.00  0.00    -0.292 OA
BRANCH  24  29
ATOM     26  C   UNL     1      -3.607   0.191  -3.634  0.00  0.00    +0.000 A 
ATOM     27  C   UNL     1      -2.284   0.535  -3.848  0.00  0.00    +0.001 A 
ATOM     28  C   UNL     1      -1.791   1.730  -3.368  0.00  0.00    +0.011 A 
ATOM     29  C   UNL     1      -2.633   2.596  -2.662  0.00  0.00    +0.018 A 
ATOM     30  C   UNL     1      -3.968   2.239  -2.445  0.00  0.00    +0.011 A 
ATOM     31  C   UNL     1      -4.447   1.043  -2.937  0.00  0.00    +0.001 A 
ENDBRANCH  24  29
ENDBRANCH   1  24
BRANCH   2  32
ATOM     32  C   UNL     1      -0.866   5.496  -0.420  0.00  0.00    +0.191 C 
ATOM     33  O   UNL     1      -0.290   6.402  -0.989  0.00  0.00    -0.289 OA
BRANCH  32  34
ATOM     34  C   UNL     1      -0.130   4.410   0.103  0.00  0.00    +0.056 A 
ATOM     35  C   UNL     1       1.236   4.157   0.024  0.00  0.00    +0.019 A 
ATOM     36  C   UNL     1       1.693   3.014   0.626  0.00  0.00    +0.008 A 
ATOM     37  C   UNL     1       0.808   2.197   1.259  0.00  0.00    +0.046 A 
ATOM     38  S   UNL     1      -0.710   3.000   1.029  0.00  0.00    -0.094 S 
ENDBRANCH  32  34
ENDBRANCH   2  32
TORSDOF 4
