REMARK  Name = ZINC40423847
REMARK  10 active torsions:
REMARK  status: ('A' for Active; 'I' for Inactive)
REMARK    1  A    between atoms: C_1  and  C_2
REMARK    2  A    between atoms: N_5  and  C_25
REMARK    3  A    between atoms: N_8  and  S_9
REMARK    4  A    between atoms: S_9  and  C_12
REMARK    5  A    between atoms: C_15  and  C_18
REMARK    6  A    between atoms: C_18  and  C_19
REMARK    7  A    between atoms: C_18  and  C_20
REMARK    8  A    between atoms: C_18  and  O_24
REMARK    9  A    between atoms: C_25  and  C_26
REMARK   10  A    between atoms: C_26  and  C_31
REMARK                            x       y       z     vdW  Elec       q    Type
REMARK                         _______ _______ _______ _____ _____    ______ ____
ROOT
ATOM      1  C   UNL     1       0.174   0.277  -1.740  0.00  0.00    +0.024 C 
ATOM      2  C   UNL     1       0.350  -1.049  -0.997  0.00  0.00    +0.060 C 
ATOM      3  C   UNL     1      -1.024  -1.628  -0.643  0.00  0.00    -0.058 C 
ATOM      4  N   UNL     1      -0.850  -2.826   0.187  0.00  0.00    +0.382 N 
ATOM      5  C   UNL     1      -0.233  -2.462   1.468  0.00  0.00    -0.061 C 
ATOM      6  C   UNL     1       1.180  -1.925   1.219  0.00  0.00    +0.091 C 
ATOM      7  N   UNL     1       1.099  -0.822   0.248  0.00  0.00    -0.177 NA
ATOM      8  H   UNL     1      -0.257  -3.485  -0.296  0.00  0.00    -0.082 HD
ENDROOT
BRANCH   7   9
ATOM      9  S   UNL     1       1.826   0.635   0.551  0.00  0.00    +0.061 S 
ATOM     10  O   UNL     1       0.999   1.631  -0.036  0.00  0.00    -0.153 OA
ATOM     11  O   UNL     1       2.164   0.642   1.931  0.00  0.00    -0.153 OA
BRANCH   9  12
ATOM     12  C   UNL     1       3.346   0.654  -0.340  0.00  0.00    +0.106 A 
ATOM     13  C   UNL     1       4.467   0.044   0.193  0.00  0.00    +0.029 A 
ATOM     14  C   UNL     1       5.660   0.059  -0.506  0.00  0.00    +0.008 A 
ATOM     15  C   UNL     1       5.732   0.683  -1.737  0.00  0.00    -0.008 A 
ATOM     16  C   UNL     1       4.611   1.292  -2.270  0.00  0.00    +0.008 A 
ATOM     17  C   UNL     1       3.417   1.274  -1.573  0.00  0.00    +0.029 A 
BRANCH  15  18
ATOM     18  C   UNL     1       7.032   0.700  -2.498  0.00  0.00    +0.183 C 
ATOM     19  C   UNL     1       6.744   0.731  -4.000  0.00  0.00    +0.056 C 
BRANCH  18  20
ATOM     20  C   UNL     1       7.836   1.942  -2.107  0.00  0.00    +0.422 C 
ATOM     21  F   UNL     1       8.100   1.914  -0.734  0.00  0.00    -0.167 F 
ATOM     22  F   UNL     1       9.043   1.958  -2.814  0.00  0.00    -0.167 F 
ATOM     23  F   UNL     1       7.099   3.090  -2.417  0.00  0.00    -0.167 F 
ENDBRANCH  18  20
BRANCH  18  24
ATOM     24  O   UNL     1       7.785  -0.473  -2.181  0.00  0.00    -0.376 OA
ATOM     25  H   UNL     1       8.004  -0.558  -1.244  0.00  0.00    +0.211 HD
ENDBRANCH  18  24
ENDBRANCH  15  18
ENDBRANCH   9  12
ENDBRANCH   7   9
BRANCH   4  26
ATOM     26  C   UNL     1      -2.160  -3.443   0.434  0.00  0.00    -0.067 C 
BRANCH  26  27
ATOM     27  C   UNL     1      -1.963  -4.864   0.966  0.00  0.00    -0.017 C 
ATOM     28  C   UNL     1      -1.496  -4.817   2.432  0.00  0.00    +0.010 C 
ATOM     29  C   UNL     1      -0.115  -5.503   2.476  0.00  0.00    +0.001 C 
ATOM     30  C   UNL     1       0.422  -5.369   1.029  0.00  0.00    +0.001 C 
ATOM     31  C   UNL     1      -0.850  -5.577   0.171  0.00  0.00    +0.010 C 
BRANCH  27  32
ATOM     32  C   UNL     1      -3.252  -5.638   0.859  0.00  0.00    -0.025 A 
ATOM     33  C   UNL     1      -3.324  -6.947   1.313  0.00  0.00    +0.007 A 
ATOM     34  C   UNL     1      -4.530  -7.620   1.193  0.00  0.00    +0.020 A 
ATOM     35  C   UNL     1      -5.612  -6.971   0.629  0.00  0.00    +0.111 A 
ATOM     36  N   UNL     1      -5.506  -5.726   0.208  0.00  0.00    -0.263 NA
ATOM     37  C   UNL     1      -4.377  -5.052   0.311  0.00  0.00    +0.114 A 
ENDBRANCH  27  32
ENDBRANCH  26  27
ENDBRANCH   4  26
TORSDOF 8
