REMARK  Name = ZINC25680489
REMARK  5 active torsions:
REMARK  status: ('A' for Active; 'I' for Inactive)
REMARK    1  A    between atoms: C_3  and  O_28
REMARK    2  A    between atoms: C_6  and  C_7
REMARK    3  A    between atoms: N_10  and  C_13
REMARK    4  A    between atoms: C_13  and  C_14
REMARK    5  A    between atoms: N_16  and  C_17
REMARK                            x       y       z     vdW  Elec       q    Type
REMARK                         _______ _______ _______ _____ _____    ______ ____
ROOT
ATOM      1  C   UNL     1       1.438   7.757   0.272  0.00  0.00    +0.019 C 
ENDROOT
BRANCH   1   5
ATOM      2  C   UNL     1       1.105   3.579  -0.118  0.00  0.00    -0.048 C 
ATOM      3  C   UNL     1       0.689   4.156   0.988  0.00  0.00    -0.041 C 
ATOM      4  C   UNL     1       0.681   5.645   1.182  0.00  0.00    -0.050 C 
ATOM      5  N   UNL     1       1.537   6.294   0.181  0.00  0.00    +0.388 N 
ATOM      6  C   UNL     1       1.188   5.825  -1.170  0.00  0.00    -0.073 C 
ATOM      7  C   UNL     1       1.611   4.359  -1.300  0.00  0.00    +0.017 C 
ATOM      8  H   UNL     1       2.582   6.018   0.389  0.00  0.00    -0.081 HD
BRANCH   2  14
ATOM      9  C   UNL     1      -0.156   1.433  -0.176  0.00  0.00    +0.012 A 
ATOM     10  C   UNL     1      -0.186   0.057  -0.258  0.00  0.00    +0.046 A 
ATOM     11  C   UNL     1       0.998  -0.660  -0.370  0.00  0.00    +0.117 A 
ATOM     12  C   UNL     1       2.216   0.005  -0.400  0.00  0.00    +0.046 A 
ATOM     13  C   UNL     1       2.255   1.380  -0.318  0.00  0.00    +0.012 A 
ATOM     14  C   UNL     1       1.067   2.105  -0.206  0.00  0.00    -0.022 A 
BRANCH  11  15
ATOM     15  O   UNL     1       0.963  -2.016  -0.451  0.00  0.00    -0.507 OA
ATOM     16  H   UNL     1       1.900  -2.586  -0.540  0.00  0.00    +0.292 HD
ENDBRANCH  11  15
ENDBRANCH   2  14
ENDBRANCH   1   5
BRANCH   1  17
ATOM     17  C   UNL     1       2.493   8.387  -0.601  0.00  0.00    +0.201 C 
ATOM     18  O   UNL     1       3.318   7.691  -1.153  0.00  0.00    -0.278 OA
ATOM     19  N   UNL     1       2.518   9.724  -0.768  0.00  0.00    -0.286 N 
ATOM     20  H   UNL     1       1.826  10.363  -0.200  0.00  0.00    +0.155 HD
BRANCH  19  21
ATOM     21  C   UNL     1       3.426  10.301  -1.667  0.00  0.00    +0.051 A 
ATOM     22  C   UNL     1       4.633   9.671  -1.933  0.00  0.00    +0.073 A 
ATOM     23  C   UNL     1       5.531  10.241  -2.823  0.00  0.00    +0.164 A 
ATOM     24  C   UNL     1       5.219  11.443  -3.448  0.00  0.00    +0.163 A 
ATOM     25  C   UNL     1       4.012  12.071  -3.178  0.00  0.00    +0.066 A 
ATOM     26  C   UNL     1       3.115  11.500  -2.295  0.00  0.00    +0.043 A 
ATOM     27 BR   UNL     1       1.467  12.356  -1.936  0.00  0.00    -0.048 Br
ATOM     28  O   UNL     1       6.086  12.015  -4.329  0.00  0.00    -0.485 OA
ATOM     29  C   UNL     1       7.441  11.553  -4.290  0.00  0.00    +0.270 C 
ATOM     30  C   UNL     1       7.424  10.020  -4.246  0.00  0.00    +0.270 C 
ATOM     31  O   UNL     1       6.713   9.613  -3.072  0.00  0.00    -0.485 OA
ENDBRANCH  19  21
ENDBRANCH   1  17
TORSDOF 5
