REMARK  Name = ZINC15072410
REMARK  9 active torsions:
REMARK  status: ('A' for Active; 'I' for Inactive)
REMARK    1  A    between atoms: C_4  and  C_7
REMARK    2  A    between atoms: C_7  and  C_8
REMARK    3  A    between atoms: C_7  and  C_29
REMARK    4  A    between atoms: C_8  and  C_9
REMARK    5  A    between atoms: C_9  and  N_10
REMARK    6  A    between atoms: C_11  and  C_13
REMARK    7  A    between atoms: C_21  and  C_22
REMARK    8  A    between atoms: C_21  and  N_68
REMARK    9  A    between atoms: C_23  and  C_24
REMARK                            x       y       z     vdW  Elec       q    Type
REMARK                         _______ _______ _______ _____ _____    ______ ____
ROOT
ATOM      1  N   UNL     1       7.030   6.233  -4.616  0.00  0.00    -0.315 N 
ATOM      2  C   UNL     1       6.291   5.818  -3.567  0.00  0.00    +0.217 C 
ATOM      3  O   UNL     1       5.083   5.918  -3.599  0.00  0.00    -0.275 OA
ATOM      4  H   UNL     1       7.996   6.152  -4.590  0.00  0.00    +0.149 HD
ENDROOT
BRANCH   2   5
ATOM      5  C   UNL     1       6.967   5.228  -2.356  0.00  0.00    +0.082 C 
ATOM      6  C   UNL     1       6.924   6.038  -1.058  0.00  0.00    +0.020 C 
ATOM      7  C   UNL     1       6.075   4.776  -1.201  0.00  0.00    -0.021 C 
ATOM      8  C   UNL     1       6.503   3.535  -0.411  0.00  0.00    -0.011 C 
ATOM      9  C   UNL     1       5.738   3.514   0.917  0.00  0.00    -0.078 C 
ATOM     10  C   UNL     1       3.911   4.842   0.027  0.00  0.00    -0.078 C 
ATOM     11  C   UNL     1       4.561   4.947  -1.357  0.00  0.00    -0.011 C 
ATOM     12  N   UNL     1       4.286   3.546   0.633  0.00  0.00    +0.382 N 
ATOM     13  H   UNL     1       4.061   2.793  -0.028  0.00  0.00    -0.081 HD
BRANCH  12  14
ATOM     14  C   UNL     1       3.525   3.333   1.880  0.00  0.00    -0.051 C 
BRANCH  14  15
ATOM     15  C   UNL     1       2.071   3.639   1.627  0.00  0.00    -0.042 C 
ATOM     16  C   UNL     1       1.144   2.719   1.878  0.00  0.00    +0.040 C 
BRANCH  16  17
ATOM     17  C   UNL     1      -0.274   3.015   1.625  0.00  0.00    +0.127 A 
ATOM     18  C   UNL     1      -1.318   2.165   1.833  0.00  0.00    +0.049 A 
ATOM     19  C   UNL     1      -2.486   2.859   1.460  0.00  0.00    +0.042 A 
ATOM     20  C   UNL     1      -2.103   4.084   1.048  0.00  0.00    +0.195 A 
ATOM     21  O   UNL     1      -0.768   4.178   1.155  0.00  0.00    -0.464 OA
ENDBRANCH  16  17
ENDBRANCH  14  15
ENDBRANCH  12  14
ENDBRANCH   2   5
BRANCH   1  22
ATOM     22  C   UNL     1       6.373   6.806  -5.793  0.00  0.00    +0.105 C 
BRANCH  22  23
ATOM     23  C   UNL     1       7.431   7.193  -6.829  0.00  0.00    +0.031 C 
BRANCH  23  24
ATOM     24  C   UNL     1       6.745   7.791  -8.059  0.00  0.00    +0.050 C 
BRANCH  24  28
ATOM     25  C   UNL     1       9.706   9.189 -10.802  0.00  0.00    +0.000 A 
ATOM     26  C   UNL     1       9.770   7.897 -10.315  0.00  0.00    +0.000 A 
ATOM     27  C   UNL     1       8.811   7.444  -9.428  0.00  0.00    +0.004 A 
ATOM     28  C   UNL     1       7.790   8.284  -9.026  0.00  0.00    -0.040 A 
ATOM     29  C   UNL     1       7.723   9.575  -9.517  0.00  0.00    +0.004 A 
ATOM     30  C   UNL     1       8.684  10.029 -10.401  0.00  0.00    +0.000 A 
ENDBRANCH  24  28
BRANCH  24  31
ATOM     31  C   UNL     1       5.900   6.737  -8.726  0.00  0.00    -0.040 A 
ATOM     32  C   UNL     1       6.455   5.515  -9.059  0.00  0.00    +0.004 A 
ATOM     33  C   UNL     1       5.680   4.546  -9.668  0.00  0.00    +0.000 A 
ATOM     34  C   UNL     1       4.351   4.802  -9.951  0.00  0.00    +0.000 A 
ATOM     35  C   UNL     1       3.797   6.025  -9.622  0.00  0.00    +0.000 A 
ATOM     36  C   UNL     1       4.572   6.992  -9.010  0.00  0.00    +0.004 A 
ENDBRANCH  24  31
ENDBRANCH  23  24
ENDBRANCH  22  23
ENDBRANCH   1  22
TORSDOF 9
