REMARK  Name = ZINC10341404
REMARK  10 active torsions:
REMARK  status: ('A' for Active; 'I' for Inactive)
REMARK    1  A    between atoms: C_1  and  C_2
REMARK    2  A    between atoms: C_2  and  O_3
REMARK    3  A    between atoms: O_3  and  C_4
REMARK    4  A    between atoms: C_4  and  C_6
REMARK    5  A    between atoms: C_7  and  C_27
REMARK    6  A    between atoms: C_8  and  C_23
REMARK    7  A    between atoms: C_10  and  N_11
REMARK    8  A    between atoms: C_12  and  C_14
REMARK    9  A    between atoms: C_14  and  N_51
REMARK   10  A    between atoms: N_25  and  C_26
REMARK                            x       y       z     vdW  Elec       q    Type
REMARK                         _______ _______ _______ _____ _____    ______ ____
ROOT
ATOM      1  C   UNL     1      -1.880  -2.118  -0.027  0.00  0.00    +0.091 A 
ATOM      2  C   UNL     1      -2.167  -2.833   1.127  0.00  0.00    -0.015 A 
ATOM      3  C   UNL     1      -2.410  -4.173   1.000  0.00  0.00    +0.079 A 
ATOM      4  S   UNL     1      -2.224  -4.442  -0.752  0.00  0.00    -0.068 S 
ATOM      5  C   UNL     1      -1.850  -2.820  -1.236  0.00  0.00    +0.087 A 
ATOM      6  C   UNL     1      -2.214  -2.155   2.472  0.00  0.00    +0.046 C 
ENDROOT
BRANCH   3   7
ATOM      7  C   UNL     1      -2.736  -5.146   2.045  0.00  0.00    +0.251 C 
ATOM      8  O   UNL     1      -2.824  -4.787   3.205  0.00  0.00    -0.270 OA
ATOM      9  N   UNL     1      -2.938  -6.439   1.722  0.00  0.00    -0.314 N 
ATOM     10  C   UNL     1      -3.265  -7.412   2.768  0.00  0.00    +0.128 C 
ATOM     11  H   UNL     1      -2.868  -6.725   0.798  0.00  0.00    +0.149 HD
ENDBRANCH   3   7
BRANCH   5  12
ATOM     12  N   UNL     1      -1.587  -2.339  -2.504  0.00  0.00    -0.281 N 
ATOM     13  C   UNL     1      -1.603  -3.178  -3.560  0.00  0.00    +0.201 C 
ATOM     14  O   UNL     1      -1.849  -4.354  -3.396  0.00  0.00    -0.278 OA
ATOM     15  H   UNL     1      -1.391  -1.399  -2.635  0.00  0.00    +0.155 HD
BRANCH  13  16
ATOM     16  C   UNL     1      -1.316  -2.653  -4.943  0.00  0.00    +0.019 C 
BRANCH  16  25
ATOM     17  C   UNL     1      -0.091  -4.636  -5.601  0.00  0.00    -0.073 C 
ATOM     18  C   UNL     1      -0.285  -5.983  -6.318  0.00  0.00    +0.024 C 
ATOM     19  C   UNL     1      -0.710  -5.694  -7.720  0.00  0.00    -0.011 A 
ATOM     20  C   UNL     1      -1.151  -4.501  -8.208  0.00  0.00    -0.054 A 
ATOM     21  C   UNL     1      -1.492  -4.467  -9.557  0.00  0.00    +0.009 A 
ATOM     22  C   UNL     1      -1.379  -5.585 -10.312  0.00  0.00    +0.045 A 
ATOM     23  S   UNL     1      -0.768  -6.772  -9.123  0.00  0.00    -0.101 S 
ATOM     24  C   UNL     1      -1.247  -3.296  -7.276  0.00  0.00    -0.042 C 
ATOM     25  N   UNL     1      -1.278  -3.793  -5.880  0.00  0.00    +0.388 N 
ATOM     26  H   UNL     1      -2.125  -4.359  -5.750  0.00  0.00    -0.081 HD
ENDBRANCH  16  25
ENDBRANCH  13  16
ENDBRANCH   5  12
BRANCH   1  27
ATOM     27  C   UNL     1      -1.612  -0.676   0.020  0.00  0.00    +0.342 C 
ATOM     28  O   UNL     1      -2.527   0.116  -0.099  0.00  0.00    -0.245 OA
BRANCH  27  29
ATOM     29  O   UNL     1      -0.352  -0.230   0.196  0.00  0.00    -0.461 OA
BRANCH  29  31
ATOM     30  C   UNL     1       1.322   1.521   0.438  0.00  0.00    +0.048 C 
ATOM     31  C   UNL     1      -0.161   1.209   0.233  0.00  0.00    +0.229 C 
ENDBRANCH  29  31
ENDBRANCH  27  29
ENDBRANCH   1  27
TORSDOF 7
