REMARK  Name = ZINC10107263
REMARK  9 active torsions:
REMARK  status: ('A' for Active; 'I' for Inactive)
REMARK    1  A    between atoms: C_1  and  C_2
REMARK    2  A    between atoms: C_5  and  N_9
REMARK    3  A    between atoms: C_6  and  C_8
REMARK    4  A    between atoms: C_10  and  C_36
REMARK    5  A    between atoms: N_19  and  C_24
REMARK    6  A    between atoms: N_22  and  C_23
REMARK    7  A    between atoms: C_24  and  C_25
REMARK    8  A    between atoms: C_25  and  C_26
REMARK    9  A    between atoms: C_26  and  N_69
REMARK                            x       y       z     vdW  Elec       q    Type
REMARK                         _______ _______ _______ _____ _____    ______ ____
ROOT
ATOM      1  N   UNL     1       2.444   2.177   4.936  0.00  0.00    -0.282 N 
ATOM      2  C   UNL     1       1.813   2.623   6.083  0.00  0.00    +0.040 A 
ATOM      3  C   UNL     1       0.516   2.751   5.819  0.00  0.00    +0.116 A 
ATOM      4  N   UNL     1       0.300   2.389   4.501  0.00  0.00    -0.277 N 
ATOM      5  C   UNL     1       1.490   2.036   3.960  0.00  0.00    +0.223 A 
ATOM      6  N   UNL     1       1.309   1.684   2.696  0.00  0.00    -0.193 NA
ATOM      7  C   UNL     1       0.023   1.793   2.374  0.00  0.00    +0.170 A 
ATOM      8  C   UNL     1      -0.655   2.243   3.507  0.00  0.00    +0.157 A 
ATOM      9  C   UNL     1      -2.044   2.444   3.438  0.00  0.00    +0.283 A 
ATOM     10  O   UNL     1      -2.658   2.836   4.415  0.00  0.00    -0.265 OA
ATOM     11  N   UNL     1      -2.691   2.199   2.280  0.00  0.00    -0.259 N 
ATOM     12  C   UNL     1      -2.028   1.770   1.192  0.00  0.00    +0.333 A 
ATOM     13  O   UNL     1      -2.645   1.564   0.165  0.00  0.00    -0.246 OA
ATOM     14  N   UNL     1      -0.698   1.558   1.213  0.00  0.00    -0.279 N 
ATOM     15  C   UNL     1      -0.013   1.086   0.008  0.00  0.00    +0.155 C 
ATOM     16  C   UNL     1       2.479   2.914   7.403  0.00  0.00    +0.065 C 
ENDROOT
BRANCH   1  21
ATOM     17  C   UNL     1       7.990   1.119   4.367  0.00  0.00    +0.044 C 
ATOM     18  C   UNL     1       6.517   1.400   4.519  0.00  0.00    -0.050 A 
ATOM     19  C   UNL     1       6.024   2.664   4.247  0.00  0.00    +0.005 A 
ATOM     20  C   UNL     1       4.674   2.923   4.379  0.00  0.00    +0.027 A 
ATOM     21  C   UNL     1       3.813   1.916   4.796  0.00  0.00    +0.053 A 
ATOM     22  C   UNL     1       4.311   0.649   5.068  0.00  0.00    -0.026 A 
ATOM     23  C   UNL     1       5.662   0.395   4.929  0.00  0.00    +0.008 A 
ATOM     24  C   UNL     1       3.379  -0.448   5.514  0.00  0.00    +0.046 C 
ENDBRANCH   1  21
BRANCH  11  25
ATOM     25  C   UNL     1      -4.139   2.407   2.206  0.00  0.00    +0.128 C 
BRANCH  25  26
ATOM     26  C   UNL     1      -4.425   3.845   1.769  0.00  0.00    +0.003 C 
BRANCH  26  27
ATOM     27  C   UNL     1      -5.938   4.063   1.691  0.00  0.00    -0.077 C 
BRANCH  27  37
ATOM     28  C   UNL     1      -7.638   5.626   0.956  0.00  0.00    -0.074 C 
ATOM     29  C   UNL     1      -7.933   7.124   0.888  0.00  0.00    +0.017 C 
ATOM     30  C   UNL     1      -6.932   7.806  -0.009  0.00  0.00    -0.048 A 
ATOM     31  C   UNL     1      -7.224   9.077  -0.481  0.00  0.00    +0.004 A 
ATOM     32  C   UNL     1      -6.332   9.738  -1.301  0.00  0.00    +0.000 A 
ATOM     33  C   UNL     1      -5.142   9.130  -1.655  0.00  0.00    +0.000 A 
ATOM     34  C   UNL     1      -4.851   7.865  -1.187  0.00  0.00    +0.002 A 
ATOM     35  C   UNL     1      -5.747   7.198  -0.363  0.00  0.00    -0.061 A 
ATOM     36  C   UNL     1      -5.386   5.817   0.118  0.00  0.00    -0.043 C 
ATOM     37  N   UNL     1      -6.208   5.462   1.287  0.00  0.00    +0.383 N 
ATOM     38  H   UNL     1      -5.971   6.087   2.067  0.00  0.00    -0.081 HD
ENDBRANCH  27  37
ENDBRANCH  26  27
ENDBRANCH  25  26
ENDBRANCH  11  25
TORSDOF 5
