REMARK  Name = ZINC20462298
REMARK  3 active torsions:
REMARK  status: ('A' for Active; 'I' for Inactive)
REMARK    1  A    between atoms: C_16  and  C_18
REMARK    2  A    between atoms: C_18  and  C_20
REMARK    3  A    between atoms: N_27  and  C_30
REMARK                            x       y       z     vdW  Elec       q    Type
REMARK                         _______ _______ _______ _____ _____    ______ ____
ROOT
ATOM      1  C   UNL     1      -0.017   1.375   0.010  0.00  0.00    +0.001 A 
ATOM      2  C   UNL     1       1.169   2.090   0.002  0.00  0.00    +0.000 A 
ATOM      3  C   UNL     1       2.384   1.426  -0.011  0.00  0.00    +0.006 A 
ATOM      4  C   UNL     1       2.416   0.050  -0.018  0.00  0.00    -0.019 A 
ATOM      5  C   UNL     1       1.223  -0.682  -0.014  0.00  0.00    -0.019 A 
ATOM      6  C   UNL     1       0.002  -0.004   0.002  0.00  0.00    +0.008 A 
ATOM      7  C   UNL     1       1.252  -2.158  -0.035  0.00  0.00    +0.023 C 
ATOM      8  C   UNL     1       2.391  -2.801   0.286  0.00  0.00    +0.072 C 
ATOM      9  N   UNL     1       3.485  -2.008   0.599  0.00  0.00    -0.317 N 
ATOM     10  C   UNL     1       3.725  -0.695  -0.027  0.00  0.00    +0.117 C 
ATOM     11  C   UNL     1       4.786   0.033   0.800  0.00  0.00    +0.115 C 
ATOM     12  C   UNL     1       5.020  -0.869   2.047  0.00  0.00    +0.118 C 
ATOM     13  C   UNL     1       4.528  -2.258   1.591  0.00  0.00    +0.158 C 
ATOM     14  C   UNL     1       6.534  -0.892   2.141  0.00  0.00    +0.232 C 
ATOM     15  O   UNL     1       7.177  -1.222   3.115  0.00  0.00    -0.274 OA
ATOM     16  N   UNL     1       7.042  -0.489   0.968  0.00  0.00    -0.208 N 
ATOM     17  C   UNL     1       6.123  -0.023   0.089  0.00  0.00    +0.232 C 
ATOM     18  O   UNL     1       6.324   0.288  -1.065  0.00  0.00    -0.274 OA
ENDROOT
BRANCH  16  19
ATOM     19  C   UNL     1       8.414  -0.534   0.676  0.00  0.00    +0.062 A 
ATOM     20  C   UNL     1       8.962  -1.665   0.087  0.00  0.00    +0.027 A 
ATOM     21  C   UNL     1      10.312  -1.708  -0.200  0.00  0.00    +0.022 A 
ATOM     22  C   UNL     1      11.119  -0.624   0.099  0.00  0.00    +0.042 A 
ATOM     23  C   UNL     1      10.576   0.505   0.685  0.00  0.00    +0.042 A 
ATOM     24  C   UNL     1       9.224   0.555   0.970  0.00  0.00    +0.064 A 
ATOM     25 CL   UNL     1       8.541   1.974   1.700  0.00  0.00    -0.082 Cl
ATOM     26 CL   UNL     1      12.816  -0.681  -0.263  0.00  0.00    -0.083 Cl
ENDBRANCH  16  19
BRANCH  13  27
ATOM     27  C   UNL     1       3.959  -3.018   2.762  0.00  0.00    +0.191 C 
ATOM     28  O   UNL     1       2.756  -3.114   2.897  0.00  0.00    -0.289 OA
BRANCH  27  29
ATOM     29  C   UNL     1       4.826  -3.618   3.702  0.00  0.00    +0.056 A 
ATOM     30  C   UNL     1       4.511  -4.359   4.837  0.00  0.00    +0.019 A 
ATOM     31  C   UNL     1       5.581  -4.817   5.563  0.00  0.00    +0.008 A 
ATOM     32  C   UNL     1       6.839  -4.527   5.141  0.00  0.00    +0.046 A 
ATOM     33  S   UNL     1       6.608  -3.629   3.740  0.00  0.00    -0.094 S 
ENDBRANCH  27  29
ENDBRANCH  13  27
TORSDOF 3
