REMARK  Name = ZINC21158806
REMARK  6 active torsions:
REMARK  status: ('A' for Active; 'I' for Inactive)
REMARK    1  A    between atoms: N_9  and  C_10
REMARK    2  A    between atoms: C_10  and  C_11
REMARK    3  A    between atoms: C_21  and  C_24
REMARK    4  A    between atoms: N_26  and  C_27
REMARK    5  A    between atoms: C_27  and  C_28
REMARK    6  A    between atoms: C_28  and  C_29
REMARK                            x       y       z     vdW  Elec       q    Type
REMARK                         _______ _______ _______ _____ _____    ______ ____
ROOT
ATOM      1  C   UNL     1      -9.309   4.669   1.314  0.00  0.00    +0.002 A 
ATOM      2  C   UNL     1      -8.951   5.179   2.554  0.00  0.00    +0.002 A 
ATOM      3  C   UNL     1      -7.689   4.954   3.064  0.00  0.00    +0.028 A 
ATOM      4  C   UNL     1      -6.771   4.215   2.334  0.00  0.00    +0.068 A 
ATOM      5  C   UNL     1      -7.128   3.696   1.079  0.00  0.00    +0.065 A 
ATOM      6  C   UNL     1      -8.410   3.933   0.576  0.00  0.00    +0.028 A 
ATOM      7  N   UNL     1      -6.047   3.025   0.602  0.00  0.00    -0.327 N 
ATOM      8  C   UNL     1      -5.067   3.096   1.468  0.00  0.00    +0.177 A 
ATOM      9  N   UNL     1      -5.464   3.816   2.558  0.00  0.00    -0.309 N 
ATOM     10  N   UNL     1      -3.823   2.525   1.306  0.00  0.00    -0.302 N 
ATOM     11  C   UNL     1      -3.923   1.234   0.613  0.00  0.00    +0.108 C 
ATOM     12  C   UNL     1      -2.547   0.563   0.580  0.00  0.00    +0.032 C 
ATOM     13  C   UNL     1      -1.557   1.478  -0.146  0.00  0.00    +0.078 C 
ATOM     14  C   UNL     1      -1.508   2.832   0.566  0.00  0.00    +0.032 C 
ATOM     15  C   UNL     1      -2.913   3.437   0.600  0.00  0.00    +0.108 C 
ATOM     16  H   UNL     1      -6.096   2.530  -0.380  0.00  0.00    +0.169 HD
ENDROOT
BRANCH  13  17
ATOM     17  C   UNL     1      -0.187   0.850  -0.130  0.00  0.00    +0.216 C 
ATOM     18  O   UNL     1      -0.018  -0.224   0.409  0.00  0.00    -0.276 OA
ATOM     19  N   UNL     1       0.849   1.478  -0.719  0.00  0.00    -0.315 N 
ATOM     20  H   UNL     1       0.696   2.451  -1.208  0.00  0.00    +0.149 HD
BRANCH  19  21
ATOM     21  C   UNL     1       2.180   0.865  -0.709  0.00  0.00    +0.108 C 
BRANCH  21  22
ATOM     22  C   UNL     1       3.167   1.777  -1.440  0.00  0.00    +0.049 C 
BRANCH  22  23
ATOM     23  C   UNL     1       4.536   1.146  -1.429  0.00  0.00    -0.072 C 
ATOM     24  C   UNL     1       4.887   0.440  -2.455  0.00  0.00    -0.028 C 
ATOM     25  C   UNL     1       6.211  -0.256  -2.584  0.00  0.00    +0.027 C 
ATOM     26  C   UNL     1       7.209   0.319  -1.576  0.00  0.00    +0.004 C 
ATOM     27  C   UNL     1       6.541   0.349  -0.196  0.00  0.00    +0.005 C 
ATOM     28  C   UNL     1       5.409   1.380  -0.231  0.00  0.00    +0.030 C 
ENDBRANCH  22  23
ENDBRANCH  21  22
ENDBRANCH  19  21
ENDBRANCH  13  17
BRANCH   9  29
ATOM     29  C   UNL     1      -4.655   4.114   3.744  0.00  0.00    +0.160 C 
BRANCH  29  30
ATOM     30  C   UNL     1      -4.760   2.973   4.723  0.00  0.00    -0.027 A 
ATOM     31  C   UNL     1      -5.807   2.931   5.625  0.00  0.00    +0.008 A 
ATOM     32  C   UNL     1      -5.906   1.883   6.521  0.00  0.00    +0.038 A 
ATOM     33  C   UNL     1      -4.952   0.880   6.520  0.00  0.00    +0.123 A 
ATOM     34  C   UNL     1      -3.902   0.925   5.619  0.00  0.00    +0.038 A 
ATOM     35  C   UNL     1      -3.807   1.972   4.721  0.00  0.00    +0.008 A 
ATOM     36  F   UNL     1      -5.046  -0.143   7.398  0.00  0.00    -0.205 F 
ENDBRANCH  29  30
ENDBRANCH   9  29
TORSDOF 6
