REMARK  Name = ZINC21376767
REMARK  9 active torsions:
REMARK  status: ('A' for Active; 'I' for Inactive)
REMARK    1  A    between atoms: C_1  and  C_2
REMARK    2  A    between atoms: C_2  and  C_4
REMARK    3  A    between atoms: C_2  and  S_19
REMARK    4  A    between atoms: N_6  and  C_7
REMARK    5  A    between atoms: C_12  and  C_13
REMARK    6  A    between atoms: S_19  and  C_20
REMARK    7  A    between atoms: N_30  and  C_31
REMARK    8  A    between atoms: C_31  and  C_32
REMARK    9  A    between atoms: C_31  and  C_33
REMARK                            x       y       z     vdW  Elec       q    Type
REMARK                         _______ _______ _______ _____ _____    ______ ____
ROOT
ATOM      1  C   UNL     1      -0.006   1.539  -0.001  0.00  0.00    +0.029 C 
ATOM      2  C   UNL     1       0.006   0.009  -0.001  0.00  0.00    +0.137 C 
ENDROOT
BRANCH   2   3
ATOM      3  C   UNL     1       0.708  -0.487  -1.238  0.00  0.00    +0.230 C 
ATOM      4  O   UNL     1       1.863  -0.853  -1.175  0.00  0.00    -0.274 OA
ATOM      5  N   UNL     1       0.053  -0.526  -2.415  0.00  0.00    -0.284 N 
ATOM      6  H   UNL     1      -0.892  -0.310  -2.451  0.00  0.00    +0.155 HD
BRANCH   5   7
ATOM      7  C   UNL     1       0.735  -0.876  -3.584  0.00  0.00    +0.041 A 
ATOM      8  C   UNL     1       2.106  -0.688  -3.673  0.00  0.00    +0.024 A 
ATOM      9  C   UNL     1       2.779  -1.035  -4.828  0.00  0.00    +0.002 A 
ATOM     10  C   UNL     1       2.090  -1.572  -5.903  0.00  0.00    +0.001 A 
ATOM     11  C   UNL     1       0.726  -1.766  -5.828  0.00  0.00    +0.010 A 
ATOM     12  C   UNL     1       0.038  -1.425  -4.666  0.00  0.00    +0.003 A 
BRANCH  12  13
ATOM     13  C   UNL     1      -1.428  -1.636  -4.579  0.00  0.00    -0.016 A 
ATOM     14  C   UNL     1      -1.975  -2.292  -3.478  0.00  0.00    +0.008 A 
ATOM     15  C   UNL     1      -3.340  -2.485  -3.401  0.00  0.00    +0.001 A 
ATOM     16  C   UNL     1      -4.163  -2.030  -4.415  0.00  0.00    +0.000 A 
ATOM     17  C   UNL     1      -3.625  -1.379  -5.511  0.00  0.00    +0.001 A 
ATOM     18  C   UNL     1      -2.263  -1.175  -5.595  0.00  0.00    +0.008 A 
ENDBRANCH  12  13
ENDBRANCH   5   7
ENDBRANCH   2   3
BRANCH   2  19
ATOM     19  S   UNL     1       0.880  -0.589   1.472  0.00  0.00    -0.075 S 
BRANCH  19  20
ATOM     20  C   UNL     1      -0.131  -0.057   2.813  0.00  0.00    +0.173 A 
ATOM     21  N   UNL     1      -1.229   0.604   2.543  0.00  0.00    -0.223 NA
ATOM     22  C   UNL     1      -2.050   1.041   3.520  0.00  0.00    +0.079 A 
ATOM     23  C   UNL     1      -3.222   1.746   3.232  0.00  0.00    +0.028 A 
ATOM     24  C   UNL     1      -4.024   2.170   4.254  0.00  0.00    +0.002 A 
ATOM     25  C   UNL     1      -3.693   1.910   5.578  0.00  0.00    +0.001 A 
ATOM     26  C   UNL     1      -2.554   1.222   5.891  0.00  0.00    +0.015 A 
ATOM     27  C   UNL     1      -1.716   0.778   4.869  0.00  0.00    +0.065 A 
ATOM     28  C   UNL     1      -0.480   0.034   5.146  0.00  0.00    +0.263 A 
ATOM     29  O   UNL     1      -0.140  -0.223   6.286  0.00  0.00    -0.267 OA
ATOM     30  N   UNL     1       0.263  -0.359   4.085  0.00  0.00    -0.285 N 
BRANCH  30  31
ATOM     31  C   UNL     1       1.503  -1.109   4.304  0.00  0.00    +0.087 C 
ATOM     32  C   UNL     1       2.464  -0.271   5.149  0.00  0.00    +0.031 C 
ATOM     33  C   UNL     1       1.186  -2.415   5.036  0.00  0.00    +0.031 C 
ENDBRANCH  30  31
ENDBRANCH  19  20
ENDBRANCH   2  19
TORSDOF 6
