REMARK  Name = ZINC51296417
REMARK  2 active torsions:
REMARK  status: ('A' for Active; 'I' for Inactive)
REMARK    1  A    between atoms: C_3  and  C_8
REMARK    2  A    between atoms: C_17  and  N_20
REMARK                            x       y       z     vdW  Elec       q    Type
REMARK                         _______ _______ _______ _____ _____    ______ ____
ROOT
ATOM      1  C   UNL     1       3.665   2.160   0.012  0.00  0.00    +0.251 C 
ATOM      2  O   UNL     1       2.619   1.544   0.056  0.00  0.00    -0.270 OA
ATOM      3  N   UNL     1       4.833   1.499  -0.116  0.00  0.00    -0.267 N 
ATOM      4  C   UNL     1       6.108   2.229  -0.120  0.00  0.00    +0.114 C 
ATOM      5  C   UNL     1       6.970   1.659  -1.254  0.00  0.00    +0.024 C 
ATOM      6  C   UNL     1       7.272   0.191  -0.955  0.00  0.00    +0.038 C 
ATOM      7  C   UNL     1       6.001  -0.557  -0.649  0.00  0.00    -0.026 A 
ATOM      8  C   UNL     1       4.851   0.104  -0.240  0.00  0.00    +0.041 A 
ATOM      9  C   UNL     1       3.696  -0.614   0.044  0.00  0.00    +0.046 A 
ATOM     10  C   UNL     1       3.692  -1.996  -0.076  0.00  0.00    +0.026 A 
ATOM     11  C   UNL     1       4.846  -2.656  -0.482  0.00  0.00    +0.023 A 
ATOM     12  C   UNL     1       5.991  -1.937  -0.774  0.00  0.00    +0.007 A 
ENDROOT
BRANCH   1  15
ATOM     13  C   UNL     1       2.571   5.739  -0.313  0.00  0.00    +0.002 A 
ATOM     14  C   UNL     1       2.573   4.362  -0.397  0.00  0.00    +0.013 A 
ATOM     15  C   UNL     1       3.657   3.636   0.099  0.00  0.00    +0.038 A 
ATOM     16  C   UNL     1       4.735   4.310   0.677  0.00  0.00    +0.027 A 
ATOM     17  C   UNL     1       4.721   5.688   0.755  0.00  0.00    +0.014 A 
ATOM     18  C   UNL     1       3.642   6.401   0.261  0.00  0.00    +0.014 A 
ATOM     19  I   UNL     1       6.336   6.702   1.622  0.00  0.00    -0.044 I 
ENDBRANCH   1  15
BRANCH  10  20
ATOM     20  N   UNL     1       2.534  -2.722   0.210  0.00  0.00    -0.358 N 
ATOM     21  H   UNL     1       1.708  -2.256   0.416  0.00  0.00    +0.142 HD
ATOM     22  H   UNL     1       2.554  -3.691   0.204  0.00  0.00    +0.142 HD
ENDBRANCH  10  20
TORSDOF 2
