REMARK  Name = ZINC15899399
REMARK  12 active torsions:
REMARK  status: ('A' for Active; 'I' for Inactive)
REMARK    1  A    between atoms: C_1  and  O_2
REMARK    2  A    between atoms: O_2  and  C_3
REMARK    3  A    between atoms: C_8  and  N_9
REMARK    4  A    between atoms: N_9  and  S_10
REMARK    5  A    between atoms: S_10  and  C_13
REMARK    6  A    between atoms: C_16  and  C_19
REMARK    7  A    between atoms: C_20  and  C_21
REMARK    8  A    between atoms: N_23  and  N_24
REMARK    9  A    between atoms: N_24  and  C_25
REMARK   10  A    between atoms: C_25  and  N_27
REMARK   11  A    between atoms: N_27  and  C_28
REMARK   12  A    between atoms: C_28  and  C_29
REMARK                            x       y       z     vdW  Elec       q    Type
REMARK                         _______ _______ _______ _____ _____    ______ ____
ROOT
ATOM      1  C   UNL     1      -3.440  -0.719   2.487  0.00  0.00    +0.109 A 
ATOM      2  C   UNL     1      -2.812  -1.799   3.083  0.00  0.00    +0.029 A 
ATOM      3  C   UNL     1      -2.571  -1.798   4.440  0.00  0.00    +0.010 A 
ATOM      4  C   UNL     1      -2.973  -0.707   5.217  0.00  0.00    -0.025 A 
ATOM      5  C   UNL     1      -3.611   0.378   4.609  0.00  0.00    +0.010 A 
ATOM      6  C   UNL     1      -3.840   0.365   3.249  0.00  0.00    +0.029 A 
ENDROOT
BRANCH   1   7
ATOM      7  S   UNL     1      -3.737  -0.726   0.750  0.00  0.00    +0.072 S 
ATOM      8  O   UNL     1      -4.830   0.153   0.522  0.00  0.00    -0.150 OA
ATOM      9  O   UNL     1      -3.759  -2.089   0.348  0.00  0.00    -0.150 OA
BRANCH   7  10
ATOM     10  N   UNL     1      -2.417  -0.039   0.024  0.00  0.00    -0.213 N 
ATOM     11  H   UNL     1      -2.520   0.765  -0.508  0.00  0.00    +0.174 HD
BRANCH  10  17
ATOM     12  C   UNL     1      -0.021   0.188   0.267  0.00  0.00    +0.142 A 
ATOM     13  C   UNL     1       1.229  -0.391   0.413  0.00  0.00    +0.047 A 
ATOM     14  C   UNL     1       1.350  -1.767   0.483  0.00  0.00    +0.004 A 
ATOM     15  C   UNL     1       0.227  -2.568   0.397  0.00  0.00    +0.002 A 
ATOM     16  C   UNL     1      -1.023  -1.998   0.245  0.00  0.00    +0.028 A 
ATOM     17  C   UNL     1      -1.153  -0.619   0.179  0.00  0.00    +0.090 A 
BRANCH  12  19
ATOM     18  C   UNL     1       1.063   2.305   0.299  0.00  0.00    +0.277 C 
ATOM     19  O   UNL     1      -0.141   1.542   0.202  0.00  0.00    -0.493 OA
ENDBRANCH  12  19
ENDBRANCH  10  17
ENDBRANCH   7  10
ENDBRANCH   1   7
BRANCH   4  20
ATOM     20  C   UNL     1      -2.724  -0.701   6.668  0.00  0.00    +0.013 C 
ATOM     21  C   UNL     1      -2.109  -1.749   7.251  0.00  0.00    +0.069 C 
BRANCH  21  22
ATOM     22  C   UNL     1      -1.861  -1.743   8.694  0.00  0.00    +0.253 C 
ATOM     23  O   UNL     1      -2.212  -0.791   9.368  0.00  0.00    -0.269 OA
ATOM     24  N   UNL     1      -1.246  -2.791   9.277  0.00  0.00    -0.232 N 
ATOM     25  H   UNL     1      -0.967  -3.549   8.741  0.00  0.00    +0.173 HD
BRANCH  24  26
ATOM     26  N   UNL     1      -1.009  -2.785  10.658  0.00  0.00    -0.246 N 
ATOM     27  H   UNL     1      -1.288  -2.026  11.195  0.00  0.00    +0.172 HD
BRANCH  26  28
ATOM     28  C   UNL     1      -0.394  -3.833  11.241  0.00  0.00    +0.147 C 
ATOM     29  S   UNL     1      -0.104  -3.825  12.928  0.00  0.00    -0.017 S 
BRANCH  28  30
ATOM     30  N   UNL     1      -0.006  -4.886  10.495  0.00  0.00    -0.323 N 
ATOM     31  H   UNL     1      -0.170  -4.890   9.539  0.00  0.00    +0.148 HD
BRANCH  30  32
ATOM     32  C   UNL     1       0.663  -6.025  11.129  0.00  0.00    +0.134 C 
BRANCH  32  33
ATOM     33  C   UNL     1       0.995  -7.076  10.068  0.00  0.00    +0.135 C 
ATOM     34  C   UNL     1       1.700  -8.279  10.724  0.00  0.00    +0.035 C 
ATOM     35  C   UNL     1       0.789  -9.484  10.385  0.00  0.00    +0.031 C 
ATOM     36  C   UNL     1      -0.001  -8.959   9.159  0.00  0.00    +0.160 C 
ATOM     37  O   UNL     1      -0.216  -7.565   9.469  0.00  0.00    -0.375 OA
ENDBRANCH  32  33
ENDBRANCH  30  32
ENDBRANCH  28  30
ENDBRANCH  26  28
ENDBRANCH  24  26
ENDBRANCH  21  22
ENDBRANCH   4  20
TORSDOF 11
