REMARK  Name = ZINC01453443
REMARK  10 active torsions:
REMARK  status: ('A' for Active; 'I' for Inactive)
REMARK    1  A    between atoms: C_1  and  C_2
REMARK    2  A    between atoms: C_3  and  C_31
REMARK    3  A    between atoms: C_5  and  N_11
REMARK    4  A    between atoms: C_6  and  C_7
REMARK    5  A    between atoms: C_7  and  O_9
REMARK    6  A    between atoms: O_9  and  C_10
REMARK    7  A    between atoms: C_12  and  C_14
REMARK    8  A    between atoms: C_14  and  C_29
REMARK    9  A    between atoms: C_15  and  C_16
REMARK   10  A    between atoms: C_19  and  C_21
REMARK                            x       y       z     vdW  Elec       q    Type
REMARK                         _______ _______ _______ _____ _____    ______ ____
ROOT
ATOM      1  C   UNL     1      -2.399  -0.293   0.024  0.00  0.00    +0.117 C 
ATOM      2  C   UNL     1      -1.123  -0.843   0.008  0.00  0.00    +0.070 C 
ENDROOT
BRANCH   2   3
ATOM      3  C   UNL     1       0.002  -0.004   0.002  0.00  0.00    +0.130 A 
ATOM      4  C   UNL     1       1.327  -0.419  -0.013  0.00  0.00    +0.050 A 
ATOM      5  C   UNL     1       2.110   0.734  -0.014  0.00  0.00    +0.050 A 
ATOM      6  C   UNL     1       1.246   1.810  -0.000  0.00  0.00    +0.137 A 
ATOM      7  O   UNL     1      -0.016   1.346   0.009  0.00  0.00    -0.455 OA
BRANCH   6   8
ATOM      8  C   UNL     1       1.640   3.231   0.003  0.00  0.00    +0.036 A 
ATOM      9  C   UNL     1       2.582   3.696   0.926  0.00  0.00    +0.014 A 
ATOM     10  C   UNL     1       2.950   5.024   0.920  0.00  0.00    +0.021 A 
ATOM     11  C   UNL     1       2.382   5.901   0.010  0.00  0.00    +0.042 A 
ATOM     12  C   UNL     1       1.445   5.449  -0.904  0.00  0.00    +0.040 A 
ATOM     13  C   UNL     1       1.071   4.120  -0.913  0.00  0.00    +0.053 A 
ATOM     14 CL   UNL     1      -0.105   3.555  -2.059  0.00  0.00    -0.083 Cl
ATOM     15 CL   UNL     1       2.847   7.573   0.015  0.00  0.00    -0.083 Cl
ENDBRANCH   6   8
ENDBRANCH   2   3
BRANCH   1  17
ATOM     16  N   UNL     1      -4.813  -0.637   0.046  0.00  0.00    -0.275 N 
ATOM     17  C   UNL     1      -3.575  -1.170   0.030  0.00  0.00    +0.259 C 
ATOM     18  O   UNL     1      -3.433  -2.379   0.022  0.00  0.00    -0.269 OA
ATOM     19  H   UNL     1      -4.926   0.326   0.052  0.00  0.00    +0.156 HD
BRANCH  16  24
ATOM     20  C   UNL     1      -9.709  -1.922   0.087  0.00  0.00    +0.045 C 
ATOM     21  C   UNL     1      -8.225  -2.187   0.070  0.00  0.00    -0.025 A 
ATOM     22  C   UNL     1      -7.738  -3.441   0.058  0.00  0.00    -0.008 A 
ATOM     23  S   UNL     1      -5.974  -3.195   0.035  0.00  0.00    -0.078 S 
ATOM     24  C   UNL     1      -5.923  -1.464   0.052  0.00  0.00    +0.087 A 
ATOM     25  C   UNL     1      -7.267  -1.107   0.067  0.00  0.00    +0.091 A 
ATOM     26  C   UNL     1      -8.501  -4.740   0.058  0.00  0.00    +0.052 C 
BRANCH  25  27
ATOM     27  C   UNL     1      -7.690   0.295   0.080  0.00  0.00    +0.342 C 
ATOM     28  O   UNL     1      -7.876   0.883  -0.969  0.00  0.00    -0.245 OA
BRANCH  27  29
ATOM     29  O   UNL     1      -7.872   0.934   1.254  0.00  0.00    -0.464 OA
ATOM     30  C   UNL     1      -8.291   2.322   1.190  0.00  0.00    +0.280 C 
ENDBRANCH  27  29
ENDBRANCH  25  27
ENDBRANCH  16  24
ENDBRANCH   1  17
BRANCH   1  31
ATOM     31  C   UNL     1      -2.566   1.129   0.034  0.00  0.00    +0.104 C 
ATOM     32  N   UNL     1      -2.698   2.257   0.041  0.00  0.00    -0.191 NA
ENDBRANCH   1  31
TORSDOF 7
