REMARK  Name = ZINC38601446
REMARK  8 active torsions:
REMARK  status: ('A' for Active; 'I' for Inactive)
REMARK    1  A    between atoms: C_1  and  C_2
REMARK    2  A    between atoms: C_2  and  C_4
REMARK    3  A    between atoms: C_2  and  N_24
REMARK    4  A    between atoms: C_4  and  C_6
REMARK    5  A    between atoms: C_4  and  N_11
REMARK    6  A    between atoms: N_14  and  C_17
REMARK    7  A    between atoms: C_17  and  C_18
REMARK    8  A    between atoms: C_25  and  C_27
REMARK                            x       y       z     vdW  Elec       q    Type
REMARK                         _______ _______ _______ _____ _____    ______ ____
ROOT
ATOM      1  C   UNL     1      -1.427  -0.534   0.139  0.00  0.00    +0.113 C 
ENDROOT
BRANCH   1   2
ATOM      2  N   UNL     1      -2.433  -0.078  -0.829  0.00  0.00    -0.297 NA
ATOM      3  C   UNL     1      -3.730  -0.724  -0.584  0.00  0.00    +0.066 C 
ATOM      4  C   UNL     1      -4.763  -0.178  -1.573  0.00  0.00    -0.063 C 
ATOM      5  N   UNL     1      -4.316  -0.446  -2.946  0.00  0.00    +0.384 N 
ATOM      6  C   UNL     1      -3.031   0.226  -3.184  0.00  0.00    -0.063 C 
ATOM      7  C   UNL     1      -1.984  -0.316  -2.208  0.00  0.00    +0.066 C 
ATOM      8  H   UNL     1      -4.204  -1.440  -3.075  0.00  0.00    -0.081 HD
BRANCH   5   9
ATOM      9  C   UNL     1      -5.316   0.062  -3.895  0.00  0.00    -0.043 C 
BRANCH   9  10
ATOM     10  C   UNL     1      -4.918  -0.320  -5.297  0.00  0.00    -0.064 A 
ATOM     11  C   UNL     1      -4.114   0.523  -6.041  0.00  0.00    +0.002 A 
ATOM     12  C   UNL     1      -3.749   0.173  -7.328  0.00  0.00    +0.000 A 
ATOM     13  C   UNL     1      -4.187  -1.021  -7.869  0.00  0.00    +0.000 A 
ATOM     14  C   UNL     1      -4.990  -1.865  -7.125  0.00  0.00    +0.000 A 
ATOM     15  C   UNL     1      -5.351  -1.516  -5.837  0.00  0.00    +0.002 A 
ENDBRANCH   9  10
ENDBRANCH   5   9
ENDBRANCH   1   2
BRANCH   1  16
ATOM     16  C   UNL     1      -1.919  -0.270   1.538  0.00  0.00    +0.009 A 
ATOM     17  C   UNL     1      -1.821  -1.054   2.640  0.00  0.00    +0.013 A 
ATOM     18  C   UNL     1      -2.352  -0.602   3.833  0.00  0.00    +0.008 A 
ATOM     19  C   UNL     1      -2.955   0.612   3.867  0.00  0.00    +0.045 A 
ATOM     20  S   UNL     1      -2.777   1.159   2.177  0.00  0.00    -0.100 S 
ENDBRANCH   1  16
BRANCH   1  22
ATOM     21  C   UNL     1      -0.379   1.728  -0.022  0.00  0.00    +0.030 C 
ATOM     22  C   UNL     1      -0.117   0.223  -0.092  0.00  0.00    +0.092 C 
BRANCH  22  23
ATOM     23  N   UNL     1       0.853  -0.153   0.940  0.00  0.00    -0.307 N 
ATOM     24  C   UNL     1       2.173  -0.043   0.696  0.00  0.00    +0.251 C 
ATOM     25  O   UNL     1       2.560   0.369  -0.382  0.00  0.00    -0.270 OA
ATOM     26  H   UNL     1       0.544  -0.481   1.799  0.00  0.00    +0.149 HD
BRANCH  24  27
ATOM     27  C   UNL     1       3.148  -0.421   1.733  0.00  0.00    +0.122 A 
ATOM     28  C   UNL     1       4.514  -0.312   1.513  0.00  0.00    +0.031 A 
ATOM     29  C   UNL     1       5.392  -0.726   2.548  0.00  0.00    +0.018 A 
ATOM     30  C   UNL     1       6.766  -0.457   2.466  0.00  0.00    +0.011 A 
ATOM     31  C   UNL     1       7.591  -0.824   3.490  0.00  0.00    +0.001 A 
ATOM     32  C   UNL     1       7.084  -1.468   4.610  0.00  0.00    +0.004 A 
ATOM     33  C   UNL     1       5.739  -1.761   4.703  0.00  0.00    +0.047 A 
ATOM     34  C   UNL     1       4.881  -1.403   3.671  0.00  0.00    +0.139 A 
ATOM     35  O   UNL     1       3.566  -1.723   3.731  0.00  0.00    -0.422 OA
ATOM     36  C   UNL     1       2.711  -0.923   3.048  0.00  0.00    +0.350 A 
ATOM     37  O   UNL     1       1.620  -0.632   3.502  0.00  0.00    -0.244 OA
ENDBRANCH  24  27
ENDBRANCH  22  23
ENDBRANCH   1  22
TORSDOF 7
