REMARK  Name = ZINC04720283
REMARK  11 active torsions:
REMARK  status: ('A' for Active; 'I' for Inactive)
REMARK    1  A    between atoms: C_1  and  C_2
REMARK    2  A    between atoms: C_2  and  C_3
REMARK    3  A    between atoms: C_3  and  C_4
REMARK    4  A    between atoms: C_4  and  C_5
REMARK    5  A    between atoms: C_5  and  C_6
REMARK    6  A    between atoms: C_6  and  O_8
REMARK    7  A    between atoms: O_8  and  C_9
REMARK    8  A    between atoms: C_12  and  C_15
REMARK    9  A    between atoms: C_16  and  N_25
REMARK   10  A    between atoms: C_20  and  C_24
REMARK   11  A    between atoms: N_25  and  C_26
REMARK                            x       y       z     vdW  Elec       q    Type
REMARK                         _______ _______ _______ _____ _____    ______ ____
ROOT
ATOM      1  C   UNL     1       2.385 -10.303  -3.583  0.00  0.00    +0.087 A 
ATOM      2  C   UNL     1       3.523 -11.037  -3.843  0.00  0.00    +0.129 A 
ATOM      3  N   UNL     1       3.199 -12.351  -3.649  0.00  0.00    -0.289 N 
ATOM      4  C   UNL     1       3.926 -13.506  -3.760  0.00  0.00    +0.094 A 
ATOM      5  C   UNL     1       3.358 -14.702  -3.507  0.00  0.00    +0.021 A 
ATOM      6  C   UNL     1       2.007 -14.780  -3.124  0.00  0.00    -0.046 A 
ATOM      7  C   UNL     1       1.271 -13.643  -3.009  0.00  0.00    +0.048 A 
ATOM      8  C   UNL     1       1.875 -12.396  -3.276  0.00  0.00    +0.117 A 
ATOM      9  N   UNL     1       1.407 -11.159  -3.237  0.00  0.00    -0.338 N 
ATOM     10  C   UNL     1       1.377 -16.119  -2.843  0.00  0.00    +0.044 C 
ATOM     11  H   UNL     1       0.500 -10.910  -2.999  0.00  0.00    +0.167 HD
ENDROOT
BRANCH   1  15
ATOM     12  C   UNL     1       2.035  -6.072  -3.816  0.00  0.00    +0.132 A 
ATOM     13  C   UNL     1       1.508  -6.751  -2.727  0.00  0.00    +0.047 A 
ATOM     14  C   UNL     1       1.620  -8.123  -2.648  0.00  0.00    +0.013 A 
ATOM     15  C   UNL     1       2.263  -8.829  -3.665  0.00  0.00    +0.002 A 
ATOM     16  C   UNL     1       2.791  -8.143  -4.758  0.00  0.00    +0.013 A 
ATOM     17  C   UNL     1       2.671  -6.771  -4.833  0.00  0.00    +0.047 A 
BRANCH  12  18
ATOM     18  O   UNL     1       1.923  -4.719  -3.891  0.00  0.00    -0.426 OA
BRANCH  18  19
ATOM     19  C   UNL     1       2.733  -3.976  -3.119  0.00  0.00    +0.312 C 
ATOM     20  O   UNL     1       3.466  -4.512  -2.322  0.00  0.00    -0.250 OA
BRANCH  19  21
ATOM     21  C   UNL     1       2.726  -2.474  -3.246  0.00  0.00    +0.121 C 
BRANCH  21  22
ATOM     22  C   UNL     1       3.732  -1.875  -2.261  0.00  0.00    +0.011 C 
BRANCH  22  23
ATOM     23  C   UNL     1       3.725  -0.350  -2.391  0.00  0.00    +0.000 C 
BRANCH  23  25
ATOM     24  C   UNL     1       4.724   1.774  -1.536  0.00  0.00    +0.004 C 
ATOM     25  C   UNL     1       4.731   0.249  -1.406  0.00  0.00    -0.003 C 
ENDBRANCH  23  25
ENDBRANCH  22  23
ENDBRANCH  21  22
ENDBRANCH  19  21
ENDBRANCH  18  19
ENDBRANCH  12  18
ENDBRANCH   1  15
BRANCH   2  26
ATOM     26  N   UNL     1       4.767 -10.535  -4.230  0.00  0.00    -0.326 N 
ATOM     27  H   UNL     1       4.915  -9.577  -4.258  0.00  0.00    +0.148 HD
BRANCH  26  28
ATOM     28  C   UNL     1       5.847 -11.455  -4.594  0.00  0.00    +0.072 C 
ATOM     29  C   UNL     1       6.576 -11.912  -3.328  0.00  0.00    +0.022 C 
ATOM     30  C   UNL     1       7.704 -12.873  -3.708  0.00  0.00    +0.002 C 
ATOM     31  C   UNL     1       8.690 -12.160  -4.635  0.00  0.00    +0.000 C 
ATOM     32  C   UNL     1       7.962 -11.704  -5.901  0.00  0.00    +0.002 C 
ATOM     33  C   UNL     1       6.833 -10.743  -5.521  0.00  0.00    +0.022 C 
ENDBRANCH  26  28
ENDBRANCH   2  26
TORSDOF 9
