REMARK  Name = ZINC16287089
REMARK  7 active torsions:
REMARK  status: ('A' for Active; 'I' for Inactive)
REMARK    1  A    between atoms: C_1  and  C_2
REMARK    2  A    between atoms: C_2  and  C_4
REMARK    3  A    between atoms: C_2  and  N_14
REMARK    4  A    between atoms: C_15  and  C_17
REMARK    5  A    between atoms: C_17  and  N_18
REMARK    6  A    between atoms: C_21  and  C_25
REMARK    7  A    between atoms: C_21  and  C_26
REMARK                            x       y       z     vdW  Elec       q    Type
REMARK                         _______ _______ _______ _____ _____    ______ ____
ROOT
ATOM      1  C   UNL     1      -3.047  -2.261   0.512  0.00  0.00    +0.213 C 
ENDROOT
BRANCH   1   2
ATOM      2  N   UNL     1      -3.067  -3.608   1.089  0.00  0.00    -0.215 N 
ATOM      3  C   UNL     1      -3.230  -3.867   2.401  0.00  0.00    +0.251 C 
ATOM      4  O   UNL     1      -3.382  -3.060   3.294  0.00  0.00    -0.272 OA
ATOM      5  C   UNL     1      -3.184  -5.377   2.530  0.00  0.00    +0.135 C 
ATOM      6  N   UNL     1      -2.981  -5.836   1.145  0.00  0.00    -0.281 N 
ATOM      7  C   UNL     1      -2.930  -4.732   0.377  0.00  0.00    +0.310 C 
ATOM      8  O   UNL     1      -2.774  -4.754  -0.828  0.00  0.00    -0.252 OA
ATOM      9  C   UNL     1      -2.013  -5.806   3.416  0.00  0.00    +0.047 C 
ATOM     10  H   UNL     1      -2.902  -6.755   0.845  0.00  0.00    +0.152 HD
BRANCH   5  11
ATOM     11  C   UNL     1      -4.486  -5.902   3.077  0.00  0.00    -0.015 A 
ATOM     12  C   UNL     1      -5.238  -5.124   3.937  0.00  0.00    +0.007 A 
ATOM     13  C   UNL     1      -6.435  -5.604   4.436  0.00  0.00    +0.015 A 
ATOM     14  C   UNL     1      -6.875  -6.867   4.082  0.00  0.00    +0.018 A 
ATOM     15  C   UNL     1      -6.119  -7.647   3.225  0.00  0.00    +0.015 A 
ATOM     16  C   UNL     1      -4.925  -7.165   2.723  0.00  0.00    +0.007 A 
ATOM     17 BR   UNL     1      -8.508  -7.527   4.769  0.00  0.00    -0.050 Br
ENDBRANCH   5  11
ENDBRANCH   1   2
BRANCH   1  19
ATOM     18  N   UNL     1      -1.372  -0.511   0.012  0.00  0.00    -0.311 N 
ATOM     19  C   UNL     1      -1.634  -1.740   0.502  0.00  0.00    +0.231 C 
ATOM     20  O   UNL     1      -0.731  -2.425   0.933  0.00  0.00    -0.274 OA
ATOM     21  H   UNL     1      -2.094   0.037  -0.333  0.00  0.00    +0.149 HD
BRANCH  18  23
ATOM     22  C   UNL     1       0.718  -0.497  -1.257  0.00  0.00    +0.028 C 
ATOM     23  C   UNL     1       0.002  -0.004   0.002  0.00  0.00    +0.076 C 
BRANCH  23  24
ATOM     24  C   UNL     1      -0.019   1.526   0.010  0.00  0.00    -0.010 C 
ATOM     25  C   UNL     1      -0.735   2.019   1.269  0.00  0.00    +0.012 C 
ATOM     26  C   UNL     1      -0.756   3.549   1.278  0.00  0.00    -0.010 C 
ATOM     27  C   UNL     1       0.680   4.079   1.267  0.00  0.00    +0.007 C 
ATOM     28  C   UNL     1       1.396   3.585   0.008  0.00  0.00    -0.010 C 
ATOM     29  C   UNL     1       1.417   2.055  -0.000  0.00  0.00    +0.012 C 
ATOM     30  C   UNL     1       0.656   4.092  -1.232  0.00  0.00    +0.007 C 
ATOM     31  C   UNL     1      -0.779   3.562  -1.221  0.00  0.00    -0.010 C 
ATOM     32  C   UNL     1      -1.496   4.056   0.038  0.00  0.00    +0.007 C 
ATOM     33  C   UNL     1      -0.759   2.033  -1.229  0.00  0.00    +0.012 C 
ENDBRANCH  23  24
ENDBRANCH  18  23
ENDBRANCH   1  19
TORSDOF 5
