REMARK  Name = ZINC35671338
REMARK  4 active torsions:
REMARK  status: ('A' for Active; 'I' for Inactive)
REMARK    1  A    between atoms: C_5  and  C_7
REMARK    2  A    between atoms: C_7  and  C_9
REMARK    3  A    between atoms: C_7  and  N_25
REMARK    4  A    between atoms: C_9  and  N_10
REMARK                            x       y       z     vdW  Elec       q    Type
REMARK                         _______ _______ _______ _____ _____    ______ ____
ROOT
ATOM      1  C   UNL     1       1.450  -2.485   1.362  0.00  0.00    +0.116 C 
ENDROOT
BRANCH   1   2
ATOM      2  N   UNL     1       2.830  -2.178   1.746  0.00  0.00    -0.300 N 
ATOM      3  C   UNL     1       3.819  -3.087   1.536  0.00  0.00    +0.202 A 
ATOM      4  N   UNL     1       5.055  -2.876   1.854  0.00  0.00    -0.235 NA
ATOM      5  C   UNL     1       5.464  -1.699   2.436  0.00  0.00    +0.107 A 
ATOM      6  C   UNL     1       6.771  -1.345   2.829  0.00  0.00    +0.081 A 
ATOM      7  C   UNL     1       6.935  -0.103   3.397  0.00  0.00    +0.070 A 
ATOM      8  S   UNL     1       5.324   0.616   3.407  0.00  0.00    -0.073 S 
ATOM      9  C   UNL     1       4.456  -0.743   2.662  0.00  0.00    +0.105 A 
ATOM     10  C   UNL     1       3.133  -0.985   2.310  0.00  0.00    +0.268 A 
ATOM     11  O   UNL     1       2.268  -0.146   2.507  0.00  0.00    -0.266 OA
ATOM     12  S   UNL     1       8.463   0.542   3.965  0.00  0.00    -0.107 S 
ATOM     13  C   UNL     1       9.389  -0.989   4.318  0.00  0.00    +0.171 C 
ATOM     14  C   UNL     1       9.075  -2.008   3.260  0.00  0.00    +0.227 C 
ATOM     15  O   UNL     1       9.984  -2.733   2.915  0.00  0.00    -0.275 OA
ATOM     16  N   UNL     1       7.901  -2.195   2.663  0.00  0.00    -0.282 N 
ATOM     17  H   UNL     1       7.809  -2.962   2.076  0.00  0.00    +0.155 HD
ENDBRANCH   1   2
BRANCH   1  18
ATOM     18  C   UNL     1       1.248  -2.155  -0.119  0.00  0.00    -0.016 C 
BRANCH  18  19
ATOM     19  N   UNL     1      -0.111  -2.538  -0.525  0.00  0.00    +0.385 N 
ATOM     20  C   UNL     1      -0.291  -3.981  -0.275  0.00  0.00    -0.078 C 
ATOM     21  C   UNL     1      -1.765  -4.251  -0.102  0.00  0.00    -0.019 C 
ATOM     22  C   UNL     1      -2.409  -4.724  -1.419  0.00  0.00    -0.002 C 
ATOM     23  C   UNL     1      -1.878  -3.934  -2.632  0.00  0.00    -0.002 C 
ATOM     24  C   UNL     1      -1.736  -2.462  -2.341  0.00  0.00    -0.019 C 
ATOM     25  C   UNL     1      -0.296  -2.180  -1.861  0.00  0.00    -0.078 C 
ATOM     26  H   UNL     1      -0.773  -2.028   0.042  0.00  0.00    -0.081 HD
ENDBRANCH  18  19
BRANCH  18  31
ATOM     27  C   UNL     1       0.521   1.526  -0.537  0.00  0.00    +0.000 A 
ATOM     28  C   UNL     1       1.790   2.038  -0.733  0.00  0.00    +0.001 A 
ATOM     29  C   UNL     1       2.885   1.194  -0.730  0.00  0.00    +0.020 A 
ATOM     30  C   UNL     1       2.710  -0.164  -0.531  0.00  0.00    +0.043 A 
ATOM     31  C   UNL     1       1.440  -0.676  -0.335  0.00  0.00    -0.041 A 
ATOM     32  C   UNL     1       0.346   0.169  -0.339  0.00  0.00    +0.003 A 
ATOM     33 CL   UNL     1       4.083  -1.226  -0.528  0.00  0.00    -0.083 Cl
ENDBRANCH  18  31
ENDBRANCH   1  18
TORSDOF 4
