REMARK  Name = ZINC09111254
REMARK  4 active torsions:
REMARK  status: ('A' for Active; 'I' for Inactive)
REMARK    1  A    between atoms: C_1  and  C_2
REMARK    2  A    between atoms: C_2  and  C_4
REMARK    3  A    between atoms: C_2  and  N_10
REMARK    4  A    between atoms: N_25  and  C_27
REMARK                            x       y       z     vdW  Elec       q    Type
REMARK                         _______ _______ _______ _____ _____    ______ ____
ROOT
ATOM      1  N   UNL     1       0.824  -0.418   1.201  0.00  0.00    -0.218 N 
ATOM      2  C   UNL     1       0.337  -1.280   2.105  0.00  0.00    +0.240 C 
ATOM      3  O   UNL     1      -0.755  -1.773   1.919  0.00  0.00    -0.274 OA
ATOM      4  C   UNL     1       1.105  -1.652   3.342  0.00  0.00    +0.143 C 
ATOM      5  C   UNL     1       1.339  -3.163   3.365  0.00  0.00    +0.064 C 
ATOM      6  C   UNL     1       0.038  -3.896   3.560  0.00  0.00    -0.017 A 
ATOM      7  C   UNL     1      -0.048  -5.247   3.174  0.00  0.00    -0.013 A 
ATOM      8  C   UNL     1       1.057  -5.909   2.609  0.00  0.00    +0.009 A 
ATOM      9  C   UNL     1       0.945  -7.215   2.243  0.00  0.00    +0.001 A 
ATOM     10  C   UNL     1      -0.251  -7.909   2.420  0.00  0.00    +0.001 A 
ATOM     11  C   UNL     1      -1.340  -7.301   2.965  0.00  0.00    +0.008 A 
ATOM     12  C   UNL     1      -1.262  -5.953   3.355  0.00  0.00    -0.018 A 
ATOM     13  C   UNL     1      -2.367  -5.295   3.921  0.00  0.00    +0.010 A 
ATOM     14  C   UNL     1      -2.262  -3.991   4.284  0.00  0.00    +0.024 A 
ATOM     15  C   UNL     1      -1.065  -3.281   4.104  0.00  0.00    +0.033 A 
ATOM     16  N   UNL     1      -1.018  -1.934   4.483  0.00  0.00    -0.331 N 
ATOM     17  C   UNL     1       0.286  -1.266   4.582  0.00  0.00    +0.130 C 
ATOM     18  C   UNL     1      -2.252  -1.202   4.776  0.00  0.00    +0.129 C 
ATOM     19  C   UNL     1       2.427  -0.938   3.379  0.00  0.00    +0.237 C 
ATOM     20  N   UNL     1       2.805  -0.094   2.409  0.00  0.00    -0.239 N 
ATOM     21  C   UNL     1       2.028   0.157   1.344  0.00  0.00    +0.315 C 
ATOM     22  O   UNL     1       2.422   0.927   0.491  0.00  0.00    -0.252 OA
ATOM     23  O   UNL     1       3.173  -1.130   4.315  0.00  0.00    -0.274 OA
ATOM     24  H   UNL     1       3.667   0.345   2.476  0.00  0.00    +0.159 HD
ENDROOT
BRANCH   1  26
ATOM     25  C   UNL     1      -0.337   1.389   0.030  0.00  0.00    +0.034 C 
ATOM     26  C   UNL     1       0.020  -0.099   0.018  0.00  0.00    +0.112 C 
BRANCH  26  27
ATOM     27  C   UNL     1       0.809  -0.417  -1.226  0.00  0.00    -0.027 A 
ATOM     28  C   UNL     1       1.633  -1.526  -1.258  0.00  0.00    +0.005 A 
ATOM     29  C   UNL     1       2.356  -1.818  -2.399  0.00  0.00    +0.000 A 
ATOM     30  C   UNL     1       2.256  -0.999  -3.508  0.00  0.00    +0.000 A 
ATOM     31  C   UNL     1       1.432   0.110  -3.477  0.00  0.00    +0.000 A 
ATOM     32  C   UNL     1       0.705   0.399  -2.337  0.00  0.00    +0.005 A 
ENDBRANCH  26  27
ENDBRANCH   1  26
TORSDOF 2
