REMARK  Name = ZINC64678866
REMARK  6 active torsions:
REMARK  status: ('A' for Active; 'I' for Inactive)
REMARK    1  A    between atoms: C_1  and  N_2
REMARK    2  A    between atoms: N_2  and  C_3
REMARK    3  A    between atoms: C_3  and  C_4
REMARK    4  A    between atoms: C_4  and  C_5
REMARK    5  A    between atoms: C_8  and  C_11
REMARK    6  A    between atoms: C_22  and  C_24
REMARK                            x       y       z     vdW  Elec       q    Type
REMARK                         _______ _______ _______ _____ _____    ______ ____
ROOT
ATOM      1  C   UNL     1      -0.615  -1.520   3.279  0.00  0.00    +0.139 C 
ATOM      2  N   UNL     1       0.425  -2.198   3.602  0.00  0.00    -0.072 NA
ATOM      3  O   UNL     1       0.248  -2.833   4.854  0.00  0.00    -0.367 OA
ATOM      4  C   UNL     1      -1.065  -2.471   5.309  0.00  0.00    +0.318 C 
ATOM      5  N   UNL     1      -1.592  -1.604   4.243  0.00  0.00    -0.291 N 
ATOM      6  H   UNL     1      -2.462  -1.175   4.224  0.00  0.00    +0.151 HD
ENDROOT
BRANCH   4   7
ATOM      7  C   UNL     1      -1.937  -3.718   5.473  0.00  0.00    +0.165 C 
ATOM      8  C   UNL     1      -3.311  -3.332   5.973  0.00  0.00    +0.012 C 
ATOM      9  C   UNL     1      -3.465  -3.954   7.164  0.00  0.00    -0.002 A 
ATOM     10  C   UNL     1      -4.563  -3.981   8.137  0.00  0.00    +0.029 A 
ATOM     11  C   UNL     1      -4.422  -4.714   9.266  0.00  0.00    +0.042 A 
ATOM     12  C   UNL     1      -3.254  -5.446   9.529  0.00  0.00    +0.022 A 
ATOM     13  C   UNL     1      -2.203  -5.470   8.682  0.00  0.00    +0.027 A 
ATOM     14  C   UNL     1      -2.244  -4.736   7.465  0.00  0.00    +0.043 A 
ATOM     15  N   UNL     1      -1.368  -4.602   6.496  0.00  0.00    -0.373 N 
ATOM     16 CL   UNL     1      -5.718  -4.748  10.420  0.00  0.00    -0.084 Cl
ATOM     17  H   UNL     1      -0.492  -5.017   6.462  0.00  0.00    +0.160 HD
ENDBRANCH   4   7
BRANCH   1  18
ATOM     18  C   UNL     1      -0.747  -0.725   2.005  0.00  0.00    +0.094 C 
BRANCH  18  19
ATOM     19  C   UNL     1       0.534  -0.867   1.181  0.00  0.00    +0.115 C 
BRANCH  19  21
ATOM     20  C   UNL     1       0.830   1.308  -0.093  0.00  0.00    +0.132 C 
ATOM     21  N   UNL     1       0.406  -0.094  -0.057  0.00  0.00    -0.300 N 
ATOM     22  C   UNL     1      -0.102  -0.673  -1.163  0.00  0.00    +0.248 C 
ATOM     23  O   UNL     1      -0.541  -1.805  -1.110  0.00  0.00    -0.270 OA
BRANCH  22  24
ATOM     24  C   UNL     1      -0.124   0.068  -2.441  0.00  0.00    +0.055 A 
ATOM     25  C   UNL     1       0.997   0.793  -2.852  0.00  0.00    +0.014 A 
ATOM     26  C   UNL     1       0.970   1.482  -4.046  0.00  0.00    +0.001 A 
ATOM     27  C   UNL     1      -0.166   1.458  -4.838  0.00  0.00    +0.001 A 
ATOM     28  C   UNL     1      -1.280   0.743  -4.438  0.00  0.00    +0.021 A 
ATOM     29  C   UNL     1      -1.265   0.043  -3.248  0.00  0.00    +0.053 A 
ATOM     30 CL   UNL     1      -2.661  -0.861  -2.751  0.00  0.00    -0.083 Cl
ENDBRANCH  22  24
ENDBRANCH  19  21
ENDBRANCH  18  19
ENDBRANCH   1  18
TORSDOF 5
