REMARK  Name = ZINC07986157
REMARK  7 active torsions:
REMARK  status: ('A' for Active; 'I' for Inactive)
REMARK    1  A    between atoms: C_1  and  C_2
REMARK    2  A    between atoms: C_2  and  C_4
REMARK    3  A    between atoms: C_9  and  N_10
REMARK    4  A    between atoms: C_11  and  C_13
REMARK    5  A    between atoms: C_13  and  C_15
REMARK    6  A    between atoms: C_13  and  S_21
REMARK    7  A    between atoms: S_21  and  C_22
REMARK                            x       y       z     vdW  Elec       q    Type
REMARK                         _______ _______ _______ _____ _____    ______ ____
ROOT
ATOM      1  N   UNL     1       2.134   4.066  -0.074  0.00  0.00    -0.284 N 
ATOM      2  C   UNL     1       1.960   5.401  -0.003  0.00  0.00    +0.235 C 
ATOM      3  O   UNL     1       0.854   5.859   0.188  0.00  0.00    -0.274 OA
ATOM      4  H   UNL     1       3.028   3.697  -0.150  0.00  0.00    +0.155 HD
ENDROOT
BRANCH   1  10
ATOM      5  C   UNL     1       0.957   2.119  -0.914  0.00  0.00    +0.042 A 
ATOM      6  C   UNL     1      -0.159   1.270  -0.871  0.00  0.00    +0.062 A 
ATOM      7  C   UNL     1      -1.178   1.519   0.023  0.00  0.00    +0.167 A 
ATOM      8  C   UNL     1      -1.099   2.610   0.894  0.00  0.00    +0.168 A 
ATOM      9  C   UNL     1       0.001   3.453   0.858  0.00  0.00    +0.073 A 
ATOM     10  C   UNL     1       1.030   3.217  -0.039  0.00  0.00    +0.048 A 
ATOM     11  O   UNL     1      -2.220   2.627   1.670  0.00  0.00    -0.453 OA
ATOM     12  C   UNL     1      -2.789   1.310   1.557  0.00  0.00    +0.466 C 
ATOM     13  O   UNL     1      -2.348   0.854   0.264  0.00  0.00    -0.453 OA
BRANCH   5  15
ATOM     14  C   UNL     1       1.973   0.664  -2.778  0.00  0.00    +0.091 C 
ATOM     15  C   UNL     1       2.040   1.862  -1.866  0.00  0.00    +0.162 C 
ATOM     16  O   UNL     1       2.991   2.614  -1.920  0.00  0.00    -0.292 OA
ENDBRANCH   5  15
ENDBRANCH   1  10
BRANCH   2  17
ATOM     17  C   UNL     1       3.141   6.324  -0.162  0.00  0.00    +0.167 C 
BRANCH  17  18
ATOM     18  C   UNL     1       3.386   6.579  -1.627  0.00  0.00    -0.025 A 
ATOM     19  C   UNL     1       2.398   7.157  -2.402  0.00  0.00    +0.005 A 
ATOM     20  C   UNL     1       2.624   7.395  -3.745  0.00  0.00    +0.000 A 
ATOM     21  C   UNL     1       3.835   7.047  -4.314  0.00  0.00    +0.000 A 
ATOM     22  C   UNL     1       4.821   6.465  -3.539  0.00  0.00    +0.000 A 
ATOM     23  C   UNL     1       4.596   6.231  -2.196  0.00  0.00    +0.005 A 
ENDBRANCH  17  18
BRANCH  17  24
ATOM     24  S   UNL     1       2.796   7.896   0.676  0.00  0.00    -0.108 S 
BRANCH  24  25
ATOM     25  C   UNL     1       4.304   8.796   0.531  0.00  0.00    +0.009 A 
ATOM     26  C   UNL     1       5.394   8.229  -0.119  0.00  0.00    +0.015 A 
ATOM     27  C   UNL     1       6.572   8.939  -0.236  0.00  0.00    +0.001 A 
ATOM     28  C   UNL     1       6.672  10.209   0.302  0.00  0.00    +0.000 A 
ATOM     29  C   UNL     1       5.592  10.774   0.955  0.00  0.00    +0.001 A 
ATOM     30  C   UNL     1       4.409  10.072   1.071  0.00  0.00    +0.015 A 
ENDBRANCH  24  25
ENDBRANCH  17  24
ENDBRANCH   2  17
TORSDOF 6
