REMARK  Name = ZINC13160810
REMARK  12 active torsions:
REMARK  status: ('A' for Active; 'I' for Inactive)
REMARK    1  A    between atoms: C_1  and  C_2
REMARK    2  A    between atoms: C_6  and  C_8
REMARK    3  A    between atoms: C_11  and  S_17
REMARK    4  A    between atoms: N_12  and  C_13
REMARK    5  A    between atoms: C_13  and  C_14
REMARK    6  A    between atoms: C_14  and  O_15
REMARK    7  A    between atoms: O_15  and  C_16
REMARK    8  A    between atoms: S_17  and  C_18
REMARK    9  A    between atoms: C_18  and  C_19
REMARK   10  A    between atoms: N_21  and  C_22
REMARK   11  A    between atoms: C_22  and  C_24
REMARK   12  A    between atoms: C_22  and  C_25
REMARK                            x       y       z     vdW  Elec       q    Type
REMARK                         _______ _______ _______ _____ _____    ______ ____
ROOT
ATOM      1  S   UNL     1       1.031   3.693   1.782  0.00  0.00    -0.077 S 
ENDROOT
BRANCH   1   5
ATOM      2  C   UNL     1      -1.771   0.971   1.844  0.00  0.00    +0.165 A 
ATOM      3  N   UNL     1      -2.162   1.808   2.776  0.00  0.00    -0.128 NA
ATOM      4  N   UNL     1      -1.327   2.780   2.872  0.00  0.00    -0.122 NA
ATOM      5  C   UNL     1      -0.347   2.619   2.010  0.00  0.00    +0.192 A 
ATOM      6  N   UNL     1      -0.598   1.466   1.322  0.00  0.00    -0.300 N 
BRANCH   2  12
ATOM      7  C   UNL     1      -2.519  -2.640  -1.518  0.00  0.00    +0.044 C 
ATOM      8  C   UNL     1      -2.824  -2.010  -0.183  0.00  0.00    -0.050 A 
ATOM      9  C   UNL     1      -3.752  -2.595   0.660  0.00  0.00    +0.003 A 
ATOM     10  C   UNL     1      -4.038  -2.023   1.887  0.00  0.00    +0.001 A 
ATOM     11  C   UNL     1      -3.398  -0.865   2.278  0.00  0.00    +0.011 A 
ATOM     12  C   UNL     1      -2.460  -0.271   1.432  0.00  0.00    +0.020 A 
ATOM     13  C   UNL     1      -2.180  -0.850   0.194  0.00  0.00    +0.015 A 
ENDBRANCH   2  12
BRANCH   6  14
ATOM     14  C   UNL     1       0.215   0.877   0.255  0.00  0.00    +0.154 C 
BRANCH  14  15
ATOM     15  C   UNL     1      -0.194   1.482  -1.090  0.00  0.00    +0.181 C 
BRANCH  15  16
ATOM     16  O   UNL     1       0.599   0.907  -2.131  0.00  0.00    -0.381 OA
ATOM     17  C   UNL     1       0.296   1.405  -3.435  0.00  0.00    +0.194 C 
ENDBRANCH  15  16
ENDBRANCH  14  15
ENDBRANCH   6  14
ENDBRANCH   1   5
BRANCH   1  18
ATOM     18  C   UNL     1       0.657   4.953   3.027  0.00  0.00    +0.173 C 
BRANCH  18  19
ATOM     19  C   UNL     1       1.733   6.008   3.013  0.00  0.00    +0.224 C 
ATOM     20  O   UNL     1       2.661   5.917   2.238  0.00  0.00    -0.275 OA
ATOM     21  N   UNL     1       1.663   7.052   3.862  0.00  0.00    -0.308 N 
ATOM     22  H   UNL     1       0.921   7.125   4.482  0.00  0.00    +0.149 HD
BRANCH  21  23
ATOM     23  C   UNL     1       2.710   8.078   3.849  0.00  0.00    +0.100 C 
ATOM     24  C   UNL     1       2.390   9.119   2.774  0.00  0.00    +0.033 C 
BRANCH  23  25
ATOM     25  C   UNL     1       2.772   8.750   5.197  0.00  0.00    -0.024 A 
ATOM     26  C   UNL     1       1.603   9.042   5.876  0.00  0.00    +0.009 A 
ATOM     27  C   UNL     1       1.655   9.658   7.112  0.00  0.00    +0.050 A 
ATOM     28  C   UNL     1       2.879   9.984   7.674  0.00  0.00    +0.166 A 
ATOM     29  C   UNL     1       4.056   9.689   6.990  0.00  0.00    +0.167 A 
ATOM     30  C   UNL     1       3.996   9.067   5.754  0.00  0.00    +0.055 A 
ATOM     31  O   UNL     1       5.115  10.104   7.745  0.00  0.00    -0.453 OA
ATOM     32  C   UNL     1       4.592  10.284   9.074  0.00  0.00    +0.466 C 
ATOM     33  O   UNL     1       3.201  10.584   8.857  0.00  0.00    -0.453 OA
ENDBRANCH  23  25
ENDBRANCH  21  23
ENDBRANCH  18  19
ENDBRANCH   1  18
TORSDOF 9
