REMARK  Name = ZINC02225256
REMARK  7 active torsions:
REMARK  status: ('A' for Active; 'I' for Inactive)
REMARK    1  A    between atoms: C_1  and  C_2
REMARK    2  A    between atoms: C_5  and  C_9
REMARK    3  A    between atoms: C_9  and  C_11
REMARK    4  A    between atoms: C_12  and  N_20
REMARK    5  A    between atoms: C_21  and  C_23
REMARK    6  A    between atoms: C_29  and  C_35
REMARK    7  A    between atoms: C_31  and  C_34
REMARK                            x       y       z     vdW  Elec       q    Type
REMARK                         _______ _______ _______ _____ _____    ______ ____
ROOT
ATOM      1  C   UNL     1      -3.795   3.146   0.230  0.00  0.00    +0.197 A 
ATOM      2  C   UNL     1      -4.998   3.719  -0.137  0.00  0.00    +0.091 A 
ATOM      3  C   UNL     1      -5.875   2.602  -0.505  0.00  0.00    +0.042 A 
ATOM      4  C   UNL     1      -7.193   2.512  -0.956  0.00  0.00    +0.013 A 
ATOM      5  C   UNL     1      -7.740   1.286  -1.214  0.00  0.00    +0.001 A 
ATOM      6  C   UNL     1      -6.992   0.132  -1.030  0.00  0.00    +0.004 A 
ATOM      7  C   UNL     1      -5.689   0.200  -0.586  0.00  0.00    +0.047 A 
ATOM      8  C   UNL     1      -5.112   1.436  -0.317  0.00  0.00    +0.138 A 
ATOM      9  O   UNL     1      -3.890   1.802   0.118  0.00  0.00    -0.450 OA
ENDROOT
BRANCH   2  10
ATOM     10  N   UNL     1      -5.310   5.070  -0.155  0.00  0.00    -0.275 N 
ATOM     11  C   UNL     1      -6.557   5.478   0.155  0.00  0.00    +0.284 C 
ATOM     12  O   UNL     1      -7.432   4.659   0.355  0.00  0.00    -0.266 OA
ATOM     13  H   UNL     1      -4.632   5.722  -0.391  0.00  0.00    +0.155 HD
BRANCH  11  14
ATOM     14  C   UNL     1      -6.861   6.924   0.252  0.00  0.00    +0.194 A 
ATOM     15  C   UNL     1      -8.123   7.305   0.565  0.00  0.00    +0.103 A 
ATOM     16  C   UNL     1      -8.425   8.741   0.662  0.00  0.00    +0.193 A 
ATOM     17  O   UNL     1      -9.542   9.141   0.941  0.00  0.00    -0.287 OA
ATOM     18  C   UNL     1      -7.312   9.675   0.407  0.00  0.00    +0.064 A 
ATOM     19  C   UNL     1      -7.493  11.056   0.474  0.00  0.00    +0.018 A 
ATOM     20  C   UNL     1      -6.437  11.890   0.231  0.00  0.00    -0.049 A 
ATOM     21  C   UNL     1      -5.189  11.370  -0.082  0.00  0.00    +0.010 A 
ATOM     22  C   UNL     1      -4.991  10.008  -0.153  0.00  0.00    -0.007 A 
ATOM     23  C   UNL     1      -6.051   9.140   0.091  0.00  0.00    +0.142 A 
ATOM     24  O   UNL     1      -5.874   7.806   0.032  0.00  0.00    -0.450 OA
ATOM     25  C   UNL     1      -3.629   9.460  -0.493  0.00  0.00    +0.047 C 
ATOM     26  C   UNL     1      -6.630  13.383   0.302  0.00  0.00    +0.044 C 
ENDBRANCH  11  14
ENDBRANCH   2  10
BRANCH   1  27
ATOM     27  C   UNL     1      -2.647   3.854   0.660  0.00  0.00    +0.230 C 
ATOM     28  O   UNL     1      -2.701   5.059   0.826  0.00  0.00    -0.283 OA
BRANCH  27  33
ATOM     29  C   UNL     1       2.277   1.030   1.624  0.00  0.00    +0.047 C 
ATOM     30  C   UNL     1       0.988   1.769   1.372  0.00  0.00    -0.015 A 
ATOM     31  C   UNL     1      -0.165   1.064   1.076  0.00  0.00    +0.007 A 
ATOM     32  C   UNL     1      -1.346   1.735   0.839  0.00  0.00    +0.012 A 
ATOM     33  C   UNL     1      -1.381   3.129   0.908  0.00  0.00    +0.028 A 
ATOM     34  C   UNL     1      -0.216   3.837   1.208  0.00  0.00    +0.050 A 
ATOM     35  C   UNL     1       0.963   3.153   1.438  0.00  0.00    +0.127 A 
ATOM     36  F   UNL     1       2.092   3.836   1.728  0.00  0.00    -0.205 F 
ENDBRANCH  27  33
ENDBRANCH   1  27
TORSDOF 4
