REMARK  Name = ZINC08944435
REMARK  9 active torsions:
REMARK  status: ('A' for Active; 'I' for Inactive)
REMARK    1  A    between atoms: C_1  and  C_2
REMARK    2  A    between atoms: C_2  and  C_3
REMARK    3  A    between atoms: C_3  and  C_4
REMARK    4  A    between atoms: C_4  and  C_32
REMARK    5  A    between atoms: N_7  and  C_11
REMARK    6  A    between atoms: C_11  and  C_12
REMARK    7  A    between atoms: C_15  and  C_27
REMARK    8  A    between atoms: C_18  and  C_20
REMARK    9  A    between atoms: C_23  and  C_26
REMARK                            x       y       z     vdW  Elec       q    Type
REMARK                         _______ _______ _______ _____ _____    ______ ____
ROOT
ATOM      1  C   UNL     1       7.184   2.263  -0.050  0.00  0.00    +0.253 C 
ATOM      2  O   UNL     1       8.007   3.154  -0.052  0.00  0.00    -0.272 OA
ATOM      3  N   UNL     1       5.870   2.559  -0.037  0.00  0.00    -0.181 N 
ATOM      4  C   UNL     1       5.298   3.915  -0.025  0.00  0.00    +0.173 C 
ATOM      5  C   UNL     1       3.776   3.665  -0.019  0.00  0.00    +0.090 C 
ATOM      6  C   UNL     1       3.655   2.158  -0.020  0.00  0.00    +0.069 C 
ATOM      7  N   UNL     1       4.830   1.631  -0.033  0.00  0.00    -0.181 NA
ENDROOT
BRANCH   6   8
ATOM      8  C   UNL     1       2.385   1.407  -0.013  0.00  0.00    -0.002 A 
ATOM      9  C   UNL     1       1.166   2.089   0.002  0.00  0.00    +0.010 A 
ATOM     10  C   UNL     1      -0.017   1.379   0.010  0.00  0.00    +0.004 A 
ATOM     11  C   UNL     1       0.002  -0.004   0.002  0.00  0.00    -0.050 A 
ATOM     12  C   UNL     1       1.206  -0.686  -0.013  0.00  0.00    +0.004 A 
ATOM     13  C   UNL     1       2.397   0.010  -0.020  0.00  0.00    +0.010 A 
ATOM     14  C   UNL     1      -1.295  -0.772   0.010  0.00  0.00    +0.044 C 
ENDBRANCH   6   8
BRANCH   4  15
ATOM     15  C   UNL     1       5.701   4.672  -1.264  0.00  0.00    +0.128 A 
ATOM     16  C   UNL     1       6.019   5.978  -1.319  0.00  0.00    +0.046 A 
ATOM     17  C   UNL     1       6.334   6.266  -2.667  0.00  0.00    +0.041 A 
ATOM     18  C   UNL     1       6.182   5.121  -3.356  0.00  0.00    +0.195 A 
ATOM     19  O   UNL     1       5.798   4.159  -2.501  0.00  0.00    -0.466 OA
ENDBRANCH   4  15
BRANCH   1  20
ATOM     20  C   UNL     1       7.633   0.824  -0.061  0.00  0.00    +0.215 C 
BRANCH  20  24
ATOM     21  C   UNL     1      11.295   0.682   0.541  0.00  0.00    +0.138 C 
ATOM     22  C   UNL     1       9.862   0.734   1.034  0.00  0.00    +0.251 C 
ATOM     23  O   UNL     1       9.484   0.743   2.186  0.00  0.00    -0.272 OA
ATOM     24  N   UNL     1       9.097   0.769  -0.074  0.00  0.00    -0.215 N 
ATOM     25  C   UNL     1       9.838   0.741  -1.187  0.00  0.00    +0.310 C 
ATOM     26  O   UNL     1       9.373   0.759  -2.310  0.00  0.00    -0.252 OA
ATOM     27  N   UNL     1      11.157   0.694  -0.925  0.00  0.00    -0.281 N 
ATOM     28  H   UNL     1      11.876   0.669  -1.575  0.00  0.00    +0.152 HD
BRANCH  21  29
ATOM     29  C   UNL     1      11.967  -0.587   1.000  0.00  0.00    -0.015 A 
ATOM     30  C   UNL     1      12.656  -0.609   2.198  0.00  0.00    +0.006 A 
ATOM     31  C   UNL     1      13.270  -1.774   2.621  0.00  0.00    +0.000 A 
ATOM     32  C   UNL     1      13.201  -2.913   1.842  0.00  0.00    +0.000 A 
ATOM     33  C   UNL     1      12.517  -2.889   0.641  0.00  0.00    +0.000 A 
ATOM     34  C   UNL     1      11.900  -1.726   0.220  0.00  0.00    +0.006 A 
ENDBRANCH  21  29
BRANCH  21  35
ATOM     35  C   UNL     1      12.074   1.909   1.019  0.00  0.00    +0.040 C 
BRANCH  35  37
ATOM     36  C   UNL     1      12.179   4.404   0.971  0.00  0.00    +0.004 C 
ATOM     37  C   UNL     1      11.400   3.177   0.493  0.00  0.00    -0.000 C 
ENDBRANCH  35  37
ENDBRANCH  21  35
ENDBRANCH  20  24
ENDBRANCH   1  20
TORSDOF 7
