REMARK  Name = ZINC58506003
REMARK  9 active torsions:
REMARK  status: ('A' for Active; 'I' for Inactive)
REMARK    1  A    between atoms: C_1  and  C_2
REMARK    2  A    between atoms: C_3  and  C_32
REMARK    3  A    between atoms: C_4  and  C_31
REMARK    4  A    between atoms: C_7  and  C_8
REMARK    5  A    between atoms: C_8  and  O_10
REMARK    6  A    between atoms: O_10  and  C_11
REMARK    7  A    between atoms: C_11  and  C_12
REMARK    8  A    between atoms: C_25  and  C_27
REMARK    9  A    between atoms: C_32  and  C_34
REMARK                            x       y       z     vdW  Elec       q    Type
REMARK                         _______ _______ _______ _____ _____    ______ ____
ROOT
ATOM      1  C   UNL     1      -0.602  -2.805   5.583  0.00  0.00    +0.258 C 
ATOM      2  O   UNL     1      -0.436  -3.865   5.018  0.00  0.00    -0.271 OA
ATOM      3  N   UNL     1      -0.783  -2.775   6.918  0.00  0.00    -0.255 N 
ATOM      4  C   UNL     1      -0.983  -1.557   7.584  0.00  0.00    +0.058 A 
ATOM      5  C   UNL     1      -2.175  -0.865   7.449  0.00  0.00    +0.025 A 
ATOM      6  C   UNL     1      -2.362   0.323   8.131  0.00  0.00    +0.002 A 
ATOM      7  C   UNL     1      -1.364   0.822   8.949  0.00  0.00    +0.002 A 
ATOM      8  C   UNL     1      -0.167   0.142   9.081  0.00  0.00    +0.025 A 
ATOM      9  C   UNL     1       0.032  -1.043   8.393  0.00  0.00    +0.055 A 
ATOM     10  N   UNL     1       1.255  -1.720   8.467  0.00  0.00    -0.284 N 
ATOM     11  C   UNL     1       1.289  -3.049   8.703  0.00  0.00    +0.219 C 
ATOM     12  O   UNL     1       2.349  -3.638   8.683  0.00  0.00    -0.275 OA
ATOM     13  C   UNL     1       0.019  -3.805   8.991  0.00  0.00    +0.128 C 
ATOM     14  C   UNL     1      -0.781  -4.013   7.699  0.00  0.00    +0.194 C 
ATOM     15  H   UNL     1       2.084  -1.230   8.348  0.00  0.00    +0.155 HD
ENDROOT
BRANCH  14  16
ATOM     16  C   UNL     1      -2.221  -4.399   8.044  0.00  0.00    +0.409 C 
ATOM     17  F   UNL     1      -2.946  -4.593   6.864  0.00  0.00    -0.169 F 
ATOM     18  F   UNL     1      -2.220  -5.583   8.790  0.00  0.00    -0.169 F 
ATOM     19  F   UNL     1      -2.812  -3.376   8.792  0.00  0.00    -0.169 F 
ENDBRANCH  14  16
BRANCH   1  20
ATOM     20  C   UNL     1      -0.607  -1.522   4.792  0.00  0.00    +0.328 C 
BRANCH  20  21
ATOM     21  O   UNL     1      -0.397  -1.815   3.409  0.00  0.00    -0.451 OA
BRANCH  21  22
ATOM     22  C   UNL     1      -0.374  -0.768   2.559  0.00  0.00    +0.356 C 
ATOM     23  O   UNL     1      -0.527   0.362   2.982  0.00  0.00    -0.243 OA
BRANCH  22  30
ATOM     24  C   UNL     1      -0.274   1.458   0.377  0.00  0.00    +0.047 C 
ATOM     25  C   UNL     1      -0.118  -0.026   0.165  0.00  0.00    -0.008 A 
ATOM     26  C   UNL     1       0.109  -0.681  -1.069  0.00  0.00    +0.041 A 
ATOM     27  C   UNL     1       0.187  -2.038  -0.800  0.00  0.00    +0.024 A 
ATOM     28  N   UNL     1       0.020  -2.217   0.519  0.00  0.00    -0.352 N 
ATOM     29  H   UNL     1       0.030  -3.073   0.975  0.00  0.00    +0.166 HD
ATOM     30  C   UNL     1      -0.163  -0.993   1.125  0.00  0.00    +0.128 A 
ATOM     31  C   UNL     1       0.420  -3.127  -1.815  0.00  0.00    +0.064 C 
BRANCH  26  32
ATOM     32  C   UNL     1       0.236  -0.044  -2.384  0.00  0.00    +0.162 C 
ATOM     33  O   UNL     1      -0.754   0.173  -3.051  0.00  0.00    -0.292 OA
ATOM     34  C   UNL     1       1.596   0.341  -2.907  0.00  0.00    +0.091 C 
ENDBRANCH  26  32
ENDBRANCH  22  30
ENDBRANCH  21  22
ENDBRANCH  20  21
ENDBRANCH   1  20
TORSDOF 6
