REMARK  Name = ZINC39457500
REMARK  10 active torsions:
REMARK  status: ('A' for Active; 'I' for Inactive)
REMARK    1  A    between atoms: C_1  and  C_2
REMARK    2  A    between atoms: C_2  and  O_3
REMARK    3  A    between atoms: O_3  and  C_4
REMARK    4  A    between atoms: N_20  and  S_31
REMARK    5  A    between atoms: C_21  and  C_30
REMARK    6  A    between atoms: C_22  and  C_23
REMARK    7  A    between atoms: C_28  and  O_29
REMARK    8  A    between atoms: S_31  and  C_34
REMARK    9  A    between atoms: C_34  and  C_35
REMARK   10  A    between atoms: C_34  and  C_36
REMARK                            x       y       z     vdW  Elec       q    Type
REMARK                         _______ _______ _______ _____ _____    ______ ____
ROOT
ATOM      1  C   UNL     1       0.801  -1.817   1.305  0.00  0.00    +0.142 A 
ATOM      2  C   UNL     1      -0.186  -2.563   1.994  0.00  0.00    +0.043 A 
ATOM      3  C   UNL     1      -1.299  -1.919   2.557  0.00  0.00    +0.013 A 
ATOM      4  C   UNL     1      -2.248  -2.651   3.206  0.00  0.00    +0.001 A 
ATOM      5  C   UNL     1      -2.126  -4.033   3.320  0.00  0.00    +0.002 A 
ATOM      6  C   UNL     1      -1.056  -4.689   2.792  0.00  0.00    +0.028 A 
ATOM      7  C   UNL     1      -0.053  -3.967   2.120  0.00  0.00    +0.075 A 
ATOM      8  N   UNL     1       1.011  -4.611   1.618  0.00  0.00    -0.244 NA
ATOM      9  C   UNL     1       1.965  -3.968   0.986  0.00  0.00    +0.104 A 
ATOM     10  C   UNL     1       1.886  -2.516   0.777  0.00  0.00    +0.087 A 
ATOM     11  C   UNL     1       2.941  -1.867   0.010  0.00  0.00    +0.169 C 
ATOM     12  O   UNL     1       2.717  -1.506  -1.127  0.00  0.00    -0.292 OA
ATOM     13  C   UNL     1       4.310  -1.635   0.606  0.00  0.00    +0.084 C 
ATOM     14  C   UNL     1       4.749  -2.888   1.376  0.00  0.00    +0.046 C 
ATOM     15  C   UNL     1       4.423  -4.138   0.607  0.00  0.00    -0.010 A 
ATOM     16  C   UNL     1       3.166  -4.642   0.455  0.00  0.00    +0.095 A 
ATOM     17  N   UNL     1       3.259  -5.803  -0.256  0.00  0.00    -0.217 N 
ATOM     18  C   UNL     1       4.567  -6.018  -0.570  0.00  0.00    +0.048 A 
ATOM     19  C   UNL     1       5.303  -5.004  -0.062  0.00  0.00    +0.012 A 
ATOM     20  C   UNL     1       5.102  -7.181  -1.365  0.00  0.00    +0.066 C 
ENDROOT
BRANCH  19  21
ATOM     21  C   UNL     1       6.774  -4.844  -0.181  0.00  0.00    +0.026 A 
ATOM     22  C   UNL     1       7.617  -5.406   0.775  0.00  0.00    +0.012 A 
ATOM     23  C   UNL     1       8.985  -5.255   0.661  0.00  0.00    +0.001 A 
ATOM     24  C   UNL     1       9.521  -4.547  -0.400  0.00  0.00    +0.004 A 
ATOM     25  C   UNL     1       8.693  -3.986  -1.354  0.00  0.00    +0.046 A 
ATOM     26  C   UNL     1       7.319  -4.135  -1.254  0.00  0.00    +0.125 A 
BRANCH  26  27
ATOM     27  O   UNL     1       6.504  -3.589  -2.195  0.00  0.00    -0.506 OA
ATOM     28  H   UNL     1       6.225  -2.685  -1.996  0.00  0.00    +0.292 HD
ENDBRANCH  26  27
ENDBRANCH  19  21
BRANCH  17  29
ATOM     29  S   UNL     1       1.993  -6.788  -0.667  0.00  0.00    +0.058 S 
ATOM     30  O   UNL     1       2.571  -8.078  -0.815  0.00  0.00    -0.153 OA
ATOM     31  O   UNL     1       1.008  -6.546   0.328  0.00  0.00    -0.153 OA
BRANCH  29  32
ATOM     32  C   UNL     1       1.424  -6.170  -2.274  0.00  0.00    +0.148 C 
ATOM     33  C   UNL     1       0.168  -6.933  -2.698  0.00  0.00    +0.033 C 
ATOM     34  C   UNL     1       1.102  -4.679  -2.162  0.00  0.00    +0.033 C 
ENDBRANCH  29  32
ENDBRANCH  17  29
BRANCH   1  35
ATOM     35  O   UNL     1       0.693  -0.477   1.160  0.00  0.00    -0.491 OA
BRANCH  35  37
ATOM     36  C   UNL     1      -0.019   1.526   0.010  0.00  0.00    +0.048 C 
ATOM     37  C   UNL     1       0.002  -0.004   0.002  0.00  0.00    +0.226 C 
ENDBRANCH  35  37
ENDBRANCH   1  35
TORSDOF 6
