REMARK  Name = ZINC63627689
REMARK  7 active torsions:
REMARK  status: ('A' for Active; 'I' for Inactive)
REMARK    1  A    between atoms: C_1  and  C_2
REMARK    2  A    between atoms: C_8  and  C_11
REMARK    3  A    between atoms: C_11  and  C_12
REMARK    4  A    between atoms: C_12  and  N_13
REMARK    5  A    between atoms: C_14  and  C_16
REMARK    6  A    between atoms: C_20  and  C_22
REMARK    7  A    between atoms: N_31  and  C_32
REMARK                            x       y       z     vdW  Elec       q    Type
REMARK                         _______ _______ _______ _____ _____    ______ ____
ROOT
ATOM      1  C   UNL     1      -4.365  -1.009   7.515  0.00  0.00    +0.037 A 
ATOM      2  C   UNL     1      -2.981  -0.923   7.678  0.00  0.00    +0.013 A 
ATOM      3  C   UNL     1      -2.425  -1.103   8.928  0.00  0.00    +0.001 A 
ATOM      4  C   UNL     1      -3.236  -1.369  10.017  0.00  0.00    +0.004 A 
ATOM      5  C   UNL     1      -4.608  -1.456   9.862  0.00  0.00    -0.042 A 
ATOM      6  C   UNL     1      -5.177  -1.272   8.619  0.00  0.00    +0.017 A 
ENDROOT
BRANCH   5   7
ATOM      7  C   UNL     1      -5.483  -1.746  11.054  0.00  0.00    +0.036 C 
ATOM      8  C   UNL     1      -5.296  -0.648  12.104  0.00  0.00    +0.011 C 
ATOM      9  C   UNL     1      -6.208  -0.925  13.301  0.00  0.00    +0.020 C 
ATOM     10  C   UNL     1      -5.825  -2.267  13.932  0.00  0.00    +0.109 C 
ATOM     11  N   UNL     1      -5.861  -3.305  12.893  0.00  0.00    -0.285 N 
ATOM     12  C   UNL     1      -5.091  -3.098  11.659  0.00  0.00    +0.117 C 
ATOM     13  C   UNL     1      -6.588  -4.427  13.068  0.00  0.00    +0.306 C 
ATOM     14  O   UNL     1      -7.155  -4.625  14.125  0.00  0.00    -0.252 OA
ATOM     15  N   UNL     1      -6.686  -5.329  12.071  0.00  0.00    -0.269 N 
ATOM     16  H   UNL     1      -6.153  -5.223  11.268  0.00  0.00    +0.156 HD
BRANCH  15  17
ATOM     17  C   UNL     1      -7.556  -6.418  12.196  0.00  0.00    +0.035 A 
ATOM     18  C   UNL     1      -8.752  -6.277  12.888  0.00  0.00    +0.023 A 
ATOM     19  C   UNL     1      -9.608  -7.353  13.009  0.00  0.00    +0.002 A 
ATOM     20  C   UNL     1      -9.277  -8.570  12.442  0.00  0.00    +0.000 A 
ATOM     21  C   UNL     1      -8.087  -8.713  11.752  0.00  0.00    +0.002 A 
ATOM     22  C   UNL     1      -7.229  -7.639  11.623  0.00  0.00    +0.023 A 
ENDBRANCH  15  17
ENDBRANCH   5   7
BRANCH   1  24
ATOM     23  N   UNL     1      -4.181  -0.563   5.114  0.00  0.00    -0.311 N 
ATOM     24  C   UNL     1      -4.968  -0.816   6.178  0.00  0.00    +0.244 C 
ATOM     25  O   UNL     1      -6.173  -0.887   6.040  0.00  0.00    -0.270 OA
ATOM     26  H   UNL     1      -3.219  -0.507   5.225  0.00  0.00    +0.149 HD
BRANCH  23  27
ATOM     27  C   UNL     1      -4.778  -0.372   3.790  0.00  0.00    +0.109 C 
BRANCH  27  28
ATOM     28  C   UNL     1      -3.674  -0.101   2.767  0.00  0.00    +0.052 C 
BRANCH  28  36
ATOM     29  C   UNL     1      -4.820   5.085   0.899  0.00  0.00    +0.044 C 
ATOM     30  C   UNL     1      -4.932   3.652   0.446  0.00  0.00    -0.050 A 
ATOM     31  C   UNL     1      -5.475   3.376  -0.817  0.00  0.00    +0.005 A 
ATOM     32  C   UNL     1      -5.609   2.121  -1.295  0.00  0.00    +0.026 A 
ATOM     33  C   UNL     1      -5.194   1.007  -0.514  0.00  0.00    +0.043 A 
ATOM     34  N   UNL     1      -5.220  -0.282  -0.751  0.00  0.00    -0.380 N 
ATOM     35  C   UNL     1      -4.662  -0.982   0.412  0.00  0.00    +0.144 C 
ATOM     36  C   UNL     1      -4.288   0.096   1.405  0.00  0.00    -0.040 C 
ATOM     37  C   UNL     1      -4.618   1.271   0.823  0.00  0.00    -0.001 A 
ATOM     38  C   UNL     1      -4.502   2.666   1.265  0.00  0.00    +0.013 A 
ATOM     39  H   UNL     1      -5.552  -0.703  -1.559  0.00  0.00    +0.160 HD
ENDBRANCH  28  36
ENDBRANCH  27  28
ENDBRANCH  23  27
ENDBRANCH   1  24
TORSDOF 6
