REMARK  Name = ZINC40031716
REMARK  5 active torsions:
REMARK  status: ('A' for Active; 'I' for Inactive)
REMARK    1  A    between atoms: C_6  and  C_7
REMARK    2  A    between atoms: N_22  and  C_23
REMARK    3  A    between atoms: C_23  and  C_24
REMARK    4  A    between atoms: C_24  and  C_25
REMARK    5  A    between atoms: C_25  and  O_26
REMARK                            x       y       z     vdW  Elec       q    Type
REMARK                         _______ _______ _______ _____ _____    ______ ____
ROOT
ATOM      1  C   UNL     1      -1.293  -0.775   0.010  0.00  0.00    +0.144 C 
ATOM      2  C   UNL     1      -1.568  -1.306   1.379  0.00  0.00    +0.072 A 
ATOM      3  C   UNL     1      -1.761  -0.620   2.661  0.00  0.00    +0.199 A 
ATOM      4  O   UNL     1      -1.893   0.588   2.758  0.00  0.00    -0.287 OA
ATOM      5  C   UNL     1      -1.781  -1.536   3.828  0.00  0.00    +0.065 A 
ATOM      6  C   UNL     1      -1.756  -1.026   5.126  0.00  0.00    +0.030 A 
ATOM      7  C   UNL     1      -1.770  -1.892   6.198  0.00  0.00    +0.019 A 
ATOM      8  C   UNL     1      -1.808  -3.264   5.984  0.00  0.00    +0.019 A 
ATOM      9  C   UNL     1      -1.834  -3.778   4.708  0.00  0.00    +0.048 A 
ATOM     10  C   UNL     1      -1.823  -2.922   3.606  0.00  0.00    +0.140 A 
ATOM     11  O   UNL     1      -1.860  -3.454   2.363  0.00  0.00    -0.450 OA
ATOM     12  C   UNL     1      -1.620  -2.668   1.294  0.00  0.00    +0.199 A 
ATOM     13  C   UNL     1      -1.378  -3.054  -0.107  0.00  0.00    +0.283 C 
ATOM     14  O   UNL     1      -1.355  -4.196  -0.520  0.00  0.00    -0.267 OA
ATOM     15  N   UNL     1      -1.188  -1.954  -0.866  0.00  0.00    -0.284 N 
ATOM     16 BR   UNL     1      -1.737  -1.212   7.962  0.00  0.00    -0.050 Br
ENDROOT
BRANCH   1  22
ATOM     17  C   UNL     1      -0.017   1.378   0.010  0.00  0.00    +0.007 A 
ATOM     18  C   UNL     1       1.171   2.086   0.002  0.00  0.00    +0.015 A 
ATOM     19  C   UNL     1       2.378   1.411  -0.013  0.00  0.00    +0.018 A 
ATOM     20  C   UNL     1       2.396   0.027  -0.021  0.00  0.00    +0.015 A 
ATOM     21  C   UNL     1       1.208  -0.679  -0.013  0.00  0.00    +0.007 A 
ATOM     22  C   UNL     1       0.002  -0.004   0.002  0.00  0.00    -0.022 A 
ATOM     23 BR   UNL     1       4.003   2.378  -0.024  0.00  0.00    -0.050 Br
ENDBRANCH   1  22
BRANCH  15  24
ATOM     24  C   UNL     1      -0.923  -1.935  -2.306  0.00  0.00    +0.111 C 
BRANCH  24  25
ATOM     25  C   UNL     1       0.587  -1.994  -2.548  0.00  0.00    +0.047 C 
BRANCH  25  26
ATOM     26  C   UNL     1       0.863  -1.974  -4.053  0.00  0.00    +0.157 C 
BRANCH  26  27
ATOM     27  O   UNL     1       2.273  -2.030  -4.279  0.00  0.00    -0.395 OA
ATOM     28  H   UNL     1       2.523  -2.021  -5.213  0.00  0.00    +0.209 HD
ENDBRANCH  26  27
ENDBRANCH  25  26
ENDBRANCH  24  25
ENDBRANCH  15  24
TORSDOF 5
