REMARK  Name = ZINC14609361
REMARK  9 active torsions:
REMARK  status: ('A' for Active; 'I' for Inactive)
REMARK    1  A    between atoms: C_1  and  C_2
REMARK    2  A    between atoms: C_5  and  N_9
REMARK    3  A    between atoms: C_6  and  C_8
REMARK    4  A    between atoms: C_10  and  C_12
REMARK    5  A    between atoms: C_12  and  C_13
REMARK    6  A    between atoms: C_19  and  C_32
REMARK    7  A    between atoms: C_20  and  C_24
REMARK    8  A    between atoms: C_21  and  C_23
REMARK    9  A    between atoms: C_24  and  C_25
REMARK                            x       y       z     vdW  Elec       q    Type
REMARK                         _______ _______ _______ _____ _____    ______ ____
ROOT
ATOM      1  C   UNL     1       0.572   3.717  -0.138  0.00  0.00    +0.060 A 
ATOM      2  C   UNL     1       0.513   2.598   0.627  0.00  0.00    +0.072 A 
ATOM      3  S   UNL     1      -0.434   3.197   2.018  0.00  0.00    -0.056 S 
ATOM      4  C   UNL     1      -0.649   4.827   1.460  0.00  0.00    +0.194 A 
ATOM      5  N   UNL     1      -0.012   4.811   0.306  0.00  0.00    -0.226 NA
ATOM      6  N   UNL     1      -1.320   5.882   2.076  0.00  0.00    -0.212 N 
ATOM      7  C   UNL     1      -1.956   5.835   3.275  0.00  0.00    +0.048 A 
ATOM      8  C   UNL     1      -2.475   7.062   3.511  0.00  0.00    +0.001 A 
ATOM      9  C   UNL     1      -2.148   7.886   2.428  0.00  0.00    +0.064 A 
ATOM     10  N   UNL     1      -1.452   7.183   1.571  0.00  0.00    -0.169 NA
ATOM     11  C   UNL     1      -2.528   9.336   2.276  0.00  0.00    +0.068 C 
ATOM     12  C   UNL     1      -2.065   4.634   4.178  0.00  0.00    +0.066 C 
ENDROOT
BRANCH   1  13
ATOM     13  C   UNL     1       1.293   3.710  -1.461  0.00  0.00    +0.152 C 
BRANCH  13  15
ATOM     14  N   UNL     1       0.788   4.254  -3.821  0.00  0.00    -0.285 N 
ATOM     15  C   UNL     1       0.358   4.178  -2.546  0.00  0.00    +0.223 C 
ATOM     16  O   UNL     1      -0.782   4.487  -2.271  0.00  0.00    -0.275 OA
ATOM     17  H   UNL     1       1.721   4.087  -4.028  0.00  0.00    +0.155 HD
BRANCH  14  22
ATOM     18  C   UNL     1      -2.854   5.548  -7.973  0.00  0.00    +0.044 C 
ATOM     19  C   UNL     1      -1.887   5.204  -6.870  0.00  0.00    -0.050 A 
ATOM     20  C   UNL     1      -2.350   4.632  -5.699  0.00  0.00    +0.005 A 
ATOM     21  C   UNL     1      -1.466   4.316  -4.686  0.00  0.00    +0.024 A 
ATOM     22  C   UNL     1      -0.110   4.573  -4.845  0.00  0.00    +0.036 A 
ATOM     23  C   UNL     1       0.351   5.153  -6.019  0.00  0.00    -0.029 A 
ATOM     24  C   UNL     1      -0.538   5.461  -7.031  0.00  0.00    +0.008 A 
ATOM     25  C   UNL     1       1.820   5.439  -6.193  0.00  0.00    +0.045 C 
ENDBRANCH  14  22
ENDBRANCH  13  15
ENDBRANCH   1  13
BRANCH   8  26
ATOM     26  C   UNL     1      -3.266   7.471   4.728  0.00  0.00    +0.075 C 
BRANCH  26  27
ATOM     27  C   UNL     1      -2.338   8.075   5.750  0.00  0.00    -0.025 A 
ATOM     28  C   UNL     1      -1.962   9.401   5.644  0.00  0.00    +0.005 A 
ATOM     29  C   UNL     1      -1.111   9.956   6.582  0.00  0.00    +0.000 A 
ATOM     30  C   UNL     1      -0.636   9.184   7.626  0.00  0.00    +0.001 A 
ATOM     31  C   UNL     1      -1.011   7.859   7.733  0.00  0.00    +0.020 A 
ATOM     32  C   UNL     1      -1.867   7.305   6.798  0.00  0.00    +0.044 A 
ATOM     33 CL   UNL     1      -2.345   5.641   6.936  0.00  0.00    -0.083 Cl
ENDBRANCH  26  27
ENDBRANCH   8  26
TORSDOF 5
