REMARK  Name = ZINC20236755
REMARK  9 active torsions:
REMARK  status: ('A' for Active; 'I' for Inactive)
REMARK    1  A    between atoms: C_1  and  C_2
REMARK    2  A    between atoms: C_9  and  C_10
REMARK    3  A    between atoms: C_13  and  O_17
REMARK    4  A    between atoms: O_17  and  C_18
REMARK    5  A    between atoms: C_18  and  C_20
REMARK    6  A    between atoms: C_23  and  O_28
REMARK    7  A    between atoms: C_24  and  O_26
REMARK    8  A    between atoms: O_26  and  C_27
REMARK    9  A    between atoms: O_28  and  C_29
REMARK                            x       y       z     vdW  Elec       q    Type
REMARK                         _______ _______ _______ _____ _____    ______ ____
ROOT
ATOM      1  C   UNL     1       0.637  -6.804   1.133  0.00  0.00    -0.023 A 
ATOM      2  C   UNL     1      -0.728  -6.934   0.842  0.00  0.00    +0.011 A 
ATOM      3  C   UNL     1      -1.394  -8.088   1.181  0.00  0.00    +0.048 A 
ATOM      4  C   UNL     1      -0.717  -9.126   1.813  0.00  0.00    +0.146 A 
ATOM      5  C   UNL     1       0.638  -9.003   2.105  0.00  0.00    +0.061 A 
ATOM      6  C   UNL     1       1.317  -7.854   1.765  0.00  0.00    +0.027 A 
ATOM      7 BR   UNL     1       1.550 -10.419   2.965  0.00  0.00    -0.046 Br
ENDROOT
BRANCH   1  16
ATOM      8  C   UNL     1       8.083  -3.296   2.219  0.00  0.00    +0.089 C 
ATOM      9  C   UNL     1       6.655  -3.778   2.232  0.00  0.00    +0.134 C 
ATOM     10  C   UNL     1       6.111  -4.582   3.172  0.00  0.00    +0.091 C 
ATOM     11  C   UNL     1       4.765  -4.799   2.843  0.00  0.00    +0.168 C 
ATOM     12  N   UNL     1       3.855  -5.555   3.454  0.00  0.00    -0.156 NA
ATOM     13  C   UNL     1       2.629  -5.682   2.926  0.00  0.00    +0.273 C 
ATOM     14  O   UNL     1       1.749  -6.267   3.537  0.00  0.00    -0.268 OA
ATOM     15  C   UNL     1       2.355  -5.100   1.588  0.00  0.00    +0.084 C 
ATOM     16  C   UNL     1       1.353  -5.577   0.773  0.00  0.00    +0.024 C 
ATOM     17  C   UNL     1       3.237  -3.964   1.181  0.00  0.00    +0.176 C 
ATOM     18  N   UNL     1       2.848  -2.988   0.404  0.00  0.00    -0.280 NA
ATOM     19  N   UNL     1       4.515  -4.056   1.717  0.00  0.00    -0.142 N 
ATOM     20  O   UNL     1       5.724  -3.472   1.315  0.00  0.00    -0.375 OA
ATOM     21  H   UNL     1       1.942  -2.976   0.058  0.00  0.00    +0.188 HD
ENDBRANCH   1  16
BRANCH   4  22
ATOM     22  O   UNL     1      -1.380 -10.262   2.146  0.00  0.00    -0.421 OA
BRANCH  22  23
ATOM     23  C   UNL     1      -1.886 -10.357   3.392  0.00  0.00    +0.345 C 
ATOM     24  O   UNL     1      -1.665  -9.482   4.206  0.00  0.00    -0.245 OA
BRANCH  23  25
ATOM     25  C   UNL     1      -2.709 -11.522   3.767  0.00  0.00    +0.063 A 
ATOM     26  C   UNL     1      -2.960 -12.532   2.833  0.00  0.00    +0.019 A 
ATOM     27  C   UNL     1      -3.729 -13.619   3.185  0.00  0.00    +0.050 A 
ATOM     28  C   UNL     1      -4.256 -13.716   4.466  0.00  0.00    +0.162 A 
ATOM     29  C   UNL     1      -4.010 -12.712   5.402  0.00  0.00    +0.162 A 
ATOM     30  C   UNL     1      -3.235 -11.622   5.058  0.00  0.00    +0.064 A 
BRANCH  29  31
ATOM     31  O   UNL     1      -4.528 -12.810   6.656  0.00  0.00    -0.491 OA
ATOM     32  C   UNL     1      -4.236 -11.745   7.563  0.00  0.00    +0.277 C 
ENDBRANCH  29  31
BRANCH  28  33
ATOM     33  O   UNL     1      -5.013 -14.790   4.808  0.00  0.00    -0.491 OA
ATOM     34  C   UNL     1      -5.225 -15.781   3.800  0.00  0.00    +0.277 C 
ENDBRANCH  28  33
ENDBRANCH  23  25
ENDBRANCH  22  23
ENDBRANCH   4  22
TORSDOF 6
