REMARK  Name = ZINC39466463
REMARK  9 active torsions:
REMARK  status: ('A' for Active; 'I' for Inactive)
REMARK    1  A    between atoms: C_1  and  C_2
REMARK    2  A    between atoms: C_7  and  C_9
REMARK    3  A    between atoms: C_7  and  C_10
REMARK    4  A    between atoms: N_11  and  C_13
REMARK    5  A    between atoms: C_13  and  C_14
REMARK    6  A    between atoms: C_18  and  C_21
REMARK    7  A    between atoms: N_23  and  C_24
REMARK    8  A    between atoms: C_24  and  C_25
REMARK    9  A    between atoms: N_34  and  C_35
REMARK                            x       y       z     vdW  Elec       q    Type
REMARK                         _______ _______ _______ _____ _____    ______ ____
ROOT
ATOM      1  C   UNL     1      -3.561  -2.494  -0.375  0.00  0.00    +0.003 A 
ATOM      2  N   UNL     1      -3.862  -1.541   0.538  0.00  0.00    -0.327 N 
ATOM      3  C   UNL     1      -5.137  -1.164   0.753  0.00  0.00    +0.261 A 
ATOM      4  O   UNL     1      -5.389  -0.304   1.580  0.00  0.00    -0.267 OA
ATOM      5  C   UNL     1      -6.186  -1.770   0.015  0.00  0.00    +0.101 A 
ATOM      6  C   UNL     1      -5.868  -2.749  -0.924  0.00  0.00    +0.020 A 
ATOM      7  C   UNL     1      -4.530  -3.098  -1.109  0.00  0.00    +0.020 A 
ATOM      8  H   UNL     1      -3.149  -1.123   1.046  0.00  0.00    +0.169 HD
ENDROOT
BRANCH   5   9
ATOM      9  C   UNL     1      -7.585  -1.372   0.236  0.00  0.00    +0.250 C 
ATOM     10  O   UNL     1      -8.484  -1.974  -0.319  0.00  0.00    -0.270 OA
ATOM     11  N   UNL     1      -7.870  -0.339   1.054  0.00  0.00    -0.307 N 
ATOM     12  H   UNL     1      -7.160   0.096   1.551  0.00  0.00    +0.149 HD
BRANCH  11  13
ATOM     13  C   UNL     1      -9.252   0.127   1.191  0.00  0.00    +0.139 C 
BRANCH  13  14
ATOM     14  C   UNL     1      -9.299   1.283   2.156  0.00  0.00    -0.030 A 
ATOM     15  C   UNL     1      -9.483   1.046   3.507  0.00  0.00    +0.007 A 
ATOM     16  C   UNL     1      -9.527   2.106   4.391  0.00  0.00    +0.024 A 
ATOM     17  C   UNL     1      -9.387   3.408   3.924  0.00  0.00    +0.033 A 
ATOM     18  C   UNL     1      -9.200   3.644   2.571  0.00  0.00    -0.026 A 
ATOM     19  C   UNL     1      -9.153   2.575   1.691  0.00  0.00    +0.010 A 
ATOM     20  C   UNL     1      -9.034   5.040   2.031  0.00  0.00    +0.038 C 
ATOM     21  C   UNL     1      -9.597   6.065   3.015  0.00  0.00    +0.024 C 
ATOM     22  C   UNL     1      -8.999   5.801   4.403  0.00  0.00    +0.105 C 
ATOM     23  N   UNL     1      -9.441   4.468   4.836  0.00  0.00    -0.333 N 
ATOM     24  C   UNL     1      -9.929   4.252   6.200  0.00  0.00    +0.129 C 
ENDBRANCH  13  14
ENDBRANCH  11  13
ENDBRANCH   5   9
BRANCH   1  25
ATOM     25  C   UNL     1      -2.121  -2.887  -0.586  0.00  0.00    -0.024 C 
BRANCH  25  35
ATOM     26  C   UNL     1       1.890  -0.678  -2.373  0.00  0.00    +0.009 C 
ATOM     27  C   UNL     1       0.553  -1.419  -2.524  0.00  0.00    -0.048 C 
ATOM     28  C   UNL     1      -0.605  -0.471  -2.939  0.00  0.00    -0.011 C 
ATOM     29  C   UNL     1      -1.813  -1.316  -2.446  0.00  0.00    -0.067 C 
ATOM     30  C   UNL     1      -1.981  -2.483  -3.399  0.00  0.00    -0.009 C 
ATOM     31  C   UNL     1      -0.725  -3.196  -3.847  0.00  0.00    -0.036 C 
ATOM     32  C   UNL     1       0.607  -2.526  -3.577  0.00  0.00    +0.011 C 
ATOM     33  C   UNL     1      -0.833  -3.387  -5.383  0.00  0.00    +0.011 C 
ATOM     34  C   UNL     1      -0.703  -4.615  -3.247  0.00  0.00    +0.011 C 
ATOM     35  N   UNL     1      -1.376  -1.745  -1.102  0.00  0.00    +0.386 N 
ATOM     36  C   UNL     1       0.068  -2.034  -1.191  0.00  0.00    -0.071 C 
ATOM     37  H   UNL     1      -1.499  -0.959  -0.460  0.00  0.00    -0.081 HD
ENDBRANCH  25  35
ENDBRANCH   1  25
TORSDOF 5
