REMARK  Name = ZINC20082974
REMARK  15 active torsions:
REMARK  status: ('A' for Active; 'I' for Inactive)
REMARK    1  A    between atoms: C_1  and  C_2
REMARK    2  A    between atoms: C_2  and  C_3
REMARK    3  A    between atoms: C_3  and  C_4
REMARK    4  A    between atoms: C_3  and  C_5
REMARK    5  A    between atoms: C_3  and  N_6
REMARK    6  A    between atoms: C_7  and  C_11
REMARK    7  A    between atoms: C_11  and  C_13
REMARK    8  A    between atoms: C_11  and  N_26
REMARK    9  A    between atoms: C_19  and  C_25
REMARK   10  A    between atoms: N_26  and  C_27
REMARK   11  A    between atoms: N_26  and  C_36
REMARK   12  A    between atoms: C_27  and  C_28
REMARK   13  A    between atoms: C_31  and  O_34
REMARK   14  A    between atoms: O_34  and  C_35
REMARK   15  A    between atoms: C_36  and  C_37
REMARK                            x       y       z     vdW  Elec       q    Type
REMARK                         _______ _______ _______ _____ _____    ______ ____
ROOT
ATOM      1  C   UNL     1       1.959   5.646   0.273  0.00  0.00    +0.163 C 
ENDROOT
BRANCH   1   2
ATOM      2  C   UNL     1       2.043   4.148   0.411  0.00  0.00    +0.042 A 
ATOM      3  C   UNL     1       2.138   3.372  -0.697  0.00  0.00    +0.021 A 
ATOM      4  C   UNL     1       2.217   1.920  -0.528  0.00  0.00    -0.001 A 
ATOM      5  C   UNL     1       2.318   1.068  -1.633  0.00  0.00    +0.010 A 
ATOM      6  C   UNL     1       2.390  -0.283  -1.442  0.00  0.00    +0.001 A 
ATOM      7  C   UNL     1       2.365  -0.818  -0.162  0.00  0.00    +0.005 A 
ATOM      8  C   UNL     1       2.267   0.003   0.941  0.00  0.00    -0.026 A 
ATOM      9  C   UNL     1       2.192   1.381   0.772  0.00  0.00    +0.052 A 
ATOM     10  N   UNL     1       2.093   2.225   1.857  0.00  0.00    -0.322 N 
ATOM     11  H   UNL     1       2.073   1.811   2.876  0.00  0.00    +0.169 HD
ATOM     12  C   UNL     1       2.021   3.558   1.693  0.00  0.00    +0.254 A 
ATOM     13  O   UNL     1       1.935   4.274   2.675  0.00  0.00    -0.268 OA
ATOM     14  C   UNL     1       2.241  -0.592   2.326  0.00  0.00    +0.046 C 
ENDBRANCH   1   2
BRANCH   1  16
ATOM     15  N   UNL     1       1.798   6.757  -2.017  0.00  0.00    -0.222 N 
ATOM     16  C   UNL     1       2.469   6.055  -1.085  0.00  0.00    +0.174 A 
ATOM     17  N   UNL     1       3.653   5.801  -1.585  0.00  0.00    -0.111 NA
ATOM     18  N   UNL     1       3.705   6.313  -2.767  0.00  0.00    -0.023 NA
ATOM     19  N   UNL     1       2.587   6.894  -3.030  0.00  0.00    -0.043 NA
BRANCH  15  20
ATOM     20  C   UNL     1       0.431   7.270  -1.904  0.00  0.00    +0.062 C 
ATOM     21  C   UNL     1      -0.529   6.108  -1.637  0.00  0.00    +0.036 C 
ATOM     22  C   UNL     1       0.355   8.270  -0.748  0.00  0.00    +0.036 C 
BRANCH  20  24
ATOM     23  C   UNL     1      -1.391   8.502  -3.089  0.00  0.00    +0.006 C 
ATOM     24  C   UNL     1       0.038   7.967  -3.208  0.00  0.00    +0.026 C 
ENDBRANCH  20  24
ENDBRANCH  15  20
ENDBRANCH   1  16
BRANCH   1  25
ATOM     25  N   UNL     1       2.778   6.281   1.315  0.00  0.00    -0.282 NA
BRANCH  25  26
ATOM     26  C   UNL     1       2.367   7.674   1.532  0.00  0.00    +0.120 C 
BRANCH  26  27
ATOM     27  C   UNL     1       3.096   8.233   2.726  0.00  0.00    -0.033 A 
ATOM     28  C   UNL     1       2.606   8.011   4.000  0.00  0.00    +0.008 A 
ATOM     29  C   UNL     1       3.275   8.517   5.097  0.00  0.00    +0.046 A 
ATOM     30  C   UNL     1       4.435   9.258   4.920  0.00  0.00    +0.120 A 
ATOM     31  C   UNL     1       4.922   9.484   3.641  0.00  0.00    +0.046 A 
ATOM     32  C   UNL     1       4.252   8.970   2.547  0.00  0.00    +0.008 A 
BRANCH  30  33
ATOM     33  O   UNL     1       5.092   9.762   5.997  0.00  0.00    -0.495 OA
ATOM     34  C   UNL     1       4.532   9.491   7.284  0.00  0.00    +0.277 C 
ENDBRANCH  30  33
ENDBRANCH  26  27
ENDBRANCH  25  26
BRANCH  25  35
ATOM     35  C   UNL     1       4.207   6.198   0.984  0.00  0.00    +0.117 C 
BRANCH  35  36
ATOM     36  C   UNL     1       4.723   4.793   1.298  0.00  0.00    +0.132 C 
ATOM     37  C   UNL     1       6.268   4.773   1.291  0.00  0.00    +0.035 C 
ATOM     38  C   UNL     1       6.623   3.404   0.669  0.00  0.00    +0.031 C 
ATOM     39  C   UNL     1       5.251   2.759   0.374  0.00  0.00    +0.160 C 
ATOM     40  O   UNL     1       4.335   3.870   0.256  0.00  0.00    -0.375 OA
ENDBRANCH  35  36
ENDBRANCH  25  35
ENDBRANCH   1  25
TORSDOF 10
