REMARK  Name = ZINC05582765
REMARK  1 active torsions:
REMARK  status: ('A' for Active; 'I' for Inactive)
REMARK    1  A    between atoms: C_16  and  O_18
REMARK                            x       y       z     vdW  Elec       q    Type
REMARK                         _______ _______ _______ _____ _____    ______ ____
ROOT
ATOM      1  C   UNL     1      -1.837   5.392  -1.779  0.00  0.00    +0.019 A 
ATOM      2  C   UNL     1      -1.875   4.013  -1.669  0.00  0.00    +0.047 A 
ATOM      3  C   UNL     1      -0.763   3.329  -1.212  0.00  0.00    +0.133 A 
ATOM      4  C   UNL     1       0.401   4.041  -0.871  0.00  0.00    +0.019 A 
ATOM      5  C   UNL     1       0.427   5.430  -0.984  0.00  0.00    +0.026 A 
ATOM      6  C   UNL     1      -0.694   6.097  -1.437  0.00  0.00    +0.019 A 
ATOM      7 BR   UNL     1      -0.670   7.981  -1.591  0.00  0.00    -0.050 Br
ATOM      8  C   UNL     1       1.577   3.289  -0.402  0.00  0.00    +0.028 C 
ATOM      9  C   UNL     1       1.378   2.008  -0.000  0.00  0.00    +0.107 C 
ATOM     10  C   UNL     1       2.476   1.191   0.363  0.00  0.00    +0.256 C 
ATOM     11  O   UNL     1       3.571   1.686   0.553  0.00  0.00    -0.270 OA
ATOM     12  N   UNL     1       2.301  -0.138   0.496  0.00  0.00    -0.236 N 
ATOM     13  C   UNL     1       1.113  -0.711   0.250  0.00  0.00    +0.311 C 
ATOM     14  O   UNL     1       1.042  -1.924   0.252  0.00  0.00    -0.252 OA
ATOM     15  N   UNL     1       0.002  -0.004   0.002  0.00  0.00    -0.234 N 
ATOM     16  C   UNL     1      -0.018   1.449   0.010  0.00  0.00    +0.322 C 
ATOM     17  O   UNL     1      -0.776   1.977  -1.075  0.00  0.00    -0.441 OA
ATOM     18  H   UNL     1       3.047  -0.691   0.775  0.00  0.00    +0.159 HD
ATOM     19  H   UNL     1      -0.821  -0.480  -0.190  0.00  0.00    +0.157 HD
ENDROOT
BRANCH  16  20
ATOM     20  O   UNL     1      -0.652   1.874   1.218  0.00  0.00    -0.336 OA
ATOM     21  H   UNL     1      -1.562   1.562   1.315  0.00  0.00    +0.216 HD
ENDBRANCH  16  20
TORSDOF 1
