REMARK  Name = ZINC03663969
REMARK  5 active torsions:
REMARK  status: ('A' for Active; 'I' for Inactive)
REMARK    1  A    between atoms: C_14  and  C_15
REMARK    2  A    between atoms: N_16  and  N_17
REMARK    3  A    between atoms: C_18  and  C_20
REMARK    4  A    between atoms: C_23  and  C_26
REMARK    5  A    between atoms: C_26  and  N_63
REMARK                            x       y       z     vdW  Elec       q    Type
REMARK                         _______ _______ _______ _____ _____    ______ ____
ROOT
ATOM      1  N   UNL     1       6.109  -0.750  -0.157  0.00  0.00    -0.203 N 
ATOM      2  C   UNL     1       7.264  -0.064  -0.266  0.00  0.00    +0.263 C 
ATOM      3  O   UNL     1       7.245   1.149  -0.351  0.00  0.00    -0.268 OA
ATOM      4  H   UNL     1       6.125  -1.717  -0.088  0.00  0.00    +0.178 HD
ENDROOT
BRANCH   2   5
ATOM      5  C   UNL     1       8.554  -0.785  -0.281  0.00  0.00    +0.038 A 
ATOM      6  C   UNL     1       8.580  -2.177  -0.177  0.00  0.00    +0.013 A 
ATOM      7  C   UNL     1       9.787  -2.845  -0.196  0.00  0.00    +0.002 A 
ATOM      8  C   UNL     1      10.970  -2.138  -0.309  0.00  0.00    -0.064 A 
ATOM      9  C   UNL     1      10.952  -0.758  -0.407  0.00  0.00    +0.002 A 
ATOM     10  C   UNL     1       9.752  -0.078  -0.394  0.00  0.00    +0.013 A 
BRANCH   8  11
ATOM     11  C   UNL     1      12.286  -2.873  -0.324  0.00  0.00    -0.043 C 
BRANCH  11  21
ATOM     12  C   UNL     1      14.161  -3.533   1.062  0.00  0.00    -0.073 C 
ATOM     13  C   UNL     1      14.751  -3.313   2.455  0.00  0.00    +0.017 C 
ATOM     14  C   UNL     1      13.804  -3.839   3.503  0.00  0.00    -0.048 A 
ATOM     15  C   UNL     1      14.290  -4.058   4.784  0.00  0.00    +0.004 A 
ATOM     16  C   UNL     1      13.455  -4.534   5.774  0.00  0.00    +0.000 A 
ATOM     17  C   UNL     1      12.127  -4.794   5.489  0.00  0.00    +0.000 A 
ATOM     18  C   UNL     1      11.643  -4.577   4.215  0.00  0.00    +0.002 A 
ATOM     19  C   UNL     1      12.481  -4.100   3.217  0.00  0.00    -0.061 A 
ATOM     20  C   UNL     1      11.907  -3.883   1.842  0.00  0.00    -0.042 C 
ATOM     21  N   UNL     1      12.786  -2.994   1.064  0.00  0.00    +0.385 N 
ATOM     22  H   UNL     1      12.792  -2.063   1.499  0.00  0.00    -0.081 HD
ENDBRANCH  11  21
ENDBRANCH   8  11
ENDBRANCH   2   5
BRANCH   1  24
ATOM     23  C   UNL     1       3.771  -0.729  -0.037  0.00  0.00    +0.139 C 
ATOM     24  N   UNL     1       4.887  -0.066  -0.142  0.00  0.00    -0.187 NA
BRANCH  23  38
ATOM     25  C   UNL     1       2.373   4.181   0.048  0.00  0.00    +0.001 A 
ATOM     26  C   UNL     1       3.592   3.504   0.035  0.00  0.00    +0.001 A 
ATOM     27  C   UNL     1       3.654   2.146   0.012  0.00  0.00    +0.009 A 
ATOM     28  C   UNL     1       2.464   1.397   0.002  0.00  0.00    -0.009 A 
ATOM     29  C   UNL     1       1.182   2.105   0.016  0.00  0.00    -0.017 A 
ATOM     30  C   UNL     1       1.188   3.516   0.040  0.00  0.00    +0.008 A 
ATOM     31  C   UNL     1      -0.017   1.391   0.007  0.00  0.00    +0.017 A 
ATOM     32  C   UNL     1       0.002  -0.004  -0.016  0.00  0.00    -0.017 A 
ATOM     33  C   UNL     1      -1.198  -0.747  -0.025  0.00  0.00    +0.008 A 
ATOM     34  C   UNL     1      -1.145  -2.104  -0.046  0.00  0.00    +0.001 A 
ATOM     35  C   UNL     1       0.069  -2.789  -0.060  0.00  0.00    +0.001 A 
ATOM     36  C   UNL     1       1.259  -2.131  -0.053  0.00  0.00    +0.009 A 
ATOM     37  C   UNL     1       1.276  -0.726  -0.030  0.00  0.00    -0.009 A 
ATOM     38  C   UNL     1       2.492  -0.013  -0.022  0.00  0.00    +0.010 A 
ENDBRANCH  23  38
ENDBRANCH   1  24
TORSDOF 5
