REMARK  Name = ZINC15123016
REMARK  12 active torsions:
REMARK  status: ('A' for Active; 'I' for Inactive)
REMARK    1  A    between atoms: C_1  and  C_2
REMARK    2  A    between atoms: C_2  and  C_3
REMARK    3  A    between atoms: C_2  and  C_4
REMARK    4  A    between atoms: C_4  and  N_5
REMARK    5  A    between atoms: N_5  and  C_6
REMARK    6  A    between atoms: C_7  and  N_22
REMARK    7  A    between atoms: N_8  and  C_15
REMARK    8  A    between atoms: C_15  and  C_16
REMARK    9  A    between atoms: C_23  and  C_25
REMARK   10  A    between atoms: C_25  and  N_26
REMARK   11  A    between atoms: N_26  and  C_27
REMARK   12  A    between atoms: C_30  and  C_33
REMARK                            x       y       z     vdW  Elec       q    Type
REMARK                         _______ _______ _______ _____ _____    ______ ____
ROOT
ATOM      1  N   UNL     1       2.611   3.896   0.021  0.00  0.00    -0.263 N 
ATOM      2  C   UNL     1       2.939   5.204  -0.032  0.00  0.00    +0.237 C 
ATOM      3  O   UNL     1       2.068   6.047  -0.082  0.00  0.00    -0.274 OA
ENDROOT
BRANCH   1   4
ATOM      4  C   UNL     1       1.261   3.503  -0.091  0.00  0.00    +0.140 A 
ATOM      5  C   UNL     1       0.329   3.918   0.839  0.00  0.00    +0.128 A 
ATOM      6  N   UNL     1      -0.980   3.518   0.702  0.00  0.00    -0.276 N 
ATOM      7  C   UNL     1      -1.349   2.736  -0.329  0.00  0.00    +0.331 A 
ATOM      8  O   UNL     1      -2.512   2.398  -0.434  0.00  0.00    -0.246 OA
ATOM      9  N   UNL     1      -0.454   2.318  -1.242  0.00  0.00    -0.273 N 
ATOM     10  H   UNL     1      -0.753   1.732  -1.994  0.00  0.00    +0.173 HD
ATOM     11  C   UNL     1       0.840   2.681  -1.154  0.00  0.00    +0.277 A 
ATOM     12  O   UNL     1       1.643   2.300  -1.990  0.00  0.00    -0.266 OA
BRANCH   5  13
ATOM     13  N   UNL     1       0.705   4.720   1.889  0.00  0.00    -0.343 N 
ATOM     14  H   UNL     1       1.615   5.052   1.944  0.00  0.00    +0.144 HD
ATOM     15  H   UNL     1       0.061   4.954   2.575  0.00  0.00    +0.144 HD
ENDBRANCH   5  13
BRANCH   6  16
ATOM     16  C   UNL     1      -1.979   3.951   1.682  0.00  0.00    +0.163 C 
BRANCH  16  17
ATOM     17  C   UNL     1      -2.592   5.252   1.233  0.00  0.00    -0.028 A 
ATOM     18  C   UNL     1      -2.031   6.453   1.628  0.00  0.00    +0.005 A 
ATOM     19  C   UNL     1      -2.591   7.646   1.212  0.00  0.00    +0.000 A 
ATOM     20  C   UNL     1      -3.717   7.640   0.411  0.00  0.00    +0.000 A 
ATOM     21  C   UNL     1      -4.281   6.440   0.021  0.00  0.00    +0.000 A 
ATOM     22  C   UNL     1      -3.718   5.246   0.432  0.00  0.00    +0.005 A 
ENDBRANCH  16  17
ENDBRANCH   6  16
ENDBRANCH   1   4
BRANCH   1  23
ATOM     23  C   UNL     1       3.656   2.885   0.195  0.00  0.00    +0.117 C 
BRANCH  23  25
ATOM     24  C   UNL     1       2.615   1.950   2.264  0.00  0.00    +0.009 C 
ATOM     25  C   UNL     1       3.864   2.618   1.687  0.00  0.00    +0.001 C 
ATOM     26  C   UNL     1       5.070   1.695   1.876  0.00  0.00    +0.009 C 
ENDBRANCH  23  25
ENDBRANCH   1  23
BRANCH   2  27
ATOM     27  C   UNL     1       4.388   5.618  -0.029  0.00  0.00    +0.198 C 
BRANCH  27  28
ATOM     28  N   UNL     1       4.479   7.079   0.029  0.00  0.00    -0.335 N 
ATOM     29  H   UNL     1       3.671   7.614   0.059  0.00  0.00    +0.147 HD
BRANCH  28  30
ATOM     30  C   UNL     1       5.729   7.701   0.042  0.00  0.00    +0.028 A 
ATOM     31  C   UNL     1       6.888   6.936   0.005  0.00  0.00    +0.023 A 
ATOM     32  C   UNL     1       8.123   7.554   0.013  0.00  0.00    +0.014 A 
ATOM     33  C   UNL     1       8.207   8.934   0.069  0.00  0.00    +0.055 A 
ATOM     34  C   UNL     1       7.055   9.698   0.111  0.00  0.00    +0.014 A 
ATOM     35  C   UNL     1       5.817   9.086   0.098  0.00  0.00    +0.023 A 
BRANCH  33  36
ATOM     36  C   UNL     1       9.556   9.605   0.083  0.00  0.00    +0.417 C 
ATOM     37  F   UNL     1       9.986   9.759   1.405  0.00  0.00    -0.166 F 
ATOM     38  F   UNL     1      10.476   8.818  -0.618  0.00  0.00    -0.166 F 
ATOM     39  F   UNL     1       9.458  10.861  -0.525  0.00  0.00    -0.166 F 
ENDBRANCH  33  36
ENDBRANCH  28  30
ENDBRANCH  27  28
ENDBRANCH   2  27
TORSDOF 10
