REMARK  Name = ZINC36516883
REMARK  18 active torsions:
REMARK  status: ('A' for Active; 'I' for Inactive)
REMARK    1  A    between atoms: C_1  and  C_2
REMARK    2  A    between atoms: C_2  and  C_3
REMARK    3  A    between atoms: C_3  and  C_4
REMARK    4  A    between atoms: C_4  and  C_5
REMARK    5  A    between atoms: C_5  and  C_6
REMARK    6  A    between atoms: C_6  and  N_7
REMARK    7  A    between atoms: N_7  and  C_8
REMARK    8  A    between atoms: C_8  and  C_10
REMARK    9  A    between atoms: C_8  and  C_18
REMARK   10  A    between atoms: C_13  and  O_16
REMARK   11  A    between atoms: O_16  and  C_17
REMARK   12  A    between atoms: N_20  and  C_21
REMARK   13  A    between atoms: C_21  and  S_22
REMARK   14  A    between atoms: S_22  and  C_25
REMARK   15  A    between atoms: C_28  and  C_31
REMARK   16  A    between atoms: C_32  and  C_34
REMARK   17  A    between atoms: C_35  and  C_36
REMARK   18  A    between atoms: C_35  and  C_37
REMARK                            x       y       z     vdW  Elec       q    Type
REMARK                         _______ _______ _______ _____ _____    ______ ____
ROOT
ATOM      1  C   UNL     1      -3.780  -5.864  -1.010  0.00  0.00    +0.192 C 
ENDROOT
BRANCH   1   2
ATOM      2  C   UNL     1      -5.176  -5.557  -1.487  0.00  0.00    -0.018 A 
ATOM      3  C   UNL     1      -6.232  -6.358  -1.094  0.00  0.00    +0.009 A 
ATOM      4  C   UNL     1      -7.513  -6.079  -1.530  0.00  0.00    +0.046 A 
ATOM      5  C   UNL     1      -7.739  -4.993  -2.363  0.00  0.00    +0.120 A 
ATOM      6  C   UNL     1      -6.678  -4.190  -2.756  0.00  0.00    +0.046 A 
ATOM      7  C   UNL     1      -5.400  -4.470  -2.312  0.00  0.00    +0.009 A 
BRANCH   5   8
ATOM      8  O   UNL     1      -8.998  -4.716  -2.794  0.00  0.00    -0.495 OA
ATOM      9  C   UNL     1      -9.156  -3.583  -3.649  0.00  0.00    +0.277 C 
ENDBRANCH   5   8
ENDBRANCH   1   2
BRANCH   1  10
ATOM     10  C   UNL     1      -3.619  -7.354  -0.855  0.00  0.00    +0.239 C 
ATOM     11  O   UNL     1      -3.340  -7.825   0.227  0.00  0.00    -0.273 OA
ATOM     12  N   UNL     1      -3.784  -8.164  -1.920  0.00  0.00    -0.294 N 
ATOM     13  H   UNL     1      -4.008  -7.787  -2.785  0.00  0.00    +0.150 HD
BRANCH  12  14
ATOM     14  C   UNL     1      -3.627  -9.613  -1.770  0.00  0.00    +0.278 C 
BRANCH  14  15
ATOM     15  S   UNL     1      -5.251 -10.371  -1.486  0.00  0.00    +0.013 S 
ATOM     16  O   UNL     1      -5.123 -11.784  -1.401  0.00  0.00    -0.168 OA
ATOM     17  O   UNL     1      -5.963  -9.647  -0.492  0.00  0.00    -0.168 OA
BRANCH  15  18
ATOM     18  C   UNL     1      -6.149 -10.089  -2.976  0.00  0.00    +0.090 A 
ATOM     19  C   UNL     1      -6.903  -8.940  -3.122  0.00  0.00    +0.027 A 
ATOM     20  C   UNL     1      -7.607  -8.719  -4.291  0.00  0.00    +0.005 A 
ATOM     21  C   UNL     1      -7.556  -9.647  -5.314  0.00  0.00    -0.050 A 
ATOM     22  C   UNL     1      -6.801 -10.795  -5.169  0.00  0.00    +0.005 A 
ATOM     23  C   UNL     1      -6.094 -11.014  -4.002  0.00  0.00    +0.027 A 
ATOM     24  C   UNL     1      -8.325  -9.406  -6.588  0.00  0.00    +0.044 C 
ENDBRANCH  15  18
ENDBRANCH  14  15
ENDBRANCH  12  14
ENDBRANCH   1  10
BRANCH   1  25
ATOM     25  N   UNL     1      -3.551  -5.212   0.282  0.00  0.00    -0.282 N 
ATOM     26  C   UNL     1      -4.346  -5.497   1.332  0.00  0.00    +0.240 C 
ATOM     27  O   UNL     1      -5.188  -6.370   1.238  0.00  0.00    -0.271 OA
BRANCH  26  28
ATOM     28  C   UNL     1      -4.195  -4.754   2.592  0.00  0.00    +0.066 C 
ATOM     29  C   UNL     1      -5.060  -4.945   3.584  0.00  0.00    -0.071 C 
ATOM     30  C   UNL     1      -6.287  -5.792   3.362  0.00  0.00    +0.039 C 
ATOM     31  C   UNL     1      -4.814  -4.315   4.931  0.00  0.00    +0.039 C 
ENDBRANCH  26  28
BRANCH  25  32
ATOM     32  C   UNL     1      -2.457  -4.248   0.432  0.00  0.00    +0.109 C 
BRANCH  32  33
ATOM     33  C   UNL     1      -2.966  -2.844   0.102  0.00  0.00    +0.019 C 
BRANCH  33  34
ATOM     34  C   UNL     1      -1.824  -1.838   0.259  0.00  0.00    +0.002 C 
BRANCH  34  35
ATOM     35  C   UNL     1      -2.333  -0.433  -0.071  0.00  0.00    -0.000 C 
BRANCH  35  37
ATOM     36  C   UNL     1      -1.699   1.978  -0.245  0.00  0.00    +0.004 C 
ATOM     37  C   UNL     1      -1.191   0.573   0.085  0.00  0.00    -0.003 C 
ENDBRANCH  35  37
ENDBRANCH  34  35
ENDBRANCH  33  34
ENDBRANCH  32  33
ENDBRANCH  25  32
ENDBRANCH   1  25
TORSDOF 13
