REMARK  Name = ZINC38872976
REMARK  8 active torsions:
REMARK  status: ('A' for Active; 'I' for Inactive)
REMARK    1  A    between atoms: C_1  and  C_2
REMARK    2  A    between atoms: C_5  and  C_8
REMARK    3  A    between atoms: C_8  and  C_10
REMARK    4  A    between atoms: C_8  and  N_11
REMARK    5  A    between atoms: C_12  and  C_14
REMARK    6  A    between atoms: N_17  and  C_20
REMARK    7  A    between atoms: C_20  and  C_21
REMARK    8  A    between atoms: C_23  and  C_26
REMARK                            x       y       z     vdW  Elec       q    Type
REMARK                         _______ _______ _______ _____ _____    ______ ____
ROOT
ATOM      1  C   UNL     1       2.460  -6.468   1.999  0.00  0.00    +0.071 C 
ATOM      2  C   UNL     1       3.651  -5.515   2.131  0.00  0.00    -0.006 C 
ATOM      3  C   UNL     1       4.626  -6.067   3.173  0.00  0.00    -0.077 C 
ATOM      4  N   UNL     1       5.101  -7.390   2.752  0.00  0.00    +0.386 N 
ATOM      5  C   UNL     1       3.973  -8.328   2.694  0.00  0.00    -0.077 C 
ATOM      6  C   UNL     1       2.973  -7.864   1.633  0.00  0.00    -0.006 C 
ATOM      7  H   UNL     1       5.526  -7.320   1.840  0.00  0.00    -0.081 HD
ENDROOT
BRANCH   1   9
ATOM      8  N   UNL     1       0.959  -4.758   1.029  0.00  0.00    -0.309 N 
ATOM      9  C   UNL     1       1.534  -5.972   0.919  0.00  0.00    +0.216 C 
ATOM     10  O   UNL     1       1.306  -6.665  -0.050  0.00  0.00    -0.276 OA
ATOM     11  H   UNL     1       1.142  -4.204   1.804  0.00  0.00    +0.149 HD
BRANCH   8  12
ATOM     12  C   UNL     1       0.059  -4.275  -0.021  0.00  0.00    +0.100 C 
ATOM     13  C   UNL     1      -1.353  -4.805   0.234  0.00  0.00    +0.033 C 
BRANCH  12  18
ATOM     14  C   UNL     1      -0.018   1.503   0.010  0.00  0.00    +0.044 C 
ATOM     15  C   UNL     1       0.002  -0.004   0.002  0.00  0.00    -0.050 A 
ATOM     16  C   UNL     1       0.006  -0.689  -1.199  0.00  0.00    +0.004 A 
ATOM     17  C   UNL     1       0.025  -2.071  -1.206  0.00  0.00    +0.006 A 
ATOM     18  C   UNL     1       0.040  -2.768  -0.013  0.00  0.00    -0.027 A 
ATOM     19  C   UNL     1       0.037  -2.084   1.188  0.00  0.00    +0.006 A 
ATOM     20  C   UNL     1       0.023  -0.702   1.195  0.00  0.00    +0.004 A 
ENDBRANCH  12  18
ENDBRANCH   8  12
ENDBRANCH   1   9
BRANCH   4  21
ATOM     21  C   UNL     1       6.095  -7.882   3.716  0.00  0.00    +0.022 C 
BRANCH  21  22
ATOM     22  C   UNL     1       6.673  -9.183   3.222  0.00  0.00    +0.211 A 
ATOM     23  N   UNL     1       7.725  -9.309   2.466  0.00  0.00    -0.192 NA
ATOM     24  C   UNL     1       7.960 -10.611   2.216  0.00  0.00    +0.209 A 
ATOM     25  N   UNL     1       7.042 -11.326   2.823  0.00  0.00    -0.056 NA
ATOM     26  O   UNL     1       6.193 -10.404   3.492  0.00  0.00    -0.340 OA
BRANCH  24  27
ATOM     27  C   UNL     1       9.066 -11.146   1.396  0.00  0.00    +0.060 A 
ATOM     28  C   UNL     1       9.365 -12.448   1.093  0.00  0.00    +0.019 A 
ATOM     29  C   UNL     1      10.459 -12.709   0.300  0.00  0.00    +0.008 A 
ATOM     30  C   UNL     1      11.207 -11.672  -0.158  0.00  0.00    +0.046 A 
ATOM     31  S   UNL     1      10.357 -10.263   0.534  0.00  0.00    -0.093 S 
ENDBRANCH  24  27
ENDBRANCH  21  22
ENDBRANCH   4  21
TORSDOF 6
