REMARK  Name = ZINC15956227
REMARK  9 active torsions:
REMARK  status: ('A' for Active; 'I' for Inactive)
REMARK    1  A    between atoms: C_1  and  O_2
REMARK    2  A    between atoms: O_2  and  C_3
REMARK    3  A    between atoms: C_5  and  C_13
REMARK    4  A    between atoms: C_7  and  O_11
REMARK    5  A    between atoms: C_8  and  O_9
REMARK    6  A    between atoms: O_9  and  C_10
REMARK    7  A    between atoms: O_11  and  C_12
REMARK    8  A    between atoms: N_32  and  C_35
REMARK    9  A    between atoms: C_35  and  C_36
REMARK                            x       y       z     vdW  Elec       q    Type
REMARK                         _______ _______ _______ _____ _____    ______ ____
ROOT
ATOM      1  C   UNL     1       3.228   4.866  -5.499  0.00  0.00    +0.154 C 
ATOM      2  C   UNL     1       2.961   6.352  -5.584  0.00  0.00    +0.046 A 
ATOM      3  C   UNL     1       2.411   7.069  -4.580  0.00  0.00    -0.015 A 
ATOM      4  C   UNL     1       2.311   8.438  -5.042  0.00  0.00    +0.003 A 
ATOM      5  C   UNL     1       1.829   9.607  -4.446  0.00  0.00    +0.010 A 
ATOM      6  C   UNL     1       1.891  10.757  -5.194  0.00  0.00    +0.001 A 
ATOM      7  C   UNL     1       2.406  10.771  -6.480  0.00  0.00    +0.002 A 
ATOM      8  C   UNL     1       2.889   9.629  -7.095  0.00  0.00    +0.026 A 
ATOM      9  C   UNL     1       2.838   8.446  -6.359  0.00  0.00    +0.047 A 
ATOM     10  N   UNL     1       3.220   7.169  -6.652  0.00  0.00    -0.356 N 
ATOM     11  H   UNL     1       3.615   6.883  -7.490  0.00  0.00    +0.166 HD
ATOM     12  C   UNL     1       1.999   6.501  -3.245  0.00  0.00    +0.069 C 
ATOM     13  C   UNL     1       1.890   4.974  -3.369  0.00  0.00    +0.167 C 
ATOM     14  N   UNL     1       3.058   4.466  -4.086  0.00  0.00    -0.276 N 
ATOM     15  C   UNL     1       3.965   3.662  -3.528  0.00  0.00    +0.234 C 
ATOM     16  O   UNL     1       4.932   3.353  -4.191  0.00  0.00    -0.274 OA
ATOM     17  C   UNL     1       3.871   3.120  -2.138  0.00  0.00    +0.204 C 
ATOM     18  N   UNL     1       2.651   3.541  -1.469  0.00  0.00    -0.286 N 
ATOM     19  C   UNL     1       1.759   4.369  -2.009  0.00  0.00    +0.237 C 
ATOM     20  O   UNL     1       0.776   4.649  -1.355  0.00  0.00    -0.274 OA
ENDROOT
BRANCH   1  23
ATOM     21  C   UNL     1       6.158   3.327  -7.324  0.00  0.00    +0.165 A 
ATOM     22  C   UNL     1       4.864   3.601  -6.907  0.00  0.00    +0.055 A 
ATOM     23  C   UNL     1       4.636   4.573  -5.951  0.00  0.00    -0.014 A 
ATOM     24  C   UNL     1       5.694   5.280  -5.412  0.00  0.00    +0.055 A 
ATOM     25  C   UNL     1       6.991   5.009  -5.820  0.00  0.00    +0.165 A 
ATOM     26  C   UNL     1       7.225   4.032  -6.781  0.00  0.00    +0.204 A 
BRANCH  21  28
ATOM     27  C   UNL     1       5.238   1.686  -8.779  0.00  0.00    +0.277 C 
ATOM     28  O   UNL     1       6.382   2.370  -8.264  0.00  0.00    -0.491 OA
ENDBRANCH  21  28
BRANCH  26  29
ATOM     29  O   UNL     1       8.496   3.766  -7.188  0.00  0.00    -0.488 OA
ATOM     30  C   UNL     1       8.991   4.515  -8.300  0.00  0.00    +0.277 C 
ENDBRANCH  26  29
BRANCH  25  31
ATOM     31  O   UNL     1       8.032   5.701  -5.285  0.00  0.00    -0.491 OA
ATOM     32  C   UNL     1       7.717   6.690  -4.303  0.00  0.00    +0.277 C 
ENDBRANCH  25  31
ENDBRANCH   1  23
BRANCH  18  33
ATOM     33  C   UNL     1       2.392   3.029  -0.121  0.00  0.00    +0.150 C 
BRANCH  33  34
ATOM     34  C   UNL     1       1.609   1.745  -0.213  0.00  0.00    +0.007 A 
ATOM     35  C   UNL     1       2.066   0.471  -0.300  0.00  0.00    +0.013 A 
ATOM     36  C   UNL     1       1.153  -0.564  -0.376  0.00  0.00    +0.008 A 
ATOM     37  C   UNL     1      -0.171  -0.276  -0.361  0.00  0.00    +0.045 A 
ATOM     38  S   UNL     1      -0.160   1.505  -0.238  0.00  0.00    -0.100 S 
ENDBRANCH  33  34
ENDBRANCH  18  33
TORSDOF 6
