REMARK  Name = ZINC02266152
REMARK  10 active torsions:
REMARK  status: ('A' for Active; 'I' for Inactive)
REMARK    1  A    between atoms: C_1  and  C_2
REMARK    2  A    between atoms: C_2  and  N_3
REMARK    3  A    between atoms: C_4  and  C_26
REMARK    4  A    between atoms: C_7  and  S_8
REMARK    5  A    between atoms: S_8  and  C_9
REMARK    6  A    between atoms: C_9  and  C_10
REMARK    7  A    between atoms: N_12  and  N_13
REMARK    8  A    between atoms: C_14  and  C_15
REMARK    9  A    between atoms: C_16  and  C_17
REMARK   10  A    between atoms: C_22  and  N_23
REMARK                            x       y       z     vdW  Elec       q    Type
REMARK                         _______ _______ _______ _____ _____    ______ ____
ROOT
ATOM      1  C   UNL     1       6.065  -0.162  -0.529  0.00  0.00    +0.242 C 
ATOM      2  O   UNL     1       5.836   0.249   0.589  0.00  0.00    -0.273 OA
ATOM      3  N   UNL     1       7.328  -0.458  -0.893  0.00  0.00    -0.206 N 
ATOM      4  H   UNL     1       7.511  -0.786  -1.787  0.00  0.00    +0.177 HD
ENDROOT
BRANCH   3   5
ATOM      5  N   UNL     1       8.377  -0.293   0.021  0.00  0.00    -0.188 NA
ATOM      6  C   UNL     1       9.598  -0.580  -0.330  0.00  0.00    +0.130 C 
BRANCH   6   7
ATOM      7  C   UNL     1      10.660  -0.412   0.595  0.00  0.00    +0.022 C 
ATOM      8  C   UNL     1      11.924  -0.709   0.232  0.00  0.00    +0.012 C 
BRANCH   8   9
ATOM      9  C   UNL     1      13.026  -0.536   1.192  0.00  0.00    +0.005 A 
ATOM     10  C   UNL     1      12.756  -0.162   2.512  0.00  0.00    +0.010 A 
ATOM     11  C   UNL     1      13.793  -0.002   3.405  0.00  0.00    +0.001 A 
ATOM     12  C   UNL     1      15.100  -0.209   2.999  0.00  0.00    +0.002 A 
ATOM     13  C   UNL     1      15.376  -0.578   1.694  0.00  0.00    +0.033 A 
ATOM     14  C   UNL     1      14.348  -0.749   0.790  0.00  0.00    +0.133 A 
BRANCH  14  15
ATOM     15  N   UNL     1      14.645  -1.150  -0.604  0.00  0.00    +0.057 N 
ATOM     16  O   UNL     1      13.915  -1.925  -1.178  0.00  0.00    -0.126 OA
ATOM     17  O   UNL     1      15.617  -0.704  -1.168  0.00  0.00    -0.126 OA
ENDBRANCH  14  15
ENDBRANCH   8   9
ENDBRANCH   6   7
ENDBRANCH   3   5
BRANCH   1  18
ATOM     18  C   UNL     1       4.937  -0.339  -1.513  0.00  0.00    +0.174 C 
BRANCH  18  19
ATOM     19  S   UNL     1       3.372   0.141  -0.731  0.00  0.00    -0.077 S 
BRANCH  19  24
ATOM     20  N   UNL     1       0.824   0.100  -1.885  0.00  0.00    -0.302 N 
ATOM     21  C   UNL     1       0.296  -0.236  -3.110  0.00  0.00    +0.165 A 
ATOM     22  N   UNL     1       1.294  -0.632  -3.865  0.00  0.00    -0.128 NA
ATOM     23  N   UNL     1       2.395  -0.567  -3.205  0.00  0.00    -0.122 NA
ATOM     24  C   UNL     1       2.168  -0.120  -1.990  0.00  0.00    +0.192 A 
BRANCH  21  25
ATOM     25  C   UNL     1      -1.128  -0.166  -3.502  0.00  0.00    +0.019 A 
ATOM     26  C   UNL     1      -2.014   0.636  -2.781  0.00  0.00    +0.013 A 
ATOM     27  C   UNL     1      -3.342   0.698  -3.151  0.00  0.00    +0.021 A 
ATOM     28  C   UNL     1      -3.795  -0.034  -4.236  0.00  0.00    +0.041 A 
ATOM     29  C   UNL     1      -2.921  -0.831  -4.955  0.00  0.00    +0.021 A 
ATOM     30  C   UNL     1      -1.590  -0.896  -4.598  0.00  0.00    +0.013 A 
ATOM     31 CL   UNL     1      -5.467   0.049  -4.696  0.00  0.00    -0.084 Cl
ENDBRANCH  21  25
BRANCH  20  33
ATOM     32  C   UNL     1       0.123   2.127  -0.709  0.00  0.00    +0.027 C 
ATOM     33  C   UNL     1       0.098   0.597  -0.714  0.00  0.00    +0.122 C 
ENDBRANCH  20  33
ENDBRANCH  19  24
ENDBRANCH  18  19
ENDBRANCH   1  18
TORSDOF 9
