REMARK  Name = ZINC06409906
REMARK  7 active torsions:
REMARK  status: ('A' for Active; 'I' for Inactive)
REMARK    1  A    between atoms: C_1  and  C_2
REMARK    2  A    between atoms: C_7  and  C_14
REMARK    3  A    between atoms: C_14  and  C_16
REMARK    4  A    between atoms: C_14  and  N_60
REMARK    5  A    between atoms: N_20  and  C_21
REMARK    6  A    between atoms: C_21  and  C_22
REMARK    7  A    between atoms: C_31  and  C_34
REMARK                            x       y       z     vdW  Elec       q    Type
REMARK                         _______ _______ _______ _____ _____    ______ ____
ROOT
ATOM      1  C   UNL     1       1.729   2.808  -2.378  0.00  0.00    +0.039 C 
ENDROOT
BRANCH   1   8
ATOM      2  C   UNL     1       4.785  -3.321  -6.467  0.00  0.00    +0.044 C 
ATOM      3  C   UNL     1       4.002  -2.269  -5.724  0.00  0.00    -0.048 A 
ATOM      4  C   UNL     1       2.627  -2.406  -5.587  0.00  0.00    +0.004 A 
ATOM      5  C   UNL     1       1.899  -1.464  -4.918  0.00  0.00    +0.010 A 
ATOM      6  C   UNL     1       2.543  -0.352  -4.365  0.00  0.00    -0.001 A 
ATOM      7  C   UNL     1       1.793   0.676  -3.642  0.00  0.00    +0.017 A 
ATOM      8  C   UNL     1       2.471   1.732  -3.128  0.00  0.00    +0.011 A 
ATOM      9  C   UNL     1       3.869   1.829  -3.299  0.00  0.00    +0.251 A 
ATOM     10  O   UNL     1       4.458   2.789  -2.834  0.00  0.00    -0.268 OA
ATOM     11  N   UNL     1       4.567   0.888  -3.957  0.00  0.00    -0.322 N 
ATOM     12  H   UNL     1       5.527   0.984  -4.052  0.00  0.00    +0.169 HD
ATOM     13  C   UNL     1       3.937  -0.211  -4.503  0.00  0.00    +0.049 A 
ATOM     14  C   UNL     1       4.658  -1.182  -5.189  0.00  0.00    +0.029 A 
ENDBRANCH   1   8
BRANCH   1  21
ATOM     15  C   UNL     1       1.853   4.103  -4.420  0.00  0.00    -0.077 C 
ATOM     16  C   UNL     1       2.326   5.433  -5.011  0.00  0.00    -0.015 C 
ATOM     17  C   UNL     1       1.525   6.578  -4.384  0.00  0.00    -0.018 C 
ATOM     18  C   UNL     1       1.702   6.542  -2.864  0.00  0.00    -0.015 C 
ATOM     19  C   UNL     1       1.246   5.179  -2.335  0.00  0.00    -0.077 C 
ATOM     20  C   UNL     1       2.035   7.915  -4.926  0.00  0.00    +0.007 C 
ATOM     21  N   UNL     1       2.072   4.123  -2.958  0.00  0.00    +0.389 N 
ATOM     22  H   UNL     1       3.062   4.321  -2.772  0.00  0.00    -0.080 HD
ENDBRANCH   1  21
BRANCH   1  23
ATOM     23  C   UNL     1       2.148   2.791  -0.931  0.00  0.00    +0.143 A 
ATOM     24  N   UNL     1       3.237   3.316  -0.425  0.00  0.00    -0.115 NA
ATOM     25  N   UNL     1       3.234   3.092   0.844  0.00  0.00    -0.023 NA
ATOM     26  N   UNL     1       2.169   2.442   1.161  0.00  0.00    -0.044 NA
ATOM     27  N   UNL     1       1.476   2.232   0.094  0.00  0.00    -0.226 N 
BRANCH  27  28
ATOM     28  C   UNL     1       0.196   1.525   0.012  0.00  0.00    +0.182 C 
BRANCH  28  29
ATOM     29  C   UNL     1      -0.927   2.481   0.325  0.00  0.00    -0.026 A 
ATOM     30  C   UNL     1      -1.349   2.647   1.631  0.00  0.00    +0.008 A 
ATOM     31  C   UNL     1      -2.375   3.527   1.919  0.00  0.00    +0.038 A 
ATOM     32  C   UNL     1      -2.988   4.233   0.898  0.00  0.00    +0.123 A 
ATOM     33  C   UNL     1      -2.568   4.061  -0.410  0.00  0.00    +0.038 A 
ATOM     34  C   UNL     1      -1.538   3.185  -0.696  0.00  0.00    +0.008 A 
ATOM     35  F   UNL     1      -3.994   5.090   1.178  0.00  0.00    -0.205 F 
ENDBRANCH  28  29
ENDBRANCH  27  28
ENDBRANCH   1  23
TORSDOF 5
