REMARK  Name = ZINC13882036
REMARK  12 active torsions:
REMARK  status: ('A' for Active; 'I' for Inactive)
REMARK    1  A    between atoms: C_1  and  C_2
REMARK    2  A    between atoms: C_2  and  C_29
REMARK    3  A    between atoms: N_3  and  N_4
REMARK    4  A    between atoms: C_5  and  C_7
REMARK    5  A    between atoms: C_7  and  S_8
REMARK    6  A    between atoms: S_8  and  C_9
REMARK    7  A    between atoms: C_12  and  C_17
REMARK    8  A    between atoms: N_13  and  C_14
REMARK    9  A    between atoms: C_14  and  C_15
REMARK   10  A    between atoms: C_17  and  N_18
REMARK   11  A    between atoms: N_18  and  C_19
REMARK   12  A    between atoms: C_32  and  N_35
REMARK                            x       y       z     vdW  Elec       q    Type
REMARK                         _______ _______ _______ _____ _____    ______ ____
ROOT
ATOM      1  C   UNL     1      -5.218   0.872   0.032  0.00  0.00    +0.192 A 
ATOM      2  N   UNL     1      -5.132  -0.438   0.018  0.00  0.00    -0.122 NA
ATOM      3  N   UNL     1      -6.310  -0.954   0.025  0.00  0.00    -0.132 NA
ATOM      4  C   UNL     1      -7.210  -0.011   0.035  0.00  0.00    +0.152 A 
ATOM      5  N   UNL     1      -6.547   1.185   0.040  0.00  0.00    -0.301 N 
ENDROOT
BRANCH   1   6
ATOM      6  S   UNL     1      -3.874   2.010   0.031  0.00  0.00    -0.077 S 
BRANCH   6   7
ATOM      7  C   UNL     1      -2.482   0.853   0.018  0.00  0.00    +0.174 C 
BRANCH   7   9
ATOM      8  N   UNL     1      -0.011   0.966   0.007  0.00  0.00    -0.206 N 
ATOM      9  C   UNL     1      -1.187   1.624   0.017  0.00  0.00    +0.242 C 
ATOM     10  O   UNL     1      -1.204   2.837   0.023  0.00  0.00    -0.273 OA
ATOM     11  H   UNL     1       0.002  -0.004   0.002  0.00  0.00    +0.177 HD
BRANCH   8  14
ATOM     12  C   UNL     1       2.345  -0.458  -0.023  0.00  0.00    +0.068 C 
ATOM     13  C   UNL     1       2.325   1.049  -0.015  0.00  0.00    +0.063 C 
ATOM     14  N   UNL     1       1.193   1.683  -0.000  0.00  0.00    -0.185 NA
BRANCH  13  15
ATOM     15  C   UNL     1       3.592   1.804  -0.022  0.00  0.00    -0.002 A 
ATOM     16  C   UNL     1       4.813   1.125  -0.032  0.00  0.00    +0.012 A 
ATOM     17  C   UNL     1       5.994   1.838  -0.045  0.00  0.00    +0.033 A 
ATOM     18  C   UNL     1       5.971   3.221  -0.037  0.00  0.00    +0.126 A 
ATOM     19  C   UNL     1       4.766   3.900  -0.022  0.00  0.00    +0.033 A 
ATOM     20  C   UNL     1       3.577   3.201  -0.015  0.00  0.00    +0.012 A 
BRANCH  18  21
ATOM     21  N   UNL     1       7.243   3.979  -0.045  0.00  0.00    +0.056 N 
ATOM     22  O   UNL     1       7.227   5.197  -0.038  0.00  0.00    -0.126 OA
ATOM     23  O   UNL     1       8.306   3.384  -0.059  0.00  0.00    -0.126 OA
ENDBRANCH  18  21
ENDBRANCH  13  15
ENDBRANCH   8  14
ENDBRANCH   7   9
ENDBRANCH   6   7
ENDBRANCH   1   6
BRANCH   5  24
ATOM     24  C   UNL     1      -7.140   2.524   0.050  0.00  0.00    +0.152 C 
BRANCH  24  25
ATOM     25  C   UNL     1      -7.350   2.993  -1.367  0.00  0.00    -0.013 C 
ATOM     26  C   UNL     1      -8.538   3.380  -1.760  0.00  0.00    +0.005 C 
ENDBRANCH  24  25
ENDBRANCH   5  24
BRANCH   4  27
ATOM     27  C   UNL     1      -8.705  -0.205   0.041  0.00  0.00    +0.178 C 
BRANCH  27  28
ATOM     28  N   UNL     1      -9.195  -0.259  -1.338  0.00  0.00    -0.336 N 
ATOM     29  H   UNL     1      -8.573  -0.174  -2.078  0.00  0.00    +0.147 HD
BRANCH  28  30
ATOM     30  C   UNL     1     -10.555  -0.433  -1.588  0.00  0.00    +0.035 A 
ATOM     31  C   UNL     1     -11.443  -0.560  -0.541  0.00  0.00    +0.023 A 
ATOM     32  C   UNL     1     -12.804  -0.731  -0.779  0.00  0.00    +0.002 A 
ATOM     33  C   UNL     1     -13.294  -0.785  -2.049  0.00  0.00    +0.008 A 
ATOM     34  C   UNL     1     -12.421  -0.664  -3.144  0.00  0.00    -0.016 A 
ATOM     35  C   UNL     1     -11.034  -0.486  -2.914  0.00  0.00    +0.003 A 
ATOM     36  C   UNL     1     -10.164  -0.366  -4.009  0.00  0.00    +0.010 A 
ATOM     37  C   UNL     1     -10.662  -0.422  -5.275  0.00  0.00    +0.001 A 
ATOM     38  C   UNL     1     -12.025  -0.597  -5.502  0.00  0.00    +0.001 A 
ATOM     39  C   UNL     1     -12.899  -0.717  -4.465  0.00  0.00    +0.008 A 
ENDBRANCH  28  30
ENDBRANCH  27  28
ENDBRANCH   4  27
TORSDOF 11
