REMARK  Name = ZINC39672233
REMARK  9 active torsions:
REMARK  status: ('A' for Active; 'I' for Inactive)
REMARK    1  A    between atoms: C_1  and  C_2
REMARK    2  A    between atoms: C_3  and  C_12
REMARK    3  A    between atoms: C_7  and  O_8
REMARK    4  A    between atoms: O_8  and  C_9
REMARK    5  A    between atoms: C_9  and  C_11
REMARK    6  A    between atoms: C_16  and  C_25
REMARK    7  A    between atoms: N_27  and  C_28
REMARK    8  A    between atoms: C_28  and  C_29
REMARK    9  A    between atoms: N_38  and  C_39
REMARK                            x       y       z     vdW  Elec       q    Type
REMARK                         _______ _______ _______ _____ _____    ______ ____
ROOT
ATOM      1  C   UNL     1      -0.373   0.002  -2.825  0.00  0.00    +0.247 C 
ATOM      2  O   UNL     1      -0.326   1.208  -2.963  0.00  0.00    -0.270 OA
ATOM      3  N   UNL     1      -0.554  -0.793  -3.899  0.00  0.00    -0.296 N 
ATOM      4  C   UNL     1      -0.763  -2.260  -3.918  0.00  0.00    +0.121 C 
ATOM      5  C   UNL     1      -1.823  -2.489  -5.018  0.00  0.00    +0.100 C 
ATOM      6  C   UNL     1      -1.702  -1.264  -5.941  0.00  0.00    -0.004 C 
ATOM      7  C   UNL     1      -0.594  -0.396  -5.327  0.00  0.00    +0.115 C 
ATOM      8  C   UNL     1      -3.017  -0.490  -5.966  0.00  0.00    -0.010 C 
ATOM      9  C   UNL     1      -2.890   0.690  -6.934  0.00  0.00    -0.082 C 
ATOM     10  N   UNL     1      -2.565   0.192  -8.276  0.00  0.00    +0.379 N 
ATOM     11  C   UNL     1      -1.256  -0.470  -8.261  0.00  0.00    -0.082 C 
ATOM     12  C   UNL     1      -1.313  -1.700  -7.350  0.00  0.00    -0.010 C 
ATOM     13  H   UNL     1      -3.271  -0.467  -8.568  0.00  0.00    -0.086 HD
ATOM     14  H   UNL     1      -2.542   0.966  -8.924  0.00  0.00    -0.086 HD
ENDROOT
BRANCH   1  17
ATOM     15  C   UNL     1      -1.485   1.370  -0.531  0.00  0.00    +0.048 C 
ATOM     16  C   UNL     1      -0.765   0.056  -0.366  0.00  0.00    +0.004 A 
ATOM     17  C   UNL     1      -0.232  -0.595  -1.480  0.00  0.00    +0.043 A 
ATOM     18  C   UNL     1       0.433  -1.811  -1.318  0.00  0.00    +0.013 A 
ATOM     19  C   UNL     1       0.562  -2.365  -0.061  0.00  0.00    +0.004 A 
ATOM     20  C   UNL     1       0.034  -1.718   1.041  0.00  0.00    +0.047 A 
ATOM     21  C   UNL     1      -0.625  -0.505   0.891  0.00  0.00    +0.135 A 
BRANCH  21  22
ATOM     22  O   UNL     1      -1.138   0.128   1.979  0.00  0.00    -0.426 OA
BRANCH  22  23
ATOM     23  C   UNL     1      -0.471   1.188   2.464  0.00  0.00    +0.309 C 
ATOM     24  O   UNL     1       0.599   1.495   1.994  0.00  0.00    -0.251 OA
ATOM     25  C   UNL     1      -1.057   1.994   3.595  0.00  0.00    +0.136 C 
ENDBRANCH  22  23
ENDBRANCH  21  22
ENDBRANCH   1  17
BRANCH   5  26
ATOM     26  C   UNL     1      -3.201  -2.558  -4.412  0.00  0.00    +0.218 C 
ATOM     27  O   UNL     1      -3.476  -1.874  -3.450  0.00  0.00    -0.275 OA
ATOM     28  N   UNL     1      -4.129  -3.381  -4.941  0.00  0.00    -0.311 N 
ATOM     29  H   UNL     1      -3.910  -3.928  -5.711  0.00  0.00    +0.149 HD
BRANCH  28  30
ATOM     30  C   UNL     1      -5.469  -3.448  -4.352  0.00  0.00    +0.139 C 
BRANCH  30  31
ATOM     31  C   UNL     1      -6.307  -4.435  -5.123  0.00  0.00    -0.030 A 
ATOM     32  C   UNL     1      -7.051  -4.008  -6.208  0.00  0.00    +0.007 A 
ATOM     33  C   UNL     1      -7.820  -4.912  -6.913  0.00  0.00    +0.024 A 
ATOM     34  C   UNL     1      -7.846  -6.250  -6.533  0.00  0.00    +0.033 A 
ATOM     35  C   UNL     1      -7.098  -6.677  -5.447  0.00  0.00    -0.026 A 
ATOM     36  C   UNL     1      -6.327  -5.764  -4.747  0.00  0.00    +0.010 A 
ATOM     37  C   UNL     1      -7.093  -8.119  -5.014  0.00  0.00    +0.038 C 
ATOM     38  C   UNL     1      -8.329  -8.842  -5.548  0.00  0.00    +0.024 C 
ATOM     39  C   UNL     1      -8.438  -8.590  -7.057  0.00  0.00    +0.105 C 
ATOM     40  N   UNL     1      -8.636  -7.149  -7.258  0.00  0.00    -0.333 N 
ATOM     41  C   UNL     1      -9.644  -6.660  -8.202  0.00  0.00    +0.129 C 
ENDBRANCH  30  31
ENDBRANCH  28  30
ENDBRANCH   5  26
TORSDOF 6
