REMARK  Name = ZINC12917655
REMARK  3 active torsions:
REMARK  status: ('A' for Active; 'I' for Inactive)
REMARK    1  A    between atoms: C_9  and  C_12
REMARK    2  A    between atoms: N_14  and  N_15
REMARK    3  A    between atoms: C_16  and  C_18
REMARK                            x       y       z     vdW  Elec       q    Type
REMARK                         _______ _______ _______ _____ _____    ______ ____
ROOT
ATOM      1  C   UNL     1      -3.598   2.106   0.059  0.00  0.00    +0.273 C 
ATOM      2  O   UNL     1      -3.487   3.148   0.669  0.00  0.00    -0.270 OA
ATOM      3  N   UNL     1      -4.821   1.639  -0.261  0.00  0.00    -0.231 N 
ATOM      4  H   UNL     1      -4.910   0.806  -0.749  0.00  0.00    +0.173 HD
ENDROOT
BRANCH   1  13
ATOM      5  C   UNL     1       2.401   0.032  -0.015  0.00  0.00    +0.004 A 
ATOM      6  C   UNL     1       2.382   1.414  -0.011  0.00  0.00    +0.004 A 
ATOM      7  C   UNL     1       1.177   2.091   0.002  0.00  0.00    +0.049 A 
ATOM      8  C   UNL     1      -0.017   1.385   0.010  0.00  0.00    +0.163 A 
ATOM      9  C   UNL     1       0.002  -0.004   0.002  0.00  0.00    +0.162 A 
ATOM     10  C   UNL     1       1.215  -0.677  -0.009  0.00  0.00    +0.049 A 
ATOM     11  O   UNL     1      -1.158  -0.716   0.002  0.00  0.00    -0.484 OA
ATOM     12  C   UNL     1      -2.343  -0.015   0.393  0.00  0.00    +0.283 C 
ATOM     13  C   UNL     1      -2.368   1.333  -0.341  0.00  0.00    +0.297 C 
ATOM     14  O   UNL     1      -1.195   2.066   0.030  0.00  0.00    -0.472 OA
ENDBRANCH   1  13
BRANCH   3  15
ATOM     15  N   UNL     1      -5.965   2.358   0.111  0.00  0.00    -0.230 N 
ATOM     16  C   UNL     1      -7.188   1.892  -0.209  0.00  0.00    +0.261 C 
ATOM     17  O   UNL     1      -7.299   0.847  -0.820  0.00  0.00    -0.269 OA
ATOM     18  H   UNL     1      -5.876   3.192   0.599  0.00  0.00    +0.173 HD
BRANCH  16  19
ATOM     19  C   UNL     1      -8.393   2.650   0.183  0.00  0.00    +0.052 A 
ATOM     20  C   UNL     1      -8.269   3.850   0.886  0.00  0.00    +0.017 A 
ATOM     21  C   UNL     1      -9.397   4.554   1.248  0.00  0.00    +0.039 A 
ATOM     22  C   UNL     1     -10.655   4.072   0.917  0.00  0.00    +0.124 A 
ATOM     23  C   UNL     1     -10.785   2.882   0.220  0.00  0.00    +0.054 A 
ATOM     24  C   UNL     1      -9.663   2.171  -0.153  0.00  0.00    +0.033 A 
ATOM     25 BR   UNL     1      -9.842   0.550  -1.110  0.00  0.00    -0.049 Br
ATOM     26  F   UNL     1     -11.757   4.766   1.276  0.00  0.00    -0.205 F 
ENDBRANCH  16  19
ENDBRANCH   3  15
TORSDOF 3
