REMARK  Name = ZINC41894490
REMARK  3 active torsions:
REMARK  status: ('A' for Active; 'I' for Inactive)
REMARK    1  A    between atoms: C_1  and  C_2
REMARK    2  A    between atoms: C_8  and  C_9
REMARK    3  A    between atoms: C_8  and  N_12
REMARK                            x       y       z     vdW  Elec       q    Type
REMARK                         _______ _______ _______ _____ _____    ______ ____
ROOT
ATOM      1  C   UNL     1      -0.019   1.526   0.010  0.00  0.00    +0.010 C 
ATOM      2  C   UNL     1       0.002  -0.004   0.002  0.00  0.00    +0.025 C 
ATOM      3  C   UNL     1      -1.433  -0.534   0.013  0.00  0.00    +0.006 C 
ATOM      4  C   UNL     1      -1.413  -2.063   0.004  0.00  0.00    +0.000 C 
ATOM      5  C   UNL     1      -0.673  -2.570   1.244  0.00  0.00    +0.003 C 
ATOM      6  C   UNL     1       0.763  -2.041   1.233  0.00  0.00    +0.042 C 
ATOM      7  C   UNL     1       0.742  -0.511   1.242  0.00  0.00    +0.170 C 
ENDROOT
BRANCH   7   8
ATOM      8  N   UNL     1       0.056  -0.038   2.447  0.00  0.00    -0.208 N 
ATOM      9  C   UNL     1       0.538  -0.361   3.664  0.00  0.00    +0.268 A 
ATOM     10  O   UNL     1       1.544  -1.046   3.766  0.00  0.00    -0.266 OA
ATOM     11  C   UNL     1      -0.128   0.098   4.819  0.00  0.00    +0.077 A 
ATOM     12  C   UNL     1      -1.246   0.860   4.683  0.00  0.00    +0.079 A 
ATOM     13  C   UNL     1      -1.722   1.178   3.397  0.00  0.00    +0.287 A 
ATOM     14  O   UNL     1      -2.839   1.939   3.261  0.00  0.00    -0.264 OA
ATOM     15  N   UNL     1      -1.093   0.751   2.331  0.00  0.00    -0.125 NA
ENDBRANCH   7   8
BRANCH   7  16
ATOM     16  C   UNL     1       2.156   0.011   1.231  0.00  0.00    +0.383 C 
ATOM     17  O   UNL     1       2.554   0.712   2.145  0.00  0.00    -0.244 OA
ATOM     18  O   UNL     1       2.902  -0.269   0.308  0.00  0.00    -0.244 OA
ENDBRANCH   7  16
TORSDOF 2
