REMARK  Name = ZINC14241616
REMARK  11 active torsions:
REMARK  status: ('A' for Active; 'I' for Inactive)
REMARK    1  A    between atoms: C_1  and  C_2
REMARK    2  A    between atoms: C_2  and  C_4
REMARK    3  A    between atoms: C_2  and  S_19
REMARK    4  A    between atoms: C_16  and  C_17
REMARK    5  A    between atoms: C_16  and  C_18
REMARK    6  A    between atoms: S_19  and  C_20
REMARK    7  A    between atoms: N_30  and  C_31
REMARK    8  A    between atoms: C_31  and  C_32
REMARK    9  A    between atoms: C_32  and  C_33
REMARK   10  A    between atoms: C_33  and  O_35
REMARK   11  A    between atoms: O_35  and  C_36
REMARK                            x       y       z     vdW  Elec       q    Type
REMARK                         _______ _______ _______ _____ _____    ______ ____
ROOT
ATOM      1  C   UNL     1       2.483   0.582   5.042  0.00  0.00    +0.029 C 
ATOM      2  C   UNL     1       1.396  -0.357   4.518  0.00  0.00    +0.137 C 
ENDROOT
BRANCH   2   3
ATOM      3  C   UNL     1       1.047   0.019   3.101  0.00  0.00    +0.234 C 
ATOM      4  O   UNL     1       1.308  -0.739   2.190  0.00  0.00    -0.274 OA
ATOM      5  N   UNL     1       0.446   1.198   2.845  0.00  0.00    -0.255 N 
ATOM      6  C   UNL     1       0.301   1.667   1.530  0.00  0.00    +0.059 A 
ATOM      7  C   UNL     1       1.214   1.332   0.547  0.00  0.00    +0.025 A 
ATOM      8  C   UNL     1       1.045   1.813  -0.739  0.00  0.00    +0.002 A 
ATOM      9  C   UNL     1      -0.031   2.627  -1.041  0.00  0.00    +0.002 A 
ATOM     10  C   UNL     1      -0.948   2.965  -0.063  0.00  0.00    +0.025 A 
ATOM     11  C   UNL     1      -0.788   2.486   1.227  0.00  0.00    +0.055 A 
ATOM     12  N   UNL     1      -1.708   2.811   2.230  0.00  0.00    -0.282 N 
ATOM     13  C   UNL     1      -1.420   2.589   3.527  0.00  0.00    +0.241 C 
ATOM     14  O   UNL     1      -2.249   2.838   4.376  0.00  0.00    -0.273 OA
ATOM     15  C   UNL     1      -0.079   2.034   3.935  0.00  0.00    +0.113 C 
ATOM     16  C   UNL     1      -0.240   1.186   5.199  0.00  0.00    +0.042 C 
ATOM     17  C   UNL     1       0.891   3.185   4.211  0.00  0.00    +0.042 C 
ATOM     18  H   UNL     1      -2.563   3.201   1.989  0.00  0.00    +0.155 HD
ENDBRANCH   2   3
BRANCH   2  19
ATOM     19  S   UNL     1       2.001  -2.063   4.557  0.00  0.00    -0.075 S 
BRANCH  19  20
ATOM     20  C   UNL     1       2.182  -2.283   6.296  0.00  0.00    +0.173 A 
ATOM     21  N   UNL     1       1.876  -1.285   7.087  0.00  0.00    -0.223 NA
ATOM     22  C   UNL     1       1.990  -1.384   8.427  0.00  0.00    +0.079 A 
ATOM     23  C   UNL     1       1.664  -0.318   9.271  0.00  0.00    +0.028 A 
ATOM     24  C   UNL     1       1.796  -0.462  10.623  0.00  0.00    +0.002 A 
ATOM     25  C   UNL     1       2.250  -1.654  11.175  0.00  0.00    +0.001 A 
ATOM     26  C   UNL     1       2.577  -2.714  10.375  0.00  0.00    +0.015 A 
ATOM     27  C   UNL     1       2.452  -2.595   8.991  0.00  0.00    +0.065 A 
ATOM     28  C   UNL     1       2.789  -3.700   8.084  0.00  0.00    +0.262 A 
ATOM     29  O   UNL     1       3.192  -4.766   8.509  0.00  0.00    -0.267 OA
ATOM     30  N   UNL     1       2.630  -3.488   6.756  0.00  0.00    -0.287 N 
BRANCH  30  31
ATOM     31  C   UNL     1       2.946  -4.558   5.806  0.00  0.00    +0.138 C 
BRANCH  31  32
ATOM     32  C   UNL     1       4.416  -4.457   5.394  0.00  0.00    +0.142 C 
BRANCH  32  33
ATOM     33  C   UNL     1       4.741  -5.557   4.417  0.00  0.00    +0.309 C 
ATOM     34  O   UNL     1       3.884  -6.342   4.085  0.00  0.00    -0.251 OA
BRANCH  33  35
ATOM     35  O   UNL     1       5.981  -5.665   3.916  0.00  0.00    -0.468 OA
ATOM     36  C   UNL     1       6.222  -6.749   2.980  0.00  0.00    +0.280 C 
ENDBRANCH  33  35
ENDBRANCH  32  33
ENDBRANCH  31  32
ENDBRANCH  30  31
ENDBRANCH  19  20
ENDBRANCH   2  19
TORSDOF 7
