REMARK  Name = ZINC61972685
REMARK  5 active torsions:
REMARK  status: ('A' for Active; 'I' for Inactive)
REMARK    1  A    between atoms: C_4  and  C_7
REMARK    2  A    between atoms: C_9  and  C_26
REMARK    3  A    between atoms: C_10  and  N_12
REMARK    4  A    between atoms: C_13  and  C_15
REMARK    5  A    between atoms: C_16  and  C_17
REMARK                            x       y       z     vdW  Elec       q    Type
REMARK                         _______ _______ _______ _____ _____    ______ ____
ROOT
ATOM      1  C   UNL     1       3.695  -0.684  -0.037  0.00  0.00    +0.022 A 
ATOM      2  C   UNL     1       3.921  -2.027  -0.052  0.00  0.00    +0.031 A 
ATOM      3  C   UNL     1       5.258  -2.430  -0.067  0.00  0.00    +0.066 A 
ATOM      4  C   UNL     1       6.229  -1.435  -0.065  0.00  0.00    +0.085 A 
ATOM      5  S   UNL     1       5.343  -0.008  -0.051  0.00  0.00    -0.073 S 
ENDROOT
BRANCH   1   9
ATOM      6  C   UNL     1      -0.017   1.379   0.010  0.00  0.00    +0.000 A 
ATOM      7  C   UNL     1       1.168   2.094   0.002  0.00  0.00    +0.001 A 
ATOM      8  C   UNL     1       2.377   1.429  -0.013  0.00  0.00    +0.009 A 
ATOM      9  C   UNL     1       2.404   0.034  -0.021  0.00  0.00    -0.011 A 
ATOM     10  C   UNL     1       1.204  -0.681  -0.013  0.00  0.00    +0.009 A 
ATOM     11  C   UNL     1       0.002  -0.004   0.002  0.00  0.00    +0.001 A 
ENDBRANCH   1   9
BRANCH   3  12
ATOM     12  C   UNL     1       5.624  -3.850  -0.083  0.00  0.00    +0.244 C 
ATOM     13  O   UNL     1       6.796  -4.176  -0.095  0.00  0.00    -0.270 OA
ATOM     14  N   UNL     1       4.662  -4.794  -0.085  0.00  0.00    -0.325 N 
ATOM     15  H   UNL     1       3.727  -4.534  -0.075  0.00  0.00    +0.145 HD
ATOM     16  H   UNL     1       4.904  -5.734  -0.096  0.00  0.00    +0.145 HD
ENDBRANCH   3  12
BRANCH   4  17
ATOM     17  N   UNL     1       7.604  -1.585  -0.077  0.00  0.00    -0.276 N 
ATOM     18  C   UNL     1       8.401  -0.497  -0.073  0.00  0.00    +0.241 C 
ATOM     19  O   UNL     1       7.910   0.617  -0.058  0.00  0.00    -0.270 OA
ATOM     20  H   UNL     1       7.995  -2.472  -0.089  0.00  0.00    +0.156 HD
BRANCH  18  21
ATOM     21  C   UNL     1       9.854  -0.656  -0.086  0.00  0.00    +0.068 C 
ATOM     22  C   UNL     1      10.652   0.433  -0.082  0.00  0.00    +0.013 C 
BRANCH  22  23
ATOM     23  C   UNL     1      12.113   0.274  -0.095  0.00  0.00    -0.021 A 
ATOM     24  C   UNL     1      12.679  -1.006  -0.118  0.00  0.00    +0.012 A 
ATOM     25  C   UNL     1      14.049  -1.152  -0.130  0.00  0.00    +0.050 A 
ATOM     26  C   UNL     1      14.872  -0.033  -0.120  0.00  0.00    +0.166 A 
ATOM     27  C   UNL     1      14.314   1.246  -0.097  0.00  0.00    +0.167 A 
ATOM     28  C   UNL     1      12.942   1.402  -0.091  0.00  0.00    +0.057 A 
ATOM     29  O   UNL     1      15.326   2.163  -0.091  0.00  0.00    -0.453 OA
ATOM     30  C   UNL     1      16.503   1.432   0.303  0.00  0.00    +0.466 C 
ATOM     31  O   UNL     1      16.231   0.086  -0.129  0.00  0.00    -0.453 OA
ENDBRANCH  22  23
ENDBRANCH  18  21
ENDBRANCH   4  17
TORSDOF 5
