REMARK  Name = ZINC20206418
REMARK  7 active torsions:
REMARK  status: ('A' for Active; 'I' for Inactive)
REMARK    1  A    between atoms: C_1  and  C_2
REMARK    2  A    between atoms: C_4  and  C_16
REMARK    3  A    between atoms: C_5  and  C_15
REMARK    4  A    between atoms: N_6  and  C_7
REMARK    5  A    between atoms: C_12  and  C_13
REMARK    6  A    between atoms: C_27  and  S_28
REMARK    7  A    between atoms: S_28  and  C_31
REMARK                            x       y       z     vdW  Elec       q    Type
REMARK                         _______ _______ _______ _____ _____    ______ ____
ROOT
ATOM      1  C   UNL     1       0.096  -3.237  -1.055  0.00  0.00    +0.026 C 
ATOM      2  C   UNL     1      -0.514  -3.296  -2.291  0.00  0.00    +0.078 C 
ATOM      3  C   UNL     1      -0.505  -4.538  -3.114  0.00  0.00    +0.117 C 
ATOM      4  N   UNL     1      -0.518  -5.740  -2.603  0.00  0.00    -0.386 N 
ATOM      5  N   UNL     1      -0.482  -4.285  -4.501  0.00  0.00    -0.203 N 
ATOM      6  C   UNL     1      -0.949  -3.069  -4.953  0.00  0.00    +0.183 C 
ATOM      7  N   UNL     1      -1.333  -2.053  -4.214  0.00  0.00    -0.152 NA
ATOM      8  C   UNL     1      -1.220  -2.128  -2.872  0.00  0.00    +0.273 C 
ATOM      9  O   UNL     1      -1.683  -1.257  -2.153  0.00  0.00    -0.268 OA
ATOM     10  S   UNL     1      -0.877  -3.226  -6.611  0.00  0.00    +0.049 S 
ATOM     11  N   UNL     1      -0.174  -4.745  -6.710  0.00  0.00    -0.174 NA
ATOM     12  C   UNL     1      -0.052  -5.121  -5.475  0.00  0.00    +0.257 C 
ATOM     13  H   UNL     1      -0.435  -5.860  -1.644  0.00  0.00    +0.157 HD
ATOM     14  H   UNL     1      -0.610  -6.513  -3.182  0.00  0.00    +0.157 HD
ENDROOT
BRANCH   1  18
ATOM     15  C   UNL     1       0.795   1.718  -0.107  0.00  0.00    +0.064 C 
ATOM     16  C   UNL     1       0.536   0.240   0.038  0.00  0.00    +0.022 A 
ATOM     17  C   UNL     1       0.510  -0.647  -0.970  0.00  0.00    +0.031 A 
ATOM     18  C   UNL     1       0.224  -1.956  -0.364  0.00  0.00    -0.003 A 
ATOM     19  C   UNL     1       0.101  -1.725   0.996  0.00  0.00    +0.028 A 
ATOM     20  N   UNL     1       0.296  -0.410   1.217  0.00  0.00    -0.317 N 
ATOM     21  C   UNL     1      -0.194  -2.765   2.047  0.00  0.00    +0.064 C 
BRANCH  20  22
ATOM     22  C   UNL     1       0.255   0.205   2.476  0.00  0.00    +0.051 A 
ATOM     23  C   UNL     1      -0.945   0.698   2.970  0.00  0.00    +0.026 A 
ATOM     24  C   UNL     1      -0.984   1.304   4.211  0.00  0.00    +0.003 A 
ATOM     25  C   UNL     1       0.172   1.419   4.961  0.00  0.00    +0.020 A 
ATOM     26  C   UNL     1       1.370   0.930   4.472  0.00  0.00    +0.046 A 
ATOM     27  C   UNL     1       1.413   0.317   3.233  0.00  0.00    -0.008 A 
ATOM     28  C   UNL     1       2.716  -0.223   2.703  0.00  0.00    +0.047 C 
ATOM     29 CL   UNL     1       2.819   1.077   5.417  0.00  0.00    -0.083 Cl
ENDBRANCH  20  22
ENDBRANCH   1  18
BRANCH  12  30
ATOM     30  S   UNL     1       0.657  -6.683  -5.074  0.00  0.00    +0.026 S 
ATOM     31  O   UNL     1       1.423  -7.037  -6.217  0.00  0.00    -0.167 OA
ATOM     32  O   UNL     1       1.284  -6.485  -3.814  0.00  0.00    -0.167 OA
ATOM     33  C   UNL     1      -0.757  -7.806  -4.898  0.00  0.00    +0.203 C 
ENDBRANCH  12  30
TORSDOF 3
