REMARK  Name = ZINC09059530
REMARK  10 active torsions:
REMARK  status: ('A' for Active; 'I' for Inactive)
REMARK    1  A    between atoms: C_1  and  C_2
REMARK    2  A    between atoms: C_2  and  C_3
REMARK    3  A    between atoms: C_3  and  C_4
REMARK    4  A    between atoms: C_9  and  C_10
REMARK    5  A    between atoms: C_10  and  C_11
REMARK    6  A    between atoms: N_12  and  C_13
REMARK    7  A    between atoms: C_15  and  C_20
REMARK    8  A    between atoms: C_15  and  C_21
REMARK    9  A    between atoms: C_16  and  C_18
REMARK   10  A    between atoms: C_16  and  C_19
REMARK                            x       y       z     vdW  Elec       q    Type
REMARK                         _______ _______ _______ _____ _____    ______ ____
ROOT
ATOM      1  C   UNL     1      -3.240   2.993   0.113  0.00  0.00    +0.055 C 
ATOM      2  N   UNL     1      -2.402   2.006   0.026  0.00  0.00    -0.179 NA
ATOM      3  N   UNL     1      -1.082   2.457   0.056  0.00  0.00    -0.135 N 
ATOM      4  C   UNL     1      -1.054   3.800   0.171  0.00  0.00    +0.255 C 
ATOM      5  O   UNL     1      -0.065   4.511   0.229  0.00  0.00    -0.272 OA
ATOM      6  C   UNL     1      -2.456   4.234   0.211  0.00  0.00    +0.167 C 
ATOM      7  C   UNL     1       0.038   1.642  -0.018  0.00  0.00    +0.189 A 
ATOM      8  N   UNL     1       1.306   1.982  -0.003  0.00  0.00    -0.223 NA
ATOM      9  C   UNL     1       2.302   1.074  -0.088  0.00  0.00    +0.080 A 
ATOM     10  C   UNL     1       3.697   1.306  -0.083  0.00  0.00    +0.029 A 
ATOM     11  C   UNL     1       4.580   0.262  -0.178  0.00  0.00    +0.002 A 
ATOM     12  C   UNL     1       4.143  -1.051  -0.281  0.00  0.00    +0.001 A 
ATOM     13  C   UNL     1       2.786  -1.314  -0.289  0.00  0.00    +0.017 A 
ATOM     14  C   UNL     1       1.893  -0.275  -0.195  0.00  0.00    +0.041 A 
ATOM     15  S   UNL     1       0.122  -0.137  -0.165  0.00  0.00    -0.050 S 
ENDROOT
BRANCH   6  16
ATOM     16  C   UNL     1      -2.936   5.528   0.321  0.00  0.00    +0.028 C 
ATOM     17  C   UNL     1      -4.415   5.773   0.469  0.00  0.00    +0.061 C 
ATOM     18  N   UNL     1      -2.079   6.569   0.296  0.00  0.00    -0.288 NA
BRANCH  18  19
ATOM     19  C   UNL     1      -2.588   7.941   0.413  0.00  0.00    +0.103 C 
ATOM     20  C   UNL     1      -2.991   8.449  -0.971  0.00  0.00    +0.014 C 
ATOM     21  C   UNL     1      -3.494   9.888  -0.888  0.00  0.00    -0.071 C 
ATOM     22  C   UNL     1      -1.991  10.278   1.084  0.00  0.00    -0.071 C 
ATOM     23  C   UNL     1      -1.477   8.845   0.952  0.00  0.00    +0.014 C 
ATOM     24  C   UNL     1      -2.946  10.377   2.277  0.00  0.00    -0.010 C 
ATOM     25  C   UNL     1      -0.775  11.181   1.391  0.00  0.00    -0.010 C 
ATOM     26  C   UNL     1      -4.914   9.901  -0.310  0.00  0.00    -0.010 C 
ATOM     27  C   UNL     1      -3.584  10.432  -2.332  0.00  0.00    -0.010 C 
ATOM     28  N   UNL     1      -2.600  10.826  -0.159  0.00  0.00    +0.386 N 
ATOM     29  H   UNL     1      -3.149  11.656   0.095  0.00  0.00    -0.084 HD
ATOM     30  H   UNL     1      -1.840  11.100  -0.792  0.00  0.00    -0.084 HD
ENDBRANCH  18  19
ENDBRANCH   6  16
BRANCH   1  31
ATOM     31  C   UNL     1      -4.743   2.887   0.113  0.00  0.00    +0.053 C 
BRANCH  31  33
ATOM     32  C   UNL     1      -6.677   1.308   0.021  0.00  0.00    +0.004 C 
ATOM     33  C   UNL     1      -5.151   1.416   0.021  0.00  0.00    +0.003 C 
ENDBRANCH  31  33
ENDBRANCH   1  31
TORSDOF 4
