REMARK  Name = ZINC63351024
REMARK  13 active torsions:
REMARK  status: ('A' for Active; 'I' for Inactive)
REMARK    1  A    between atoms: C_1  and  C_2
REMARK    2  A    between atoms: C_2  and  C_3
REMARK    3  A    between atoms: C_12  and  O_14
REMARK    4  A    between atoms: O_14  and  C_15
REMARK    5  A    between atoms: C_15  and  C_17
REMARK    6  A    between atoms: C_17  and  C_19
REMARK    7  A    between atoms: C_17  and  N_29
REMARK    8  A    between atoms: C_19  and  C_20
REMARK    9  A    between atoms: C_30  and  O_32
REMARK   10  A    between atoms: O_32  and  C_33
REMARK   11  A    between atoms: C_33  and  C_34
REMARK   12  A    between atoms: C_33  and  C_35
REMARK   13  A    between atoms: C_33  and  C_36
REMARK                            x       y       z     vdW  Elec       q    Type
REMARK                         _______ _______ _______ _____ _____    ______ ____
ROOT
ATOM      1  C   UNL     1      -4.283  -1.212   7.253  0.00  0.00    +0.189 C 
ENDROOT
BRANCH   1   2
ATOM      2  N   UNL     1      -3.276  -1.356   8.307  0.00  0.00    -0.268 N 
ATOM      3  C   UNL     1      -2.435  -0.338   8.579  0.00  0.00    +0.401 C 
ATOM      4  O   UNL     1      -2.513   0.698   7.950  0.00  0.00    -0.226 OA
ATOM      5  H   UNL     1      -3.214  -2.184   8.809  0.00  0.00    +0.153 HD
BRANCH   3   6
ATOM      6  O   UNL     1      -1.510  -0.470   9.548  0.00  0.00    -0.445 OA
BRANCH   6   7
ATOM      7  C   UNL     1      -0.652   0.649   9.782  0.00  0.00    +0.107 C 
ATOM      8  C   UNL     1      -1.494   1.862  10.181  0.00  0.00    +0.055 C 
ATOM      9  C   UNL     1       0.326   0.314  10.910  0.00  0.00    +0.055 C 
ATOM     10  C   UNL     1       0.131   0.968   8.506  0.00  0.00    +0.055 C 
ENDBRANCH   6   7
ENDBRANCH   3   6
ENDBRANCH   1   2
BRANCH   1  11
ATOM     11  C   UNL     1      -3.599  -0.944   5.938  0.00  0.00    +0.333 C 
ATOM     12  O   UNL     1      -2.466  -0.525   5.920  0.00  0.00    -0.248 OA
BRANCH  11  13
ATOM     13  O   UNL     1      -4.249  -1.171   4.784  0.00  0.00    -0.424 OA
BRANCH  13  23
ATOM     14  C   UNL     1      -1.405  -0.583   0.009  0.00  0.00    -0.030 A 
ATOM     15  C   UNL     1      -0.433  -1.493  -0.261  0.00  0.00    +0.096 A 
ATOM     16  C   UNL     1      -0.180  -2.540   0.649  0.00  0.00    +0.337 A 
ATOM     17  O   UNL     1       0.694  -3.349   0.395  0.00  0.00    -0.245 OA
ATOM     18  O   UNL     1      -0.877  -2.667   1.789  0.00  0.00    -0.422 OA
ATOM     19  C   UNL     1      -1.856  -1.797   2.118  0.00  0.00    +0.143 A 
ATOM     20  C   UNL     1      -2.158  -0.725   1.258  0.00  0.00    +0.021 A 
ATOM     21  C   UNL     1      -3.168   0.182   1.597  0.00  0.00    +0.015 A 
ATOM     22  C   UNL     1      -3.854   0.027   2.767  0.00  0.00    +0.047 A 
ATOM     23  C   UNL     1      -3.557  -1.030   3.624  0.00  0.00    +0.135 A 
ATOM     24  C   UNL     1      -2.567  -1.944   3.299  0.00  0.00    +0.093 A 
BRANCH  14  26
ATOM     25  C   UNL     1      -2.850   0.149  -1.868  0.00  0.00    +0.009 C 
ATOM     26  C   UNL     1      -1.696   0.546  -0.946  0.00  0.00    +0.033 C 
ENDBRANCH  14  26
ENDBRANCH  13  23
ENDBRANCH  11  13
ENDBRANCH   1  11
BRANCH   1  27
ATOM     27  C   UNL     1      -5.213  -0.045   7.592  0.00  0.00    +0.067 C 
BRANCH  27  28
ATOM     28  C   UNL     1      -5.988  -0.368   8.843  0.00  0.00    -0.039 C 
ATOM     29  C   UNL     1      -5.676  -0.008  10.109  0.00  0.00    -0.001 A 
ATOM     30  C   UNL     1      -4.563   0.762  10.678  0.00  0.00    +0.010 A 
ATOM     31  C   UNL     1      -4.519   0.962  12.014  0.00  0.00    +0.001 A 
ATOM     32  C   UNL     1      -5.508   0.455  12.868  0.00  0.00    +0.002 A 
ATOM     33  C   UNL     1      -6.561  -0.261  12.420  0.00  0.00    +0.026 A 
ATOM     34  C   UNL     1      -6.708  -0.532  11.032  0.00  0.00    +0.043 A 
ATOM     35  N   UNL     1      -7.622  -1.191  10.363  0.00  0.00    -0.380 N 
ATOM     36  C   UNL     1      -7.277  -1.154   8.937  0.00  0.00    +0.144 C 
ATOM     37  H   UNL     1      -8.400  -1.627  10.746  0.00  0.00    +0.160 HD
ENDBRANCH  27  28
ENDBRANCH   1  27
TORSDOF 9
