REMARK  Name = ZINC19774833
REMARK  5 active torsions:
REMARK  status: ('A' for Active; 'I' for Inactive)
REMARK    1  A    between atoms: C_1  and  C_2
REMARK    2  A    between atoms: C_5  and  S_8
REMARK    3  A    between atoms: S_8  and  N_11
REMARK    4  A    between atoms: N_11  and  C_12
REMARK    5  A    between atoms: C_23  and  N_30
REMARK                            x       y       z     vdW  Elec       q    Type
REMARK                         _______ _______ _______ _____ _____    ______ ____
ROOT
ATOM      1  C   UNL     1       2.424   1.062   0.117  0.00  0.00    +0.056 A 
ATOM      2  C   UNL     1       3.478   1.916   0.353  0.00  0.00    +0.032 A 
ATOM      3  C   UNL     1       3.279   3.283   0.486  0.00  0.00    +0.005 A 
ATOM      4  C   UNL     1       2.015   3.830   0.402  0.00  0.00    +0.135 A 
ATOM      5  C   UNL     1       0.916   2.982   0.156  0.00  0.00    +0.026 A 
ATOM      6  C   UNL     1       1.119   1.589   0.007  0.00  0.00    +0.008 A 
ATOM      7  C   UNL     1       0.020   0.753  -0.246  0.00  0.00    +0.010 A 
ATOM      8  C   UNL     1      -1.227   1.291  -0.345  0.00  0.00    +0.001 A 
ATOM      9  C   UNL     1      -1.430   2.660  -0.187  0.00  0.00    +0.001 A 
ATOM     10  C   UNL     1      -0.387   3.500   0.056  0.00  0.00    +0.012 A 
ATOM     11  O   UNL     1       2.045   5.194   0.602  0.00  0.00    -0.470 OA
ATOM     12  C   UNL     1       3.204   5.446   1.378  0.00  0.00    +0.172 C 
ATOM     13  C   UNL     1       4.198   4.444   0.719  0.00  0.00    +0.082 C 
ATOM     14  C   UNL     1       5.349   4.280   1.689  0.00  0.00    +0.013 C 
ATOM     15  C   UNL     1       6.058   5.643   1.777  0.00  0.00    +0.001 C 
ATOM     16  C   UNL     1       5.103   6.755   2.200  0.00  0.00    +0.005 C 
ATOM     17  C   UNL     1       3.856   6.812   1.319  0.00  0.00    +0.065 C 
ENDROOT
BRANCH  12  18
ATOM     18  N   UNL     1       2.964   5.067   2.776  0.00  0.00    -0.260 NA
ATOM     19  C   UNL     1       2.329   3.744   2.862  0.00  0.00    +0.116 C 
ATOM     20  C   UNL     1       2.151   3.364   4.334  0.00  0.00    +0.175 C 
ATOM     21  O   UNL     1       1.385   4.375   4.994  0.00  0.00    -0.377 OA
ATOM     22  C   UNL     1       1.974   5.677   4.931  0.00  0.00    +0.175 C 
ATOM     23  C   UNL     1       2.151   6.081   3.464  0.00  0.00    +0.116 C 
ENDBRANCH  12  18
BRANCH   1  24
ATOM     24  N   UNL     1       2.644  -0.311  -0.013  0.00  0.00    -0.216 N 
ATOM     25  H   UNL     1       2.042  -0.900  -0.721  0.00  0.00    +0.174 HD
BRANCH  24  26
ATOM     26  S   UNL     1       3.810  -1.053   0.899  0.00  0.00    +0.072 S 
ATOM     27  O   UNL     1       3.710  -2.445   0.633  0.00  0.00    -0.150 OA
ATOM     28  O   UNL     1       5.012  -0.322   0.693  0.00  0.00    -0.150 OA
BRANCH  26  33
ATOM     29  C   UNL     1       2.301  -0.293   6.691  0.00  0.00    +0.044 C 
ATOM     30  C   UNL     1       2.678  -0.482   5.244  0.00  0.00    -0.050 A 
ATOM     31  C   UNL     1       2.225  -1.589   4.552  0.00  0.00    +0.005 A 
ATOM     32  C   UNL     1       2.571  -1.764   3.225  0.00  0.00    +0.029 A 
ATOM     33  C   UNL     1       3.369  -0.831   2.590  0.00  0.00    +0.109 A 
ATOM     34  C   UNL     1       3.826   0.274   3.284  0.00  0.00    +0.029 A 
ATOM     35  C   UNL     1       3.476   0.451   4.610  0.00  0.00    +0.005 A 
ENDBRANCH  26  33
ENDBRANCH  24  26
ENDBRANCH   1  24
TORSDOF 4
