REMARK  Name = ZINC01175519
REMARK  6 active torsions:
REMARK  status: ('A' for Active; 'I' for Inactive)
REMARK    1  A    between atoms: C_1  and  C_2
REMARK    2  A    between atoms: C_3  and  C_30
REMARK    3  A    between atoms: C_4  and  C_21
REMARK    4  A    between atoms: C_10  and  C_15
REMARK    5  A    between atoms: C_24  and  N_27
REMARK    6  A    between atoms: N_32  and  C_33
REMARK                            x       y       z     vdW  Elec       q    Type
REMARK                         _______ _______ _______ _____ _____    ______ ____
ROOT
ATOM      1  C   UNL     1      -3.533   7.611   0.246  0.00  0.00    +0.061 C 
ATOM      2  C   UNL     1      -2.199   8.310   0.196  0.00  0.00    +0.014 C 
ATOM      3  C   UNL     1      -1.069   7.586   0.122  0.00  0.00    +0.043 C 
ATOM      4  C   UNL     1       0.277   8.247   0.074  0.00  0.00    +0.090 C 
ATOM      5  C   UNL     1       0.154   9.701  -0.303  0.00  0.00    +0.024 C 
ATOM      6  C   UNL     1      -1.032  10.340  -0.208  0.00  0.00    +0.016 C 
ATOM      7  N   UNL     1      -2.145   9.676   0.232  0.00  0.00    -0.321 N 
ATOM      8  C   UNL     1      -1.164  11.795  -0.586  0.00  0.00    +0.059 C 
ATOM      9  C   UNL     1       0.158  12.518  -0.317  0.00  0.00    +0.032 C 
ATOM     10  C   UNL     1       1.262  11.828  -1.127  0.00  0.00    +0.088 C 
ATOM     11  C   UNL     1       1.305  10.371  -0.753  0.00  0.00    +0.162 C 
ATOM     12  O   UNL     1       2.353   9.764  -0.842  0.00  0.00    -0.292 OA
ATOM     13  H   UNL     1      -3.001  10.250   0.617  0.00  0.00    +0.152 HD
ENDROOT
BRANCH   9  14
ATOM     14  C   UNL     1       0.043  13.959  -0.743  0.00  0.00    -0.044 A 
ATOM     15  C   UNL     1      -0.239  14.270  -2.060  0.00  0.00    +0.004 A 
ATOM     16  C   UNL     1      -0.348  15.591  -2.450  0.00  0.00    +0.000 A 
ATOM     17  C   UNL     1      -0.168  16.602  -1.524  0.00  0.00    +0.000 A 
ATOM     18  C   UNL     1       0.118  16.291  -0.208  0.00  0.00    +0.000 A 
ATOM     19  C   UNL     1       0.224  14.969   0.182  0.00  0.00    +0.004 A 
ENDBRANCH   9  14
BRANCH   4  20
ATOM     20  C   UNL     1       0.929   8.142   1.429  0.00  0.00    -0.035 A 
ATOM     21  C   UNL     1       0.320   8.706   2.534  0.00  0.00    +0.007 A 
ATOM     22  C   UNL     1       0.915   8.605   3.778  0.00  0.00    +0.033 A 
ATOM     23  C   UNL     1       2.124   7.949   3.914  0.00  0.00    +0.126 A 
ATOM     24  C   UNL     1       2.736   7.390   2.808  0.00  0.00    +0.033 A 
ATOM     25  C   UNL     1       2.138   7.486   1.565  0.00  0.00    +0.007 A 
BRANCH  23  26
ATOM     26  N   UNL     1       2.764   7.847   5.245  0.00  0.00    +0.056 N 
ATOM     27  O   UNL     1       3.830   7.270   5.365  0.00  0.00    -0.126 OA
ATOM     28  O   UNL     1       2.225   8.340   6.220  0.00  0.00    -0.126 OA
ENDBRANCH  23  26
ENDBRANCH   4  20
BRANCH   3  29
ATOM     29  C   UNL     1      -1.151   6.173   0.084  0.00  0.00    +0.247 C 
ATOM     30  O   UNL     1      -0.896   5.576  -0.947  0.00  0.00    -0.270 OA
ATOM     31  N   UNL     1      -1.512   5.488   1.187  0.00  0.00    -0.282 N 
ATOM     32  H   UNL     1      -1.807   6.029   2.098  0.00  0.00    +0.155 HD
BRANCH  31  33
ATOM     33  C   UNL     1      -1.512   4.088   1.174  0.00  0.00    +0.034 A 
ATOM     34  C   UNL     1      -1.156   3.382   2.315  0.00  0.00    +0.026 A 
ATOM     35  C   UNL     1      -1.157   2.001   2.300  0.00  0.00    +0.040 A 
ATOM     36  C   UNL     1      -1.513   1.321   1.147  0.00  0.00    +0.124 A 
ATOM     37  C   UNL     1      -1.863   2.023   0.007  0.00  0.00    +0.040 A 
ATOM     38  C   UNL     1      -1.868   3.404   0.019  0.00  0.00    +0.026 A 
ATOM     39  F   UNL     1      -1.513  -0.030   1.135  0.00  0.00    -0.205 F 
ENDBRANCH  31  33
ENDBRANCH   3  29
TORSDOF 5
