REMARK  Name = ZINC33619411
REMARK  7 active torsions:
REMARK  status: ('A' for Active; 'I' for Inactive)
REMARK    1  A    between atoms: C_3  and  C_18
REMARK    2  A    between atoms: C_5  and  O_7
REMARK    3  A    between atoms: O_7  and  C_8
REMARK    4  A    between atoms: C_12  and  C_14
REMARK    5  A    between atoms: C_29  and  C_31
REMARK    6  A    between atoms: C_29  and  C_35
REMARK    7  A    between atoms: C_31  and  C_32
REMARK                            x       y       z     vdW  Elec       q    Type
REMARK                         _______ _______ _______ _____ _____    ______ ____
ROOT
ATOM      1  C   UNL     1       3.470   2.059  -1.449  0.00  0.00    -0.027 C 
ATOM      2  C   UNL     1       3.456   2.278  -2.958  0.00  0.00    +0.078 C 
ATOM      3  C   UNL     1       4.538   3.424  -2.996  0.00  0.00    +0.088 C 
ATOM      4  C   UNL     1       4.944   3.416  -4.379  0.00  0.00    +0.242 C 
ATOM      5  O   UNL     1       5.391   4.457  -5.097  0.00  0.00    -0.273 OA
ATOM      6  N   UNL     1       4.783   2.159  -4.798  0.00  0.00    -0.145 NA
ATOM      7  C   UNL     1       4.158   1.342  -3.890  0.00  0.00    +0.242 C 
ATOM      8  O   UNL     1       4.173   0.129  -3.842  0.00  0.00    -0.273 OA
ATOM      9  C   UNL     1       4.089   4.352  -1.950  0.00  0.00    +0.058 C 
ATOM     10  N   UNL     1       3.477   3.454  -0.899  0.00  0.00    +0.396 N 
ATOM     11  H   UNL     1       2.531   3.754  -0.715  0.00  0.00    -0.083 HD
ATOM     12  H   UNL     1       4.020   3.485  -0.050  0.00  0.00    -0.083 HD
ENDROOT
BRANCH   1  15
ATOM     13  C   UNL     1      -0.105   1.311  -0.489  0.00  0.00    +0.004 A 
ATOM     14  C   UNL     1       1.031   1.988  -0.894  0.00  0.00    +0.002 A 
ATOM     15  C   UNL     1       2.235   1.318  -1.007  0.00  0.00    -0.057 A 
ATOM     16  C   UNL     1       2.306  -0.031  -0.716  0.00  0.00    +0.048 A 
ATOM     17  C   UNL     1       1.168  -0.712  -0.309  0.00  0.00    +0.129 A 
ATOM     18  C   UNL     1      -0.039  -0.037  -0.196  0.00  0.00    +0.046 A 
BRANCH  17  19
ATOM     19  O   UNL     1       1.235  -2.039  -0.022  0.00  0.00    -0.456 OA
BRANCH  19  20
ATOM     20  C   UNL     1       2.439  -2.658  -0.142  0.00  0.00    +0.129 A 
ATOM     21  C   UNL     1       3.306  -2.707   0.940  0.00  0.00    +0.046 A 
ATOM     22  C   UNL     1       4.529  -3.337   0.815  0.00  0.00    +0.004 A 
ATOM     23  C   UNL     1       4.890  -3.916  -0.388  0.00  0.00    +0.012 A 
ATOM     24  C   UNL     1       4.029  -3.868  -1.468  0.00  0.00    +0.058 A 
ATOM     25  C   UNL     1       2.801  -3.245  -1.346  0.00  0.00    +0.058 A 
BRANCH  24  26
ATOM     26  C   UNL     1       4.426  -4.500  -2.776  0.00  0.00    +0.418 C 
ATOM     27  F   UNL     1       5.698  -5.068  -2.653  0.00  0.00    -0.166 F 
ATOM     28  F   UNL     1       3.501  -5.494  -3.113  0.00  0.00    -0.166 F 
ATOM     29  F   UNL     1       4.446  -3.524  -3.779  0.00  0.00    -0.166 F 
ENDBRANCH  24  26
ENDBRANCH  19  20
ENDBRANCH  17  19
ENDBRANCH   1  15
BRANCH   9  30
ATOM     30  C   UNL     1       3.077   5.321  -2.506  0.00  0.00    +0.347 C 
ATOM     31  O   UNL     1       1.954   5.367  -2.035  0.00  0.00    -0.248 OA
ATOM     32  O   UNL     1       3.382   6.060  -3.427  0.00  0.00    -0.248 OA
ENDBRANCH   9  30
BRANCH   9  33
ATOM     33  C   UNL     1       5.282   5.105  -1.357  0.00  0.00    +0.125 C 
BRANCH  33  34
ATOM     34  C   UNL     1       4.814   5.959  -0.206  0.00  0.00    +0.355 C 
ATOM     35  O   UNL     1       3.637   5.965   0.110  0.00  0.00    -0.246 OA
ATOM     36  O   UNL     1       5.614   6.644   0.408  0.00  0.00    -0.246 OA
ENDBRANCH  33  34
ENDBRANCH   9  33
TORSDOF 7
