REMARK  Name = ZINC09291057
REMARK  7 active torsions:
REMARK  status: ('A' for Active; 'I' for Inactive)
REMARK    1  A    between atoms: C_4  and  C_7
REMARK    2  A    between atoms: C_7  and  O_8
REMARK    3  A    between atoms: O_8  and  C_9
REMARK    4  A    between atoms: C_12  and  C_15
REMARK    5  A    between atoms: C_22  and  N_33
REMARK    6  A    between atoms: C_23  and  C_31
REMARK    7  A    between atoms: C_24  and  C_26
REMARK                            x       y       z     vdW  Elec       q    Type
REMARK                         _______ _______ _______ _____ _____    ______ ____
ROOT
ATOM      1  C   UNL     1       8.950  -3.645   1.992  0.00  0.00    +0.074 A 
ATOM      2  C   UNL     1       9.997  -3.285   2.773  0.00  0.00    +0.054 A 
ATOM      3  C   UNL     1      11.007  -4.257   2.627  0.00  0.00    +0.245 A 
ATOM      4  N   UNL     1      10.585  -5.163   1.791  0.00  0.00    -0.135 NA
ATOM      5  N   UNL     1       9.291  -4.815   1.374  0.00  0.00    -0.273 N 
ATOM      6  H   UNL     1       8.736  -5.316   0.755  0.00  0.00    +0.189 HD
ATOM      7  O   UNL     1      12.190  -4.172   3.293  0.00  0.00    -0.421 OA
ATOM      8  C   UNL     1      12.272  -3.284   4.304  0.00  0.00    +0.201 C 
ATOM      9  C   UNL     1      11.373  -2.304   4.536  0.00  0.00    +0.098 C 
ATOM     10  C   UNL     1      10.157  -2.086   3.672  0.00  0.00    +0.102 C 
ENDROOT
BRANCH   1  14
ATOM     11  C   UNL     1       5.285  -1.538   1.558  0.00  0.00    +0.121 A 
ATOM     12  C   UNL     1       5.957  -1.997   0.433  0.00  0.00    +0.046 A 
ATOM     13  C   UNL     1       7.147  -2.681   0.570  0.00  0.00    +0.013 A 
ATOM     14  C   UNL     1       7.675  -2.911   1.841  0.00  0.00    +0.000 A 
ATOM     15  C   UNL     1       6.996  -2.448   2.969  0.00  0.00    +0.013 A 
ATOM     16  C   UNL     1       5.810  -1.761   2.824  0.00  0.00    +0.046 A 
BRANCH  11  17
ATOM     17  O   UNL     1       4.113  -0.865   1.419  0.00  0.00    -0.487 OA
BRANCH  17  18
ATOM     18  C   UNL     1       3.630  -0.671   0.088  0.00  0.00    +0.264 C 
BRANCH  18  22
ATOM     19  C   UNL     1      -0.056   1.484   0.209  0.00  0.00    +0.000 A 
ATOM     20  C   UNL     1       1.142   2.168   0.123  0.00  0.00    +0.000 A 
ATOM     21  C   UNL     1       2.335   1.471   0.084  0.00  0.00    +0.007 A 
ATOM     22  C   UNL     1       2.329   0.089   0.132  0.00  0.00    -0.010 A 
ATOM     23  C   UNL     1       1.131  -0.595   0.219  0.00  0.00    +0.007 A 
ATOM     24  C   UNL     1      -0.062   0.103   0.257  0.00  0.00    +0.000 A 
ENDBRANCH  18  22
ENDBRANCH  17  18
ENDBRANCH  11  17
ENDBRANCH   1  14
BRANCH  10  25
ATOM     25  C   UNL     1      10.342  -0.845   2.837  0.00  0.00    -0.028 A 
ATOM     26  C   UNL     1       9.495   0.237   2.991  0.00  0.00    +0.012 A 
ATOM     27  C   UNL     1       9.689   1.337   2.224  0.00  0.00    +0.045 A 
ATOM     28  S   UNL     1      11.104   0.861   1.244  0.00  0.00    -0.105 S 
ATOM     29  C   UNL     1      11.344  -0.771   1.928  0.00  0.00    +0.049 A 
ENDBRANCH  10  25
BRANCH   8  30
ATOM     30  N   UNL     1      13.343  -3.383   5.156  0.00  0.00    -0.328 N 
ATOM     31  H   UNL     1      14.009  -4.076   5.020  0.00  0.00    +0.145 HD
ATOM     32  H   UNL     1      13.435  -2.761   5.895  0.00  0.00    +0.145 HD
ENDBRANCH   8  30
BRANCH   9  33
ATOM     33  C   UNL     1      11.585  -1.433   5.652  0.00  0.00    +0.101 C 
ATOM     34  N   UNL     1      11.753  -0.742   6.538  0.00  0.00    -0.191 NA
ENDBRANCH   9  33
TORSDOF 7
