REMARK  Name = ZINC40340029
REMARK  9 active torsions:
REMARK  status: ('A' for Active; 'I' for Inactive)
REMARK    1  A    between atoms: C_1  and  C_2
REMARK    2  A    between atoms: C_5  and  C_8
REMARK    3  A    between atoms: N_16  and  C_28
REMARK    4  A    between atoms: C_17  and  C_19
REMARK    5  A    between atoms: C_23  and  N_25
REMARK    6  A    between atoms: C_28  and  C_29
REMARK    7  A    between atoms: C_29  and  C_30
REMARK    8  A    between atoms: C_33  and  O_36
REMARK    9  A    between atoms: O_36  and  C_37
REMARK                            x       y       z     vdW  Elec       q    Type
REMARK                         _______ _______ _______ _____ _____    ______ ____
ROOT
ATOM      1  C   UNL     1       0.059  -4.256  -0.021  0.00  0.00    +0.099 A 
ATOM      2  C   UNL     1       0.717  -5.081   0.898  0.00  0.00    +0.035 A 
ATOM      3  C   UNL     1       0.457  -6.377   0.495  0.00  0.00    +0.126 A 
ATOM      4  N   UNL     1      -0.326  -6.277  -0.621  0.00  0.00    -0.272 N 
ATOM      5  H   UNL     1      -0.669  -7.029  -1.129  0.00  0.00    +0.189 HD
ATOM      6  N   UNL     1      -0.545  -5.040  -0.893  0.00  0.00    -0.173 NA
ATOM      7  C   UNL     1       1.122  -7.297   1.423  0.00  0.00    +0.265 C 
ATOM      8  O   UNL     1       1.088  -8.510   1.343  0.00  0.00    -0.268 OA
ATOM      9  N   UNL     1       1.777  -6.609   2.376  0.00  0.00    -0.285 N 
ATOM     10  C   UNL     1       1.579  -5.175   2.127  0.00  0.00    +0.141 C 
ENDROOT
BRANCH   1  15
ATOM     11  C   UNL     1      -0.018   1.503   0.010  0.00  0.00    +0.044 C 
ATOM     12  C   UNL     1       0.002  -0.004   0.002  0.00  0.00    -0.050 A 
ATOM     13  C   UNL     1       0.006  -0.687  -1.201  0.00  0.00    +0.004 A 
ATOM     14  C   UNL     1       0.024  -2.067  -1.214  0.00  0.00    +0.010 A 
ATOM     15  C   UNL     1       0.040  -2.772  -0.013  0.00  0.00    +0.002 A 
ATOM     16  C   UNL     1       0.036  -2.080   1.196  0.00  0.00    +0.010 A 
ATOM     17  C   UNL     1       0.023  -0.700   1.198  0.00  0.00    +0.004 A 
ENDBRANCH   1  15
BRANCH  10  18
ATOM     18  C   UNL     1       0.880  -4.537   3.300  0.00  0.00    -0.020 A 
ATOM     19  C   UNL     1      -0.115  -5.224   3.970  0.00  0.00    +0.006 A 
ATOM     20  C   UNL     1      -0.755  -4.638   5.045  0.00  0.00    +0.003 A 
ATOM     21  C   UNL     1      -0.401  -3.366   5.452  0.00  0.00    +0.033 A 
ATOM     22  C   UNL     1       0.595  -2.679   4.783  0.00  0.00    +0.127 A 
ATOM     23  C   UNL     1       1.239  -3.266   3.710  0.00  0.00    +0.038 A 
BRANCH  22  24
ATOM     24  N   UNL     1       0.975  -1.316   5.218  0.00  0.00    +0.056 N 
ATOM     25  O   UNL     1       0.414  -0.803   6.159  0.00  0.00    -0.126 OA
ATOM     26  O   UNL     1       1.845  -0.715   4.633  0.00  0.00    -0.126 OA
ENDBRANCH  22  24
ENDBRANCH  10  18
BRANCH   9  27
ATOM     27  C   UNL     1       2.554  -7.189   3.474  0.00  0.00    +0.114 C 
BRANCH  27  28
ATOM     28  C   UNL     1       4.007  -7.372   3.029  0.00  0.00    +0.054 C 
BRANCH  28  29
ATOM     29  C   UNL     1       4.806  -7.969   4.159  0.00  0.00    -0.046 A 
ATOM     30  C   UNL     1       5.428  -7.143   5.077  0.00  0.00    +0.007 A 
ATOM     31  C   UNL     1       6.161  -7.689   6.113  0.00  0.00    +0.046 A 
ATOM     32  C   UNL     1       6.274  -9.066   6.231  0.00  0.00    +0.120 A 
ATOM     33  C   UNL     1       5.649  -9.893   5.308  0.00  0.00    +0.046 A 
ATOM     34  C   UNL     1       4.913  -9.343   4.277  0.00  0.00    +0.007 A 
BRANCH  32  35
ATOM     35  O   UNL     1       6.996  -9.605   7.249  0.00  0.00    -0.495 OA
ATOM     36  C   UNL     1       7.069 -11.031   7.308  0.00  0.00    +0.277 C 
ENDBRANCH  32  35
ENDBRANCH  28  29
ENDBRANCH  27  28
ENDBRANCH   9  27
TORSDOF 7
