REMARK  Name = ZINC37570702
REMARK  9 active torsions:
REMARK  status: ('A' for Active; 'I' for Inactive)
REMARK    1  A    between atoms: C_1  and  C_2
REMARK    2  A    between atoms: C_5  and  N_9
REMARK    3  A    between atoms: N_9  and  C_10
REMARK    4  A    between atoms: N_9  and  S_25
REMARK    5  A    between atoms: N_13  and  C_16
REMARK    6  A    between atoms: C_16  and  C_17
REMARK    7  A    between atoms: C_22  and  O_23
REMARK    8  A    between atoms: O_23  and  C_24
REMARK    9  A    between atoms: S_25  and  C_28
REMARK                            x       y       z     vdW  Elec       q    Type
REMARK                         _______ _______ _______ _____ _____    ______ ____
ROOT
ATOM      1  N   UNL     1       0.055  -4.156  -0.029  0.00  0.00    -0.200 N 
ENDROOT
BRANCH   1   6
ATOM      2  C   UNL     1      -0.937   1.411   0.423  0.00  0.00    +0.047 C 
ATOM      3  C   UNL     1      -0.674  -0.069   0.302  0.00  0.00    -0.015 A 
ATOM      4  C   UNL     1       0.615  -0.526   0.098  0.00  0.00    +0.008 A 
ATOM      5  C   UNL     1       0.860  -1.880  -0.012  0.00  0.00    +0.025 A 
ATOM      6  C   UNL     1      -0.190  -2.786   0.082  0.00  0.00    +0.054 A 
ATOM      7  C   UNL     1      -1.484  -2.325   0.287  0.00  0.00    +0.063 A 
ATOM      8  C   UNL     1      -1.723  -0.967   0.403  0.00  0.00    +0.128 A 
ATOM      9  F   UNL     1      -2.980  -0.518   0.607  0.00  0.00    -0.205 F 
ENDBRANCH   1   6
BRANCH   1  10
ATOM     10  C   UNL     1       0.734  -4.869   1.055  0.00  0.00    +0.095 C 
ATOM     11  C   UNL     1       2.167  -4.348   1.193  0.00  0.00    +0.006 C 
ATOM     12  C   UNL     1       2.845  -5.041   2.378  0.00  0.00    -0.077 C 
ATOM     13  N   UNL     1       2.098  -4.754   3.608  0.00  0.00    +0.383 N 
ATOM     14  C   UNL     1       0.745  -5.313   3.512  0.00  0.00    -0.077 C 
ATOM     15  C   UNL     1      -0.013  -4.631   2.371  0.00  0.00    +0.006 C 
ATOM     16  H   UNL     1       2.039  -3.755   3.740  0.00  0.00    -0.081 HD
BRANCH  13  17
ATOM     17  C   UNL     1       2.795  -5.355   4.753  0.00  0.00    -0.039 C 
BRANCH  17  18
ATOM     18  C   UNL     1       2.098  -4.959   6.030  0.00  0.00    -0.022 A 
ATOM     19  C   UNL     1       2.603  -3.931   6.803  0.00  0.00    +0.005 A 
ATOM     20  C   UNL     1       1.965  -3.567   7.974  0.00  0.00    +0.000 A 
ATOM     21  C   UNL     1       0.820  -4.230   8.375  0.00  0.00    +0.004 A 
ATOM     22  C   UNL     1       0.311  -5.258   7.605  0.00  0.00    +0.046 A 
ATOM     23  C   UNL     1       0.946  -5.622   6.427  0.00  0.00    +0.121 A 
BRANCH  23  24
ATOM     24  O   UNL     1       0.444  -6.629   5.665  0.00  0.00    -0.495 OA
ATOM     25  C   UNL     1      -0.745  -7.267   6.136  0.00  0.00    +0.277 C 
ENDBRANCH  23  24
ENDBRANCH  17  18
ENDBRANCH  13  17
ENDBRANCH   1  10
BRANCH   1  26
ATOM     26  S   UNL     1      -0.420  -4.974  -1.388  0.00  0.00    +0.075 S 
ATOM     27  O   UNL     1      -0.706  -6.306  -0.981  0.00  0.00    -0.150 OA
ATOM     28  O   UNL     1      -1.381  -4.155  -2.041  0.00  0.00    -0.150 OA
BRANCH  26  29
ATOM     29  C   UNL     1       0.976  -5.064  -2.458  0.00  0.00    +0.109 A 
ATOM     30  C   UNL     1       1.153  -4.111  -3.445  0.00  0.00    +0.031 A 
ATOM     31  C   UNL     1       2.248  -4.180  -4.285  0.00  0.00    +0.040 A 
ATOM     32  C   UNL     1       3.169  -5.204  -4.138  0.00  0.00    +0.124 A 
ATOM     33  C   UNL     1       2.991  -6.157  -3.150  0.00  0.00    +0.040 A 
ATOM     34  C   UNL     1       1.898  -6.083  -2.308  0.00  0.00    +0.031 A 
ATOM     35  F   UNL     1       4.240  -5.272  -4.959  0.00  0.00    -0.205 F 
ENDBRANCH  26  29
ENDBRANCH   1  26
TORSDOF 7
