REMARK  Name = ZINC36644381
REMARK  5 active torsions:
REMARK  status: ('A' for Active; 'I' for Inactive)
REMARK    1  A    between atoms: C_1  and  C_2
REMARK    2  A    between atoms: N_6  and  C_7
REMARK    3  A    between atoms: C_7  and  C_8
REMARK    4  A    between atoms: C_8  and  C_10
REMARK    5  A    between atoms: C_8  and  C_11
REMARK                            x       y       z     vdW  Elec       q    Type
REMARK                         _______ _______ _______ _____ _____    ______ ____
ROOT
ATOM      1  C   UNL     1      -1.409  -0.225   2.984  0.00  0.00    +0.075 C 
ATOM      2  C   UNL     1      -2.074  -1.602   3.002  0.00  0.00    +0.017 C 
ENDROOT
BRANCH   1   3
ATOM      3  C   UNL     1      -1.405   0.348   4.378  0.00  0.00    +0.138 A 
ATOM      4  N   UNL     1      -0.832  -0.173   5.430  0.00  0.00    -0.134 NA
ATOM      5  N   UNL     1      -1.023   0.588   6.451  0.00  0.00    -0.134 NA
ATOM      6  C   UNL     1      -1.721   1.628   6.094  0.00  0.00    +0.133 A 
ATOM      7  N   UNL     1      -1.988   1.502   4.773  0.00  0.00    -0.315 N 
ATOM      8  C   UNL     1      -2.769   2.426   3.950  0.00  0.00    +0.125 C 
ATOM      9  C   UNL     1      -2.661   3.838   4.530  0.00  0.00    +0.022 C 
ATOM     10  C   UNL     1      -3.770   4.059   5.559  0.00  0.00    +0.002 C 
ATOM     11  C   UNL     1      -3.632   3.072   6.714  0.00  0.00    +0.008 C 
ATOM     12  C   UNL     1      -2.155   2.777   6.967  0.00  0.00    +0.076 C 
ENDBRANCH   1   3
BRANCH   1  13
ATOM     13  C   UNL     1       0.031  -0.360   2.485  0.00  0.00    +0.154 C 
BRANCH  13  19
ATOM     14  C   UNL     1      -0.018   1.503   0.010  0.00  0.00    +0.065 C 
ATOM     15  C   UNL     1       0.002  -0.004   0.002  0.00  0.00    +0.038 A 
ATOM     16  C   UNL     1       0.008  -0.794  -1.096  0.00  0.00    +0.067 A 
ATOM     17  C   UNL     1       0.029  -2.131  -0.664  0.00  0.00    +0.138 A 
ATOM     18  N   UNL     1       0.034  -2.134   0.648  0.00  0.00    -0.156 NA
ATOM     19  N   UNL     1       0.023  -0.804   1.089  0.00  0.00    -0.266 N 
ATOM     20  N   UNL     1       0.040  -3.261  -1.490  0.00  0.00    -0.342 N 
ATOM     21  H   UNL     1       0.034  -3.158  -2.454  0.00  0.00    +0.144 HD
ATOM     22  H   UNL     1       0.054  -4.148  -1.097  0.00  0.00    +0.144 HD
ENDBRANCH  13  19
ENDBRANCH   1  13
TORSDOF 3
