REMARK  Name = ZINC63362293
REMARK  7 active torsions:
REMARK  status: ('A' for Active; 'I' for Inactive)
REMARK    1  A    between atoms: C_1  and  C_2
REMARK    2  A    between atoms: C_5  and  N_8
REMARK    3  A    between atoms: C_9  and  C_11
REMARK    4  A    between atoms: C_14  and  N_17
REMARK    5  A    between atoms: C_20  and  C_38
REMARK    6  A    between atoms: C_26  and  O_31
REMARK    7  A    between atoms: O_31  and  C_32
REMARK                            x       y       z     vdW  Elec       q    Type
REMARK                         _______ _______ _______ _____ _____    ______ ____
ROOT
ATOM      1  N   UNL     1       9.119  -0.740   0.582  0.00  0.00    -0.192 N 
ATOM      2  C   UNL     1      10.135  -1.290   1.279  0.00  0.00    +0.253 C 
ATOM      3  O   UNL     1      10.078  -2.239   2.030  0.00  0.00    -0.272 OA
ATOM      4  C   UNL     1      11.359  -0.474   0.926  0.00  0.00    +0.137 C 
ATOM      5  C   UNL     1      11.966   0.155   2.180  0.00  0.00    +0.139 C 
ATOM      6  C   UNL     1      11.733   1.656   2.092  0.00  0.00    -0.034 C 
ATOM      7  C   UNL     1      11.085   1.998   3.202  0.00  0.00    +0.003 A 
ATOM      8  C   UNL     1      10.643   3.303   3.717  0.00  0.00    +0.055 A 
ATOM      9  C   UNL     1       9.982   3.297   4.907  0.00  0.00    +0.121 A 
ATOM     10  C   UNL     1       9.708   2.137   5.647  0.00  0.00    +0.047 A 
ATOM     11  C   UNL     1      10.074   0.885   5.268  0.00  0.00    +0.029 A 
ATOM     12  C   UNL     1      10.801   0.763   3.997  0.00  0.00    +0.043 A 
ATOM     13  N   UNL     1      11.291  -0.298   3.398  0.00  0.00    -0.375 N 
ATOM     14  C   UNL     1      12.129   2.495   0.902  0.00  0.00    +0.052 C 
ATOM     15  C   UNL     1      11.557   1.800  -0.349  0.00  0.00    +0.115 C 
ATOM     16  N   UNL     1      10.813   0.618   0.094  0.00  0.00    -0.268 N 
ATOM     17  C   UNL     1       9.523   0.324  -0.125  0.00  0.00    +0.316 C 
ATOM     18  O   UNL     1       8.803   0.953  -0.876  0.00  0.00    -0.252 OA
ATOM     19  C   UNL     1      12.381  -1.309   0.153  0.00  0.00    +0.044 C 
ATOM     20  H   UNL     1      11.219  -1.218   3.699  0.00  0.00    +0.160 HD
ENDROOT
BRANCH   1  24
ATOM     21  C   UNL     1       5.208  -2.183   0.610  0.00  0.00    +0.037 A 
ATOM     22  C   UNL     1       5.510  -0.992  -0.055  0.00  0.00    +0.015 A 
ATOM     23  C   UNL     1       6.803  -0.518  -0.062  0.00  0.00    +0.025 A 
ATOM     24  C   UNL     1       7.807  -1.224   0.591  0.00  0.00    +0.045 A 
ATOM     25  C   UNL     1       7.511  -2.410   1.254  0.00  0.00    +0.025 A 
ATOM     26  C   UNL     1       6.219  -2.887   1.270  0.00  0.00    +0.015 A 
BRANCH  21  28
ATOM     27  N   UNL     1       2.849  -2.015  -0.016  0.00  0.00    -0.308 N 
ATOM     28  C   UNL     1       3.823  -2.694   0.621  0.00  0.00    +0.244 C 
ATOM     29  O   UNL     1       3.561  -3.729   1.204  0.00  0.00    -0.270 OA
ATOM     30  H   UNL     1       3.058  -1.190  -0.481  0.00  0.00    +0.149 HD
BRANCH  27  35
ATOM     31  C   UNL     1      -0.022   1.537   0.119  0.00  0.00    +0.007 C 
ATOM     32  C   UNL     1      -0.002   0.008   0.081  0.00  0.00    -0.014 C 
ATOM     33  C   UNL     1       0.706  -0.462  -1.192  0.00  0.00    +0.005 C 
ATOM     34  C   UNL     1       0.726  -1.991  -1.230  0.00  0.00    +0.022 C 
ATOM     35  C   UNL     1       1.474  -2.522  -0.006  0.00  0.00    +0.073 C 
ATOM     36  C   UNL     1       0.767  -2.052   1.267  0.00  0.00    +0.022 C 
ATOM     37  C   UNL     1       0.747  -0.523   1.305  0.00  0.00    +0.005 C 
ENDBRANCH  27  35
ENDBRANCH  21  28
ENDBRANCH   1  24
BRANCH   9  38
ATOM     38  O   UNL     1       9.561   4.488   5.410  0.00  0.00    -0.495 OA
ATOM     39  C   UNL     1       8.870   4.457   6.660  0.00  0.00    +0.277 C 
ENDBRANCH   9  38
TORSDOF 4
