REMARK  Name = ZINC41151315
REMARK  5 active torsions:
REMARK  status: ('A' for Active; 'I' for Inactive)
REMARK    1  A    between atoms: C_7  and  N_27
REMARK    2  A    between atoms: N_14  and  S_17
REMARK    3  A    between atoms: S_17  and  C_20
REMARK    4  A    between atoms: N_27  and  C_28
REMARK    5  A    between atoms: C_28  and  C_29
REMARK                            x       y       z     vdW  Elec       q    Type
REMARK                         _______ _______ _______ _____ _____    ______ ____
ROOT
ATOM      1  C   UNL     1      -0.028   1.343  -0.214  0.00  0.00    +0.001 A 
ATOM      2  C   UNL     1       1.144   2.056  -0.446  0.00  0.00    +0.002 A 
ATOM      3  C   UNL     1       2.355   1.430  -0.463  0.00  0.00    +0.026 A 
ATOM      4  C   UNL     1       2.423   0.047  -0.245  0.00  0.00    +0.052 A 
ATOM      5  C   UNL     1       1.229  -0.676  -0.010  0.00  0.00    +0.038 A 
ATOM      6  C   UNL     1       0.002  -0.004   0.001  0.00  0.00    +0.013 A 
ATOM      7  C   UNL     1       1.322  -2.074   0.209  0.00  0.00    +0.132 A 
ATOM      8  N   UNL     1       2.522  -2.635   0.182  0.00  0.00    -0.201 NA
ATOM      9  C   UNL     1       3.619  -1.918  -0.043  0.00  0.00    +0.198 A 
ATOM     10  N   UNL     1       3.589  -0.615  -0.252  0.00  0.00    -0.327 N 
ATOM     11  N   UNL     1       4.841  -2.563  -0.057  0.00  0.00    -0.299 N 
ATOM     12  C   UNL     1       6.091  -1.798  -0.170  0.00  0.00    +0.125 C 
ATOM     13  C   UNL     1       6.999  -2.166   1.010  0.00  0.00    +0.128 C 
ATOM     14  N   UNL     1       7.072  -3.630   1.107  0.00  0.00    -0.174 NA
ATOM     15  C   UNL     1       5.823  -4.396   1.220  0.00  0.00    +0.128 C 
ATOM     16  C   UNL     1       4.915  -4.028   0.046  0.00  0.00    +0.125 C 
ATOM     17  H   UNL     1       4.416  -0.134  -0.412  0.00  0.00    +0.169 HD
ENDROOT
BRANCH  14  18
ATOM     18  S   UNL     1       8.537  -4.404   1.090  0.00  0.00    +0.061 S 
ATOM     19  O   UNL     1       8.291  -5.729   0.640  0.00  0.00    -0.153 OA
ATOM     20  O   UNL     1       9.448  -3.533   0.433  0.00  0.00    -0.153 OA
BRANCH  18  21
ATOM     21  C   UNL     1       9.078  -4.532   2.762  0.00  0.00    +0.106 A 
ATOM     22  C   UNL     1       9.842  -3.523   3.320  0.00  0.00    +0.030 A 
ATOM     23  C   UNL     1      10.267  -3.623   4.631  0.00  0.00    +0.022 A 
ATOM     24  C   UNL     1       9.928  -4.732   5.385  0.00  0.00    +0.041 A 
ATOM     25  C   UNL     1       9.163  -5.741   4.826  0.00  0.00    +0.022 A 
ATOM     26  C   UNL     1       8.734  -5.637   3.517  0.00  0.00    +0.030 A 
ATOM     27 CL   UNL     1      10.462  -4.859   7.032  0.00  0.00    -0.084 Cl
ENDBRANCH  18  21
ENDBRANCH  14  18
BRANCH   7  28
ATOM     28  N   UNL     1       0.193  -2.829   0.443  0.00  0.00    -0.321 N 
ATOM     29  H   UNL     1      -0.679  -2.405   0.461  0.00  0.00    +0.148 HD
BRANCH  28  30
ATOM     30  C   UNL     1       0.310  -4.272   0.667  0.00  0.00    +0.177 C 
BRANCH  30  31
ATOM     31  C   UNL     1      -1.059  -4.858   0.898  0.00  0.00    +0.122 A 
ATOM     32  C   UNL     1      -1.877  -5.343  -0.053  0.00  0.00    +0.046 A 
ATOM     33  C   UNL     1      -3.048  -5.787   0.602  0.00  0.00    +0.041 A 
ATOM     34  C   UNL     1      -2.876  -5.547   1.914  0.00  0.00    +0.195 A 
ATOM     35  O   UNL     1      -1.666  -4.989   2.088  0.00  0.00    -0.466 OA
ENDBRANCH  30  31
ENDBRANCH  28  30
ENDBRANCH   7  28
TORSDOF 5
