REMARK  Name = ZINC15107422
REMARK  8 active torsions:
REMARK  status: ('A' for Active; 'I' for Inactive)
REMARK    1  A    between atoms: C_1  and  C_2
REMARK    2  A    between atoms: C_16  and  C_18
REMARK    3  A    between atoms: C_19  and  N_31
REMARK    4  A    between atoms: C_21  and  C_28
REMARK    5  A    between atoms: C_23  and  C_27
REMARK    6  A    between atoms: C_28  and  O_29
REMARK    7  A    between atoms: O_29  and  C_30
REMARK    8  A    between atoms: C_32  and  N_59
REMARK                            x       y       z     vdW  Elec       q    Type
REMARK                         _______ _______ _______ _____ _____    ______ ____
ROOT
ATOM      1  C   UNL     1      -3.707  -3.824  -0.562  0.00  0.00    +0.044 C 
ATOM      2  C   UNL     1      -2.246  -3.473  -0.450  0.00  0.00    -0.050 A 
ATOM      3  C   UNL     1      -1.880  -2.155  -0.265  0.00  0.00    +0.005 A 
ATOM      4  C   UNL     1      -0.553  -1.772  -0.149  0.00  0.00    +0.024 A 
ATOM      5  C   UNL     1       0.413  -2.780  -0.223  0.00  0.00    +0.040 A 
ATOM      6  C   UNL     1       0.030  -4.108  -0.425  0.00  0.00    -0.023 A 
ATOM      7  C   UNL     1      -1.295  -4.483  -0.535  0.00  0.00    +0.009 A 
ATOM      8  C   UNL     1       1.275  -4.961  -0.488  0.00  0.00    +0.025 C 
ATOM      9  C   UNL     1       1.351  -5.598  -1.862  0.00  0.00    -0.069 C 
ATOM     10  C   UNL     1       3.446  -4.548  -2.373  0.00  0.00    -0.077 C 
ATOM     11  C   UNL     1       3.665  -4.071  -0.936  0.00  0.00    +0.005 C 
ATOM     12  C   UNL     1       2.389  -3.991  -0.156  0.00  0.00    +0.086 C 
ATOM     13  N   UNL     1       1.793  -2.655  -0.131  0.00  0.00    -0.263 N 
ATOM     14  C   UNL     1       2.470  -1.494  -0.029  0.00  0.00    +0.260 C 
ATOM     15  O   UNL     1       1.866  -0.437   0.002  0.00  0.00    -0.269 OA
ATOM     16  C   UNL     1       2.746  -6.515  -3.606  0.00  0.00    -0.096 C 
ATOM     17  N   UNL     1       2.731  -5.838  -2.290  0.00  0.00    +0.378 N 
ATOM     18  H   UNL     1       3.197  -6.439  -1.600  0.00  0.00    -0.082 HD
ENDROOT
BRANCH  14  19
ATOM     19  C   UNL     1       3.885  -1.504   0.041  0.00  0.00    +0.098 A 
ATOM     20  C   UNL     1       4.782  -0.754  -0.688  0.00  0.00    +0.054 A 
ATOM     21  C   UNL     1       6.203  -0.940  -0.437  0.00  0.00    +0.034 A 
ATOM     22  C   UNL     1       7.303  -0.293  -1.053  0.00  0.00    -0.009 A 
ATOM     23  C   UNL     1       8.577  -0.625  -0.659  0.00  0.00    +0.029 A 
ATOM     24  C   UNL     1       8.781  -1.579   0.327  0.00  0.00    +0.040 A 
ATOM     25  N   UNL     1       7.755  -2.183   0.894  0.00  0.00    -0.245 NA
ATOM     26  C   UNL     1       6.517  -1.897   0.555  0.00  0.00    +0.111 A 
ATOM     27  S   UNL     1       4.932  -2.490   1.094  0.00  0.00    -0.062 S 
ATOM     28  C   UNL     1      10.184  -1.933   0.748  0.00  0.00    +0.065 C 
BRANCH  20  29
ATOM     29  N   UNL     1       4.341   0.156  -1.638  0.00  0.00    -0.356 N 
ATOM     30  H   UNL     1       3.390   0.270  -1.796  0.00  0.00    +0.142 HD
ATOM     31  H   UNL     1       4.983   0.677  -2.145  0.00  0.00    +0.142 HD
ENDBRANCH  20  29
BRANCH  22  32
ATOM     32  C   UNL     1       7.078   0.744  -2.123  0.00  0.00    +0.195 C 
BRANCH  32  33
ATOM     33  O   UNL     1       8.339   1.240  -2.577  0.00  0.00    -0.378 OA
ATOM     34  C   UNL     1       8.239   2.235  -3.598  0.00  0.00    +0.194 C 
ENDBRANCH  32  33
ENDBRANCH  22  32
ENDBRANCH  14  19
TORSDOF 4
