REMARK  Name = ZINC39528642
REMARK  8 active torsions:
REMARK  status: ('A' for Active; 'I' for Inactive)
REMARK    1  A    between atoms: C_1  and  C_2
REMARK    2  A    between atoms: C_4  and  S_25
REMARK    3  A    between atoms: C_7  and  N_8
REMARK    4  A    between atoms: C_12  and  S_15
REMARK    5  A    between atoms: S_15  and  O_18
REMARK    6  A    between atoms: O_18  and  C_19
REMARK    7  A    between atoms: S_25  and  O_28
REMARK    8  A    between atoms: O_28  and  C_29
REMARK                            x       y       z     vdW  Elec       q    Type
REMARK                         _______ _______ _______ _____ _____    ______ ____
ROOT
ATOM      1  N   UNL     1      -0.401   0.090   2.780  0.00  0.00    -0.331 N 
ATOM      2  C   UNL     1      -1.555   0.522   3.583  0.00  0.00    +0.086 C 
ATOM      3  C   UNL     1      -1.399   2.015   3.893  0.00  0.00    -0.061 C 
ATOM      4  N   UNL     1      -0.096   2.248   4.529  0.00  0.00    +0.398 N 
ATOM      5  C   UNL     1       0.984   1.924   3.589  0.00  0.00    +0.133 C 
ATOM      6  C   UNL     1       0.946   0.423   3.267  0.00  0.00    +0.115 C 
ATOM      7  H   UNL     1      -0.025   3.217   4.801  0.00  0.00    -0.083 HD
ATOM      8  H   UNL     1      -0.013   1.664   5.348  0.00  0.00    -0.083 HD
ENDROOT
BRANCH   1  15
ATOM      9  C   UNL     1      -0.643   1.561   0.357  0.00  0.00    +0.046 C 
ATOM     10  C   UNL     1      -0.703   0.056   0.386  0.00  0.00    -0.028 A 
ATOM     11  C   UNL     1      -0.874  -0.652  -0.788  0.00  0.00    +0.035 A 
ATOM     12  C   UNL     1      -0.929  -2.033  -0.763  0.00  0.00    +0.128 A 
ATOM     13  C   UNL     1      -0.813  -2.711   0.437  0.00  0.00    +0.032 A 
ATOM     14  C   UNL     1      -0.641  -2.010   1.614  0.00  0.00    +0.025 A 
ATOM     15  C   UNL     1      -0.580  -0.622   1.591  0.00  0.00    +0.033 A 
BRANCH  12  16
ATOM     16  S   UNL     1      -1.149  -2.932  -2.263  0.00  0.00    +0.151 S 
ATOM     17  O   UNL     1      -1.714  -4.186  -1.906  0.00  0.00    -0.131 OA
ATOM     18  O   UNL     1      -1.777  -2.046  -3.179  0.00  0.00    -0.131 OA
BRANCH  16  19
ATOM     19  O   UNL     1       0.237  -3.222  -2.820  0.00  0.00    -0.342 OA
BRANCH  19  20
ATOM     20  C   UNL     1       0.904  -4.205  -2.160  0.00  0.00    +0.157 A 
ATOM     21  C   UNL     1       1.710  -3.891  -1.076  0.00  0.00    +0.048 A 
ATOM     22  C   UNL     1       2.386  -4.893  -0.406  0.00  0.00    +0.004 A 
ATOM     23  C   UNL     1       2.260  -6.207  -0.816  0.00  0.00    +0.000 A 
ATOM     24  C   UNL     1       1.457  -6.523  -1.897  0.00  0.00    +0.004 A 
ATOM     25  C   UNL     1       0.774  -5.526  -2.566  0.00  0.00    +0.048 A 
ENDBRANCH  19  20
ENDBRANCH  16  19
ENDBRANCH  12  16
ENDBRANCH   1  15
BRANCH   5  26
ATOM     26  S   UNL     1       2.583   2.340   4.338  0.00  0.00    +0.109 S 
ATOM     27  O   UNL     1       2.708   1.711   5.606  0.00  0.00    -0.138 OA
ATOM     28  O   UNL     1       3.619   2.233   3.371  0.00  0.00    -0.138 OA
BRANCH  26  29
ATOM     29  O   UNL     1       2.494   3.828   4.649  0.00  0.00    -0.347 OA
BRANCH  29  30
ATOM     30  C   UNL     1       2.598   4.628   3.556  0.00  0.00    +0.156 A 
ATOM     31  C   UNL     1       3.845   5.060   3.127  0.00  0.00    +0.048 A 
ATOM     32  C   UNL     1       3.948   5.874   2.016  0.00  0.00    +0.004 A 
ATOM     33  C   UNL     1       2.811   6.258   1.331  0.00  0.00    +0.000 A 
ATOM     34  C   UNL     1       1.567   5.829   1.756  0.00  0.00    +0.004 A 
ATOM     35  C   UNL     1       1.459   5.011   2.864  0.00  0.00    +0.048 A 
ENDBRANCH  29  30
ENDBRANCH  26  29
ENDBRANCH   5  26
TORSDOF 7
