REMARK  Name = ZINC03047841
REMARK  8 active torsions:
REMARK  status: ('A' for Active; 'I' for Inactive)
REMARK    1  A    between atoms: C_1  and  C_2
REMARK    2  A    between atoms: C_5  and  N_9
REMARK    3  A    between atoms: C_10  and  C_12
REMARK    4  A    between atoms: C_13  and  C_34
REMARK    5  A    between atoms: C_16  and  S_21
REMARK    6  A    between atoms: S_21  and  N_24
REMARK    7  A    between atoms: C_26  and  C_33
REMARK    8  A    between atoms: C_29  and  C_32
REMARK                            x       y       z     vdW  Elec       q    Type
REMARK                         _______ _______ _______ _____ _____    ______ ____
ROOT
ATOM      1  C   UNL     1      -6.891  -0.481  -0.330  0.00  0.00    +0.194 A 
ATOM      2  C   UNL     1      -5.987   0.259   0.362  0.00  0.00    +0.008 A 
ATOM      3  C   UNL     1      -4.719  -0.465   0.277  0.00  0.00    +0.026 A 
ATOM      4  C   UNL     1      -3.433  -0.240   0.773  0.00  0.00    +0.040 A 
ATOM      5  C   UNL     1      -2.437  -1.135   0.504  0.00  0.00    +0.106 A 
ATOM      6  C   UNL     1      -2.697  -2.272  -0.249  0.00  0.00    +0.032 A 
ATOM      7  C   UNL     1      -3.960  -2.516  -0.743  0.00  0.00    +0.049 A 
ATOM      8  C   UNL     1      -4.989  -1.616  -0.487  0.00  0.00    +0.136 A 
ATOM      9  O   UNL     1      -6.292  -1.584  -0.826  0.00  0.00    -0.450 OA
ATOM     10  C   UNL     1      -6.238   1.564   1.074  0.00  0.00    +0.048 C 
ENDROOT
BRANCH   1  12
ATOM     11  N   UNL     1      -9.115  -0.946  -1.220  0.00  0.00    -0.279 N 
ATOM     12  C   UNL     1      -8.307  -0.133  -0.511  0.00  0.00    +0.284 C 
ATOM     13  O   UNL     1      -8.750   0.889  -0.021  0.00  0.00    -0.266 OA
ATOM     14  H   UNL     1      -8.748  -1.725  -1.667  0.00  0.00    +0.155 HD
BRANCH  11  19
ATOM     15  C   UNL     1     -14.661   0.187  -1.594  0.00  0.00    +0.045 C 
ATOM     16  C   UNL     1     -13.188  -0.114  -1.495  0.00  0.00    -0.032 A 
ATOM     17  C   UNL     1     -12.753  -1.425  -1.444  0.00  0.00    +0.006 A 
ATOM     18  C   UNL     1     -11.403  -1.704  -1.358  0.00  0.00    +0.023 A 
ATOM     19  C   UNL     1     -10.482  -0.666  -1.312  0.00  0.00    +0.035 A 
ATOM     20  C   UNL     1     -10.921   0.650  -1.364  0.00  0.00    +0.043 A 
ATOM     21  C   UNL     1     -12.273   0.924  -1.455  0.00  0.00    +0.046 A 
ATOM     22 CL   UNL     1     -12.823   2.569  -1.519  0.00  0.00    -0.083 Cl
ENDBRANCH  11  19
ENDBRANCH   1  12
BRANCH   5  23
ATOM     23  S   UNL     1      -0.812  -0.849   1.123  0.00  0.00    +0.061 S 
ATOM     24  O   UNL     1      -0.176  -2.117   1.197  0.00  0.00    -0.153 OA
ATOM     25  O   UNL     1      -0.952   0.001   2.253  0.00  0.00    -0.153 OA
BRANCH  23  26
ATOM     26  N   UNL     1       0.003   0.022  -0.026  0.00  0.00    -0.176 NA
ATOM     27  C   UNL     1      -0.022   1.491  -0.010  0.00  0.00    +0.112 C 
ATOM     28  C   UNL     1       1.419   2.009  -0.023  0.00  0.00    +0.002 C 
ATOM     29  C   UNL     1       2.163   1.407  -1.218  0.00  0.00    +0.009 C 
ATOM     30  C   UNL     1       2.198  -0.117  -1.082  0.00  0.00    +0.002 C 
ATOM     31  C   UNL     1       0.766  -0.659  -1.081  0.00  0.00    +0.112 C 
ATOM     32  C   UNL     1       2.970  -0.717  -2.260  0.00  0.00    +0.009 C 
ATOM     33  C   UNL     1       1.413   3.534  -0.142  0.00  0.00    +0.009 C 
ENDBRANCH  23  26
ENDBRANCH   5  23
TORSDOF 4
