REMARK  Name = ZINC18331752
REMARK  5 active torsions:
REMARK  status: ('A' for Active; 'I' for Inactive)
REMARK    1  A    between atoms: C_9  and  C_13
REMARK    2  A    between atoms: C_13  and  O_14
REMARK    3  A    between atoms: O_14  and  C_15
REMARK    4  A    between atoms: C_15  and  C_17
REMARK    5  A    between atoms: C_26  and  O_29
REMARK                            x       y       z     vdW  Elec       q    Type
REMARK                         _______ _______ _______ _____ _____    ______ ____
ROOT
ATOM      1  C   UNL     1      -0.060   0.172   0.631  0.00  0.00    +0.005 C 
ATOM      2  C   UNL     1       0.800  -0.174   1.850  0.00  0.00    +0.005 C 
ATOM      3  C   UNL     1       2.273   0.080   1.500  0.00  0.00    +0.043 C 
ATOM      4  C   UNL     1       2.383   1.428   0.856  0.00  0.00    -0.004 A 
ATOM      5  C   UNL     1       1.377   2.182   0.357  0.00  0.00    -0.025 A 
ATOM      6  C   UNL     1       1.747   3.462  -0.223  0.00  0.00    +0.051 A 
ATOM      7  C   UNL     1       0.876   4.426  -0.807  0.00  0.00    +0.128 A 
ATOM      8  N   UNL     1       1.459   5.529  -1.272  0.00  0.00    -0.214 NA
ATOM      9  C   UNL     1       2.757   5.755  -1.217  0.00  0.00    +0.170 A 
ATOM     10  N   UNL     1       3.623   4.901  -0.686  0.00  0.00    -0.221 NA
ATOM     11  C   UNL     1       3.129   3.779  -0.200  0.00  0.00    +0.114 A 
ATOM     12  S   UNL     1       3.859   2.377   0.582  0.00  0.00    -0.073 S 
ATOM     13  N   UNL     1      -0.491   4.229  -0.886  0.00  0.00    -0.343 N 
ATOM     14  C   UNL     1      -0.065   1.685   0.412  0.00  0.00    +0.037 C 
ATOM     15  H   UNL     1      -1.132   4.996  -1.345  0.00  0.00    +0.144 HD
ATOM     16  H   UNL     1      -0.937   3.304  -0.491  0.00  0.00    +0.144 HD
ENDROOT
BRANCH   9  17
ATOM     17  C   UNL     1       3.283   7.049  -1.783  0.00  0.00    +0.308 C 
BRANCH  17  18
ATOM     18  O   UNL     1       3.609   6.865  -3.186  0.00  0.00    -0.456 OA
BRANCH  18  19
ATOM     19  C   UNL     1       4.094   7.931  -3.843  0.00  0.00    +0.314 C 
ATOM     20  O   UNL     1       4.241   8.982  -3.265  0.00  0.00    -0.250 OA
BRANCH  19  21
ATOM     21  C   UNL     1       4.455   7.816  -5.302  0.00  0.00    +0.071 C 
ATOM     22  C   UNL     1       5.539   6.750  -5.476  0.00  0.00    +0.021 C 
ATOM     23  C   UNL     1       5.906   6.633  -6.957  0.00  0.00    -0.007 C 
ATOM     24  C   UNL     1       4.665   6.236  -7.760  0.00  0.00    +0.007 C 
ATOM     25  C   UNL     1       3.582   7.303  -7.586  0.00  0.00    -0.007 C 
ATOM     26  C   UNL     1       3.215   7.419  -6.105  0.00  0.00    +0.021 C 
ATOM     27  C   UNL     1       4.106   8.649  -8.089  0.00  0.00    +0.038 C 
ATOM     28  C   UNL     1       5.346   9.046  -7.286  0.00  0.00    +0.068 C 
ATOM     29  C   UNL     1       6.430   7.979  -7.460  0.00  0.00    +0.038 C 
ATOM     30  C   UNL     1       4.980   9.162  -5.805  0.00  0.00    +0.052 C 
BRANCH  28  31
ATOM     31  O   UNL     1       5.836  10.303  -7.755  0.00  0.00    -0.389 OA
ATOM     32  H   UNL     1       6.728  10.753  -7.295  0.00  0.00    +0.210 HD
ENDBRANCH  28  31
ENDBRANCH  19  21
ENDBRANCH  18  19
ENDBRANCH  17  18
ENDBRANCH   9  17
TORSDOF 5
