REMARK  Name = ZINC13638626
REMARK  7 active torsions:
REMARK  status: ('A' for Active; 'I' for Inactive)
REMARK    1  A    between atoms: C_1  and  C_2
REMARK    2  A    between atoms: C_3  and  N_15
REMARK    3  A    between atoms: N_6  and  C_9
REMARK    4  A    between atoms: N_7  and  C_8
REMARK    5  A    between atoms: C_18  and  C_19
REMARK    6  A    between atoms: N_25  and  S_26
REMARK    7  A    between atoms: S_26  and  C_29
REMARK                            x       y       z     vdW  Elec       q    Type
REMARK                         _______ _______ _______ _____ _____    ______ ____
ROOT
ATOM      1  N   UNL     1       2.019  -0.275  -1.818  0.00  0.00    -0.218 NA
ATOM      2  C   UNL     1       2.095  -1.255  -2.683  0.00  0.00    +0.171 C 
ATOM      3  N   UNL     1       1.559  -1.103  -3.947  0.00  0.00    -0.277 N 
ATOM      4  C   UNL     1       1.507  -2.181  -4.809  0.00  0.00    +0.153 C 
ATOM      5  N   UNL     1       1.654  -1.998  -6.089  0.00  0.00    -0.113 NA
ATOM      6  S   UNL     1       2.879  -2.768  -2.235  0.00  0.00    -0.014 SA
ATOM      7  H   UNL     1       1.220  -0.239  -4.229  0.00  0.00    +0.156 HD
ENDROOT
BRANCH   1  10
ATOM      8  C   UNL     1       4.921   0.110  -0.927  0.00  0.00    +0.067 C 
ATOM      9  C   UNL     1       3.740  -0.300  -0.085  0.00  0.00    +0.064 A 
ATOM     10  C   UNL     1       2.466  -0.459  -0.528  0.00  0.00    +0.153 A 
ATOM     11  C   UNL     1       1.655  -0.862   0.627  0.00  0.00    +0.298 A 
ATOM     12  O   UNL     1       0.460  -1.099   0.627  0.00  0.00    -0.264 OA
ATOM     13  N   UNL     1       2.486  -0.922   1.688  0.00  0.00    -0.215 N 
ATOM     14  N   UNL     1       3.773  -0.583   1.256  0.00  0.00    -0.282 N 
ATOM     15  C   UNL     1       4.966  -0.534   2.104  0.00  0.00    +0.171 C 
BRANCH  13  16
ATOM     16  C   UNL     1       2.124  -1.268   2.994  0.00  0.00    +0.067 A 
ATOM     17  C   UNL     1       2.539  -0.483   4.062  0.00  0.00    +0.028 A 
ATOM     18  C   UNL     1       2.180  -0.828   5.350  0.00  0.00    +0.002 A 
ATOM     19  C   UNL     1       1.409  -1.953   5.577  0.00  0.00    +0.000 A 
ATOM     20  C   UNL     1       0.995  -2.737   4.516  0.00  0.00    +0.002 A 
ATOM     21  C   UNL     1       1.345  -2.394   3.224  0.00  0.00    +0.028 A 
ENDBRANCH  13  16
ENDBRANCH   1  10
BRANCH   4  22
ATOM     22  C   UNL     1       1.284  -3.544  -4.277  0.00  0.00    +0.017 A 
ATOM     23  C   UNL     1       0.718  -3.719  -3.014  0.00  0.00    +0.011 A 
ATOM     24  C   UNL     1       0.511  -4.992  -2.524  0.00  0.00    +0.001 A 
ATOM     25  C   UNL     1       0.865  -6.094  -3.282  0.00  0.00    +0.000 A 
ATOM     26  C   UNL     1       1.427  -5.927  -4.535  0.00  0.00    +0.001 A 
ATOM     27  C   UNL     1       1.633  -4.659  -5.038  0.00  0.00    +0.011 A 
ENDBRANCH   4  22
BRANCH   5  28
ATOM     28  S   UNL     1       2.014  -0.491  -6.675  0.00  0.00    +0.100 S 
ATOM     29  O   UNL     1       0.891   0.333  -6.391  0.00  0.00    -0.146 OA
ATOM     30  O   UNL     1       3.322  -0.179  -6.217  0.00  0.00    -0.146 OA
BRANCH  28  31
ATOM     31  C   UNL     1       2.111  -0.623  -8.429  0.00  0.00    +0.113 A 
ATOM     32  C   UNL     1       3.317  -0.926  -9.033  0.00  0.00    +0.029 A 
ATOM     33  C   UNL     1       3.394  -1.030 -10.409  0.00  0.00    +0.002 A 
ATOM     34  C   UNL     1       2.264  -0.831 -11.182  0.00  0.00    +0.000 A 
ATOM     35  C   UNL     1       1.058  -0.528 -10.577  0.00  0.00    +0.002 A 
ATOM     36  C   UNL     1       0.981  -0.429  -9.201  0.00  0.00    +0.029 A 
ENDBRANCH  28  31
ENDBRANCH   5  28
TORSDOF 5
