REMARK  Name = ZINC03595207
REMARK  6 active torsions:
REMARK  status: ('A' for Active; 'I' for Inactive)
REMARK    1  A    between atoms: C_1  and  C_2
REMARK    2  A    between atoms: C_2  and  C_23
REMARK    3  A    between atoms: N_5  and  C_9
REMARK    4  A    between atoms: C_9  and  C_10
REMARK    5  A    between atoms: N_12  and  C_13
REMARK    6  A    between atoms: C_15  and  N_20
REMARK                            x       y       z     vdW  Elec       q    Type
REMARK                         _______ _______ _______ _____ _____    ______ ____
ROOT
ATOM      1  C   UNL     1      -3.340   3.537   1.304  0.00  0.00    +0.047 C 
ATOM      2  C   UNL     1      -2.543   3.901   0.050  0.00  0.00    +0.136 C 
ATOM      3  C   UNL     1      -3.342   3.584  -1.199  0.00  0.00    +0.251 C 
ATOM      4  O   UNL     1      -3.745   2.498  -1.555  0.00  0.00    -0.272 OA
ATOM      5  N   UNL     1      -3.510   4.762  -1.832  0.00  0.00    -0.215 N 
ATOM      6  C   UNL     1      -2.936   5.769  -1.163  0.00  0.00    +0.310 C 
ATOM      7  O   UNL     1      -2.954   6.925  -1.536  0.00  0.00    -0.252 OA
ATOM      8  N   UNL     1      -2.336   5.357  -0.028  0.00  0.00    -0.281 N 
ATOM      9  H   UNL     1      -1.776   5.876   0.765  0.00  0.00    +0.152 HD
ENDROOT
BRANCH   2  10
ATOM     10  C   UNL     1      -1.223   3.175   0.033  0.00  0.00    +0.003 A 
ATOM     11  C   UNL     1      -0.041   3.892   0.027  0.00  0.00    +0.009 A 
ATOM     12  C   UNL     1       1.171   3.227   0.012  0.00  0.00    +0.020 A 
ATOM     13  C   UNL     1       1.201   1.843   0.004  0.00  0.00    +0.042 A 
ATOM     14  C   UNL     1       0.019   1.126   0.010  0.00  0.00    +0.040 A 
ATOM     15  C   UNL     1      -1.194   1.792   0.019  0.00  0.00    +0.048 A 
ATOM     16 CL   UNL     1      -2.679   0.893   0.020  0.00  0.00    -0.083 Cl
ATOM     17 CL   UNL     1       2.723   1.009  -0.014  0.00  0.00    -0.083 Cl
ENDBRANCH   2  10
BRANCH   5  18
ATOM     18  C   UNL     1      -4.233   4.921  -3.097  0.00  0.00    +0.214 C 
BRANCH  18  19
ATOM     19  C   UNL     1      -5.689   5.188  -2.813  0.00  0.00    +0.235 C 
ATOM     20  O   UNL     1      -6.084   5.240  -1.667  0.00  0.00    -0.274 OA
ATOM     21  N   UNL     1      -6.552   5.368  -3.832  0.00  0.00    -0.283 N 
ATOM     22  H   UNL     1      -6.182   5.394  -4.868  0.00  0.00    +0.155 HD
BRANCH  21  23
ATOM     23  C   UNL     1      -7.919   5.522  -3.573  0.00  0.00    +0.054 A 
ATOM     24  C   UNL     1      -8.340   6.185  -2.428  0.00  0.00    +0.057 A 
ATOM     25  C   UNL     1      -9.689   6.336  -2.175  0.00  0.00    +0.128 A 
ATOM     26  C   UNL     1     -10.621   5.827  -3.061  0.00  0.00    +0.034 A 
ATOM     27  C   UNL     1     -10.207   5.166  -4.202  0.00  0.00    +0.024 A 
ATOM     28  C   UNL     1      -8.858   5.017  -4.464  0.00  0.00    +0.062 A 
ATOM     29 CL   UNL     1      -8.337   4.192  -5.901  0.00  0.00    -0.082 Cl
BRANCH  25  30
ATOM     30  N   UNL     1     -10.138   7.043  -0.955  0.00  0.00    +0.056 N 
ATOM     31  O   UNL     1      -9.317   7.492  -0.174  0.00  0.00    -0.126 OA
ATOM     32  O   UNL     1     -11.328   7.177  -0.731  0.00  0.00    -0.126 OA
ENDBRANCH  25  30
ENDBRANCH  21  23
ENDBRANCH  18  19
ENDBRANCH   5  18
TORSDOF 5
