REMARK  Name = ZINC09243000
REMARK  6 active torsions:
REMARK  status: ('A' for Active; 'I' for Inactive)
REMARK    1  A    between atoms: C_1  and  C_2
REMARK    2  A    between atoms: C_4  and  C_33
REMARK    3  A    between atoms: N_15  and  C_25
REMARK    4  A    between atoms: C_16  and  C_18
REMARK    5  A    between atoms: C_22  and  O_24
REMARK    6  A    between atoms: C_25  and  C_26
REMARK                            x       y       z     vdW  Elec       q    Type
REMARK                         _______ _______ _______ _____ _____    ______ ____
ROOT
ATOM      1  C   UNL     1       1.656   3.783  -0.015  0.00  0.00    +0.044 C 
ATOM      2  C   UNL     1       1.617   2.277  -0.034  0.00  0.00    -0.049 A 
ATOM      3  C   UNL     1       0.396   1.618  -0.066  0.00  0.00    +0.010 A 
ATOM      4  C   UNL     1       0.337   0.241  -0.084  0.00  0.00    -0.007 A 
ATOM      5  C   UNL     1       1.513  -0.503  -0.069  0.00  0.00    +0.142 A 
ATOM      6  C   UNL     1       2.745   0.173  -0.036  0.00  0.00    +0.065 A 
ATOM      7  C   UNL     1       2.785   1.566  -0.019  0.00  0.00    +0.018 A 
ATOM      8  C   UNL     1       3.981  -0.634  -0.021  0.00  0.00    +0.199 A 
ATOM      9  O   UNL     1       5.083  -0.116   0.007  0.00  0.00    -0.287 OA
ATOM     10  C   UNL     1       3.816  -2.091  -0.043  0.00  0.00    +0.072 A 
ATOM     11  C   UNL     1       2.572  -2.628  -0.075  0.00  0.00    +0.199 A 
ATOM     12  O   UNL     1       1.473  -1.847  -0.087  0.00  0.00    -0.449 OA
ATOM     13  C   UNL     1       2.702  -4.106  -0.091  0.00  0.00    +0.283 C 
ATOM     14  O   UNL     1       1.770  -4.886  -0.119  0.00  0.00    -0.267 OA
ATOM     15  N   UNL     1       3.999  -4.459  -0.069  0.00  0.00    -0.279 N 
ATOM     16  C   UNL     1       4.801  -3.230  -0.038  0.00  0.00    +0.145 C 
ATOM     17  C   UNL     1      -0.998  -0.457  -0.119  0.00  0.00    +0.047 C 
ENDROOT
BRANCH  16  18
ATOM     18  C   UNL     1       5.637  -3.188   1.216  0.00  0.00    -0.019 A 
ATOM     19  C   UNL     1       5.101  -3.614   2.417  0.00  0.00    +0.006 A 
ATOM     20  C   UNL     1       5.865  -3.577   3.569  0.00  0.00    +0.004 A 
ATOM     21  C   UNL     1       7.166  -3.113   3.522  0.00  0.00    +0.045 A 
ATOM     22  C   UNL     1       7.705  -2.685   2.317  0.00  0.00    +0.117 A 
ATOM     23  C   UNL     1       6.938  -2.728   1.162  0.00  0.00    +0.051 A 
BRANCH  22  24
ATOM     24  O   UNL     1       8.984  -2.228   2.268  0.00  0.00    -0.507 OA
ATOM     25  H   UNL     1       9.641  -2.915   2.091  0.00  0.00    +0.292 HD
ENDBRANCH  22  24
ENDBRANCH  16  18
BRANCH  15  26
ATOM     26  C   UNL     1       4.520  -5.828  -0.077  0.00  0.00    +0.145 C 
BRANCH  26  27
ATOM     27  C   UNL     1       4.597  -6.329  -1.496  0.00  0.00    -0.012 A 
ATOM     28  C   UNL     1       3.592  -7.132  -2.002  0.00  0.00    +0.006 A 
ATOM     29  C   UNL     1       3.663  -7.591  -3.304  0.00  0.00    +0.000 A 
ATOM     30  C   UNL     1       4.738  -7.246  -4.101  0.00  0.00    +0.001 A 
ATOM     31  C   UNL     1       5.744  -6.444  -3.597  0.00  0.00    +0.020 A 
ATOM     32  C   UNL     1       5.671  -5.979  -2.295  0.00  0.00    +0.046 A 
ATOM     33 CL   UNL     1       6.929  -4.964  -1.663  0.00  0.00    -0.083 Cl
ENDBRANCH  26  27
ENDBRANCH  15  26
TORSDOF 4
