REMARK  Name = ZINC64798727
REMARK  9 active torsions:
REMARK  status: ('A' for Active; 'I' for Inactive)
REMARK    1  A    between atoms: C_1  and  C_2
REMARK    2  A    between atoms: C_5  and  S_8
REMARK    3  A    between atoms: S_8  and  C_11
REMARK    4  A    between atoms: C_20  and  C_22
REMARK    5  A    between atoms: C_25  and  O_33
REMARK    6  A    between atoms: C_26  and  O_28
REMARK    7  A    between atoms: O_28  and  C_29
REMARK    8  A    between atoms: C_29  and  C_30
REMARK    9  A    between atoms: O_33  and  C_34
REMARK                            x       y       z     vdW  Elec       q    Type
REMARK                         _______ _______ _______ _____ _____    ______ ____
ROOT
ATOM      1  C   UNL     1       1.716  -5.135   0.060  0.00  0.00    +0.122 A 
ATOM      2  C   UNL     1       2.112  -5.887   1.115  0.00  0.00    +0.074 A 
ATOM      3  S   UNL     1       3.821  -6.224   0.712  0.00  0.00    -0.097 S 
ATOM      4  C   UNL     1       3.884  -5.342  -0.819  0.00  0.00    +0.021 A 
ATOM      5  C   UNL     1       2.617  -4.847  -0.962  0.00  0.00    +0.070 A 
ATOM      6  N   UNL     1       2.326  -4.070  -2.121  0.00  0.00    -0.283 N 
ATOM      7  C   UNL     1       3.223  -4.038  -3.121  0.00  0.00    +0.218 C 
ATOM      8  O   UNL     1       3.059  -3.238  -4.019  0.00  0.00    -0.275 OA
ATOM      9  C   UNL     1       4.420  -4.945  -3.180  0.00  0.00    +0.109 C 
ATOM     10  C   UNL     1       5.013  -5.143  -1.774  0.00  0.00    +0.066 C 
ATOM     11  H   UNL     1       1.496  -3.573  -2.186  0.00  0.00    +0.155 HD
ENDROOT
BRANCH  10  12
ATOM     12  C   UNL     1       5.900  -6.362  -1.774  0.00  0.00    -0.035 A 
ATOM     13  C   UNL     1       5.381  -7.592  -2.133  0.00  0.00    +0.008 A 
ATOM     14  C   UNL     1       6.190  -8.713  -2.135  0.00  0.00    +0.050 A 
ATOM     15  C   UNL     1       7.524  -8.605  -1.777  0.00  0.00    +0.162 A 
ATOM     16  C   UNL     1       8.046  -7.367  -1.415  0.00  0.00    +0.163 A 
ATOM     17  C   UNL     1       7.231  -6.246  -1.420  0.00  0.00    +0.053 A 
BRANCH  15  18
ATOM     18  O   UNL     1       8.321  -9.707  -1.778  0.00  0.00    -0.491 OA
ATOM     19  C   UNL     1       7.717 -10.944  -2.159  0.00  0.00    +0.277 C 
ENDBRANCH  15  18
BRANCH  16  20
ATOM     20  O   UNL     1       9.355  -7.256  -1.063  0.00  0.00    -0.479 OA
BRANCH  20  21
ATOM     21  C   UNL     1       9.822  -5.954  -0.704  0.00  0.00    +0.324 C 
BRANCH  21  22
ATOM     22  C   UNL     1      11.284  -6.026  -0.346  0.00  0.00    +0.248 C 
ATOM     23  O   UNL     1      11.869  -7.087  -0.394  0.00  0.00    -0.272 OA
ATOM     24  N   UNL     1      11.942  -4.910   0.027  0.00  0.00    -0.327 N 
ATOM     25  H   UNL     1      11.475  -4.061   0.065  0.00  0.00    +0.145 HD
ATOM     26  H   UNL     1      12.883  -4.957   0.257  0.00  0.00    +0.145 HD
ENDBRANCH  21  22
ENDBRANCH  20  21
ENDBRANCH  16  20
ENDBRANCH  10  12
BRANCH   1  27
ATOM     27  S   UNL     1       0.063  -4.530  -0.023  0.00  0.00    +0.027 S 
ATOM     28  O   UNL     1       0.151  -3.150  -0.351  0.00  0.00    -0.164 OA
ATOM     29  O   UNL     1      -0.599  -4.995   1.146  0.00  0.00    -0.164 OA
BRANCH  27  34
ATOM     30  C   UNL     1      -2.602  -7.246  -4.706  0.00  0.00    +0.044 C 
ATOM     31  C   UNL     1      -1.936  -6.568  -3.536  0.00  0.00    -0.050 A 
ATOM     32  C   UNL     1      -1.879  -7.203  -2.310  0.00  0.00    +0.005 A 
ATOM     33  C   UNL     1      -1.268  -6.581  -1.237  0.00  0.00    +0.027 A 
ATOM     34  C   UNL     1      -0.715  -5.324  -1.391  0.00  0.00    +0.094 A 
ATOM     35  C   UNL     1      -0.771  -4.689  -2.617  0.00  0.00    +0.027 A 
ATOM     36  C   UNL     1      -1.378  -5.313  -3.691  0.00  0.00    +0.005 A 
ENDBRANCH  27  34
ENDBRANCH   1  27
TORSDOF 7
