REMARK  Name = ZINC55185149
REMARK  3 active torsions:
REMARK  status: ('A' for Active; 'I' for Inactive)
REMARK    1  A    between atoms: C_1  and  C_2
REMARK    2  A    between atoms: C_7  and  C_18
REMARK    3  A    between atoms: C_10  and  C_12
REMARK                            x       y       z     vdW  Elec       q    Type
REMARK                         _______ _______ _______ _____ _____    ______ ____
ROOT
ATOM      1  C   UNL     1      -0.196   1.970   0.804  0.00  0.00    +0.028 C 
ATOM      2  C   UNL     1      -0.130   0.506   0.365  0.00  0.00    +0.074 C 
ATOM      3  C   UNL     1       0.515   0.413  -1.021  0.00  0.00    +0.022 C 
ATOM      4  C   UNL     1       1.973   0.872  -0.932  0.00  0.00    +0.004 C 
ATOM      5  C   UNL     1       2.741  -0.046   0.021  0.00  0.00    +0.022 C 
ATOM      6  C   UNL     1       2.121   0.041   1.419  0.00  0.00    +0.074 C 
ATOM      7  N   UNL     1       0.683  -0.259   1.321  0.00  0.00    -0.291 N 
ATOM      8  C   UNL     1       0.123  -1.216   2.087  0.00  0.00    +0.266 C 
ATOM      9  O   UNL     1       0.779  -1.760   2.956  0.00  0.00    -0.268 OA
ATOM     10  C   UNL     1       2.796  -0.974   2.343  0.00  0.00    +0.028 C 
ENDROOT
BRANCH   8  11
ATOM     11  C   UNL     1      -1.280  -1.602   1.874  0.00  0.00    +0.135 A 
ATOM     12  C   UNL     1      -1.984  -2.244   2.862  0.00  0.00    +0.081 A 
ATOM     13  S   UNL     1      -3.569  -2.452   2.062  0.00  0.00    -0.060 S 
ATOM     14  C   UNL     1      -3.145  -1.674   0.510  0.00  0.00    +0.156 A 
ATOM     15  N   UNL     1      -1.890  -1.329   0.718  0.00  0.00    -0.221 NA
ATOM     16  N   UNL     1      -3.930  -1.480  -0.614  0.00  0.00    -0.338 N 
ATOM     17  H   UNL     1      -4.850  -1.787  -0.621  0.00  0.00    +0.144 HD
ATOM     18  H   UNL     1      -3.560  -1.036  -1.393  0.00  0.00    +0.144 HD
ENDBRANCH   8  11
TORSDOF 1
