REMARK  Name = ZINC20704233
REMARK  5 active torsions:
REMARK  status: ('A' for Active; 'I' for Inactive)
REMARK    1  A    between atoms: C_1  and  C_2
REMARK    2  A    between atoms: N_5  and  S_8
REMARK    3  A    between atoms: S_8  and  C_11
REMARK    4  A    between atoms: C_24  and  C_27
REMARK    5  A    between atoms: C_31  and  N_33
REMARK                            x       y       z     vdW  Elec       q    Type
REMARK                         _______ _______ _______ _____ _____    ______ ____
ROOT
ATOM      1  C   UNL     1       4.741  -3.546  -0.004  0.00  0.00    +0.106 A 
ATOM      2  C   UNL     1       3.851  -3.549   1.055  0.00  0.00    +0.030 A 
ATOM      3  C   UNL     1       3.088  -2.430   1.321  0.00  0.00    +0.025 A 
ATOM      4  C   UNL     1       3.207  -1.294   0.530  0.00  0.00    +0.031 A 
ATOM      5  C   UNL     1       4.119  -1.295  -0.531  0.00  0.00    -0.018 A 
ATOM      6  C   UNL     1       4.873  -2.418  -0.793  0.00  0.00    +0.034 A 
ATOM      7  C   UNL     1       4.231  -0.058  -1.336  0.00  0.00    +0.049 C 
ATOM      8  C   UNL     1       4.684  -0.081  -2.750  0.00  0.00    -0.023 C 
ATOM      9  C   UNL     1       4.088   0.911  -3.402  0.00  0.00    -0.030 C 
ATOM     10  C   UNL     1       3.147   1.665  -2.460  0.00  0.00    +0.033 C 
ATOM     11  C   UNL     1       2.814   0.583  -1.425  0.00  0.00    +0.029 C 
ATOM     12  C   UNL     1       2.490   1.047  -0.016  0.00  0.00    +0.105 C 
ATOM     13  N   UNL     1       2.397  -0.184   0.798  0.00  0.00    -0.336 N 
ATOM     14  H   UNL     1       1.681  -0.240   1.631  0.00  0.00    +0.147 HD
ENDROOT
BRANCH  12  15
ATOM     15  C   UNL     1       1.175   1.783   0.000  0.00  0.00    -0.025 A 
ATOM     16  C   UNL     1      -0.013   1.076   0.008  0.00  0.00    +0.007 A 
ATOM     17  C   UNL     1      -1.219   1.750   0.017  0.00  0.00    +0.022 A 
ATOM     18  C   UNL     1      -1.237   3.134   0.030  0.00  0.00    +0.071 A 
ATOM     19  C   UNL     1      -0.048   3.841   0.022  0.00  0.00    +0.145 A 
ATOM     20  C   UNL     1       1.157   3.165   0.007  0.00  0.00    +0.039 A 
ATOM     21 CL   UNL     1      -2.752   3.982   0.049  0.00  0.00    -0.081 Cl
BRANCH  19  22
ATOM     22  N   UNL     1      -0.068   5.321   0.029  0.00  0.00    +0.058 N 
ATOM     23  O   UNL     1       0.979   5.944   0.021  0.00  0.00    -0.126 OA
ATOM     24  O   UNL     1      -1.130   5.916   0.042  0.00  0.00    -0.126 OA
ENDBRANCH  19  22
ENDBRANCH  12  15
BRANCH   1  25
ATOM     25  S   UNL     1       5.707  -4.979  -0.346  0.00  0.00    +0.061 S 
ATOM     26  O   UNL     1       5.003  -6.085   0.202  0.00  0.00    -0.153 OA
ATOM     27  O   UNL     1       6.065  -4.909  -1.719  0.00  0.00    -0.153 OA
BRANCH  25  32
ATOM     28  C   UNL     1       9.510  -2.588   3.218  0.00  0.00    +0.007 C 
ATOM     29  C   UNL     1       9.004  -3.679   2.272  0.00  0.00    -0.012 C 
ATOM     30  C   UNL     1       7.696  -4.258   2.814  0.00  0.00    +0.020 C 
ATOM     31  C   UNL     1       7.210  -5.373   1.883  0.00  0.00    +0.110 C 
ATOM     32  N   UNL     1       7.114  -4.839   0.517  0.00  0.00    -0.177 NA
ATOM     33  C   UNL     1       8.291  -4.185  -0.070  0.00  0.00    +0.110 C 
ATOM     34  C   UNL     1       8.762  -3.078   0.885  0.00  0.00    +0.020 C 
ENDBRANCH  25  32
ENDBRANCH   1  25
TORSDOF 4
