REMARK  Name = ZINC16044712
REMARK  14 active torsions:
REMARK  status: ('A' for Active; 'I' for Inactive)
REMARK    1  A    between atoms: C_1  and  C_2
REMARK    2  A    between atoms: C_3  and  C_8
REMARK    3  A    between atoms: C_4  and  C_7
REMARK    4  A    between atoms: C_8  and  O_9
REMARK    5  A    between atoms: O_9  and  C_10
REMARK    6  A    between atoms: C_15  and  C_16
REMARK    7  A    between atoms: C_16  and  O_18
REMARK    8  A    between atoms: O_18  and  C_19
REMARK    9  A    between atoms: C_19  and  C_20
REMARK   10  A    between atoms: N_22  and  C_23
REMARK   11  A    between atoms: C_28  and  C_29
REMARK   12  A    between atoms: N_31  and  C_32
REMARK   13  A    between atoms: C_32  and  C_34
REMARK   14  A    between atoms: C_32  and  C_35
REMARK                            x       y       z     vdW  Elec       q    Type
REMARK                         _______ _______ _______ _____ _____    ______ ____
ROOT
ATOM      1  C   UNL     1      -3.779  -0.793  -0.364  0.00  0.00    +0.255 C 
ATOM      2  O   UNL     1      -4.789  -0.146  -0.541  0.00  0.00    -0.272 OA
ATOM      3  N   UNL     1      -2.602  -0.166  -0.172  0.00  0.00    -0.282 N 
ATOM      4  H   UNL     1      -1.783  -0.682  -0.107  0.00  0.00    +0.155 HD
ENDROOT
BRANCH   3   5
ATOM      5  C   UNL     1      -2.562   1.222  -0.066  0.00  0.00    +0.046 A 
ATOM      6  C   UNL     1      -3.602   1.906   0.548  0.00  0.00    +0.024 A 
ATOM      7  C   UNL     1      -3.560   3.281   0.652  0.00  0.00    +0.002 A 
ATOM      8  C   UNL     1      -2.482   3.990   0.147  0.00  0.00    +0.001 A 
ATOM      9  C   UNL     1      -1.438   3.328  -0.462  0.00  0.00    +0.015 A 
ATOM     10  C   UNL     1      -1.469   1.936  -0.579  0.00  0.00    +0.058 A 
BRANCH  10  11
ATOM     11  C   UNL     1      -0.356   1.222  -1.233  0.00  0.00    +0.246 C 
ATOM     12  O   UNL     1      -0.341   0.006  -1.250  0.00  0.00    -0.270 OA
ATOM     13  N   UNL     1       0.640   1.917  -1.817  0.00  0.00    -0.305 N 
ATOM     14  H   UNL     1       0.627   2.886  -1.804  0.00  0.00    +0.150 HD
BRANCH  13  15
ATOM     15  C   UNL     1       1.742   1.207  -2.472  0.00  0.00    +0.100 C 
ATOM     16  C   UNL     1       1.342   0.858  -3.907  0.00  0.00    +0.033 C 
BRANCH  15  17
ATOM     17  C   UNL     1       2.965   2.087  -2.492  0.00  0.00    -0.027 A 
ATOM     18  C   UNL     1       2.840   3.439  -2.756  0.00  0.00    +0.005 A 
ATOM     19  C   UNL     1       3.961   4.247  -2.769  0.00  0.00    +0.000 A 
ATOM     20  C   UNL     1       5.209   3.702  -2.529  0.00  0.00    +0.000 A 
ATOM     21  C   UNL     1       5.334   2.350  -2.271  0.00  0.00    +0.000 A 
ATOM     22  C   UNL     1       4.212   1.543  -2.253  0.00  0.00    +0.005 A 
ENDBRANCH  15  17
ENDBRANCH  13  15
ENDBRANCH  10  11
ENDBRANCH   3   5
BRANCH   1  23
ATOM     23  C   UNL     1      -3.840  -2.299  -0.360  0.00  0.00    +0.328 C 
BRANCH  23  24
ATOM     24  O   UNL     1      -5.209  -2.729  -0.587  0.00  0.00    -0.452 OA
BRANCH  24  25
ATOM     25  C   UNL     1      -5.437  -4.056  -0.612  0.00  0.00    +0.343 C 
ATOM     26  O   UNL     1      -4.518  -4.834  -0.449  0.00  0.00    -0.245 OA
BRANCH  25  32
ATOM     27  C   UNL     1      -7.044  -5.946  -0.865  0.00  0.00    +0.135 A 
ATOM     28  C   UNL     1      -8.332  -6.414  -1.078  0.00  0.00    +0.046 A 
ATOM     29  C   UNL     1      -9.370  -5.522  -1.262  0.00  0.00    +0.004 A 
ATOM     30  C   UNL     1      -9.135  -4.157  -1.236  0.00  0.00    +0.001 A 
ATOM     31  C   UNL     1      -7.863  -3.675  -1.020  0.00  0.00    +0.018 A 
ATOM     32  C   UNL     1      -6.802  -4.566  -0.838  0.00  0.00    +0.101 A 
BRANCH  27  33
ATOM     33  O   UNL     1      -6.023  -6.821  -0.684  0.00  0.00    -0.486 OA
BRANCH  33  34
ATOM     34  C   UNL     1      -6.346  -8.212  -0.725  0.00  0.00    +0.269 C 
BRANCH  34  37
ATOM     35  C   UNL     1      -5.129  -9.255   2.097  0.00  0.00    +0.069 C 
ATOM     36  C   UNL     1      -4.559  -9.483   0.721  0.00  0.00    +0.087 A 
ATOM     37  C   UNL     1      -5.095  -9.024  -0.505  0.00  0.00    +0.054 A 
ATOM     38  C   UNL     1      -4.229  -9.489  -1.436  0.00  0.00    +0.141 A 
ATOM     39  O   UNL     1      -3.274 -10.153  -0.768  0.00  0.00    -0.359 OA
ATOM     40  N   UNL     1      -3.476 -10.140   0.424  0.00  0.00    -0.083 NA
ATOM     41  C   UNL     1      -4.318  -9.297  -2.928  0.00  0.00    +0.089 C 
ENDBRANCH  34  37
ENDBRANCH  33  34
ENDBRANCH  27  33
ENDBRANCH  25  32
ENDBRANCH  24  25
ENDBRANCH  23  24
ENDBRANCH   1  23
TORSDOF 11
