REMARK  Name = ZINC35688604
REMARK  12 active torsions:
REMARK  status: ('A' for Active; 'I' for Inactive)
REMARK    1  A    between atoms: C_1  and  C_2
REMARK    2  A    between atoms: C_2  and  C_3
REMARK    3  A    between atoms: C_3  and  C_4
REMARK    4  A    between atoms: C_4  and  N_5
REMARK    5  A    between atoms: N_5  and  C_6
REMARK    6  A    between atoms: C_6  and  C_8
REMARK    7  A    between atoms: C_6  and  C_10
REMARK    8  A    between atoms: C_8  and  C_9
REMARK    9  A    between atoms: N_20  and  C_21
REMARK   10  A    between atoms: C_21  and  C_22
REMARK   11  A    between atoms: N_30  and  C_31
REMARK   12  A    between atoms: C_35  and  C_37
REMARK                            x       y       z     vdW  Elec       q    Type
REMARK                         _______ _______ _______ _____ _____    ______ ____
ROOT
ATOM      1  C   UNL     1       2.879  -2.694  -2.321  0.00  0.00    +0.143 C 
ENDROOT
BRANCH   1   2
ATOM      2  C   UNL     1       3.278  -3.588  -1.176  0.00  0.00    +0.134 A 
ATOM      3  N   UNL     1       3.133  -3.141   0.034  0.00  0.00    -0.232 NA
ATOM      4  C   UNL     1       3.470  -3.890   1.114  0.00  0.00    +0.078 A 
ATOM      5  C   UNL     1       3.314  -3.410   2.416  0.00  0.00    +0.028 A 
ATOM      6  C   UNL     1       3.670  -4.204   3.483  0.00  0.00    +0.002 A 
ATOM      7  C   UNL     1       4.182  -5.479   3.281  0.00  0.00    +0.001 A 
ATOM      8  C   UNL     1       4.345  -5.975   2.006  0.00  0.00    +0.015 A 
ATOM      9  C   UNL     1       3.991  -5.187   0.913  0.00  0.00    +0.065 A 
ATOM     10  C   UNL     1       4.143  -5.663  -0.470  0.00  0.00    +0.262 A 
ATOM     11  O   UNL     1       4.585  -6.771  -0.713  0.00  0.00    -0.267 OA
ATOM     12  N   UNL     1       3.765  -4.824  -1.463  0.00  0.00    -0.290 N 
BRANCH  12  13
ATOM     13  C   UNL     1       3.889  -5.249  -2.859  0.00  0.00    +0.161 C 
BRANCH  13  14
ATOM     14  C   UNL     1       5.274  -4.932  -3.360  0.00  0.00    -0.028 A 
ATOM     15  C   UNL     1       5.510  -3.753  -4.042  0.00  0.00    +0.005 A 
ATOM     16  C   UNL     1       6.781  -3.462  -4.502  0.00  0.00    +0.000 A 
ATOM     17  C   UNL     1       7.816  -4.350  -4.279  0.00  0.00    +0.000 A 
ATOM     18  C   UNL     1       7.581  -5.529  -3.597  0.00  0.00    +0.000 A 
ATOM     19  C   UNL     1       6.311  -5.818  -3.134  0.00  0.00    +0.005 A 
ENDBRANCH  13  14
ENDBRANCH  12  13
ENDBRANCH   1   2
BRANCH   1  20
ATOM     20  N   UNL     1       1.430  -2.484  -2.296  0.00  0.00    -0.275 N 
ATOM     21  C   UNL     1       0.676  -2.861  -3.347  0.00  0.00    +0.307 C 
ATOM     22  O   UNL     1       1.199  -3.375  -4.317  0.00  0.00    -0.252 OA
ATOM     23  N   UNL     1      -0.658  -2.668  -3.324  0.00  0.00    -0.269 N 
ATOM     24  H   UNL     1      -1.067  -2.194  -2.583  0.00  0.00    +0.156 HD
BRANCH  23  25
ATOM     25  C   UNL     1      -1.454  -3.153  -4.369  0.00  0.00    +0.036 A 
ATOM     26  C   UNL     1      -2.576  -2.441  -4.776  0.00  0.00    +0.023 A 
ATOM     27  C   UNL     1      -3.365  -2.915  -5.806  0.00  0.00    +0.003 A 
ATOM     28  C   UNL     1      -3.045  -4.099  -6.439  0.00  0.00    +0.019 A 
ATOM     29  C   UNL     1      -1.919  -4.822  -6.037  0.00  0.00    +0.054 A 
ATOM     30  C   UNL     1      -1.119  -4.340  -5.000  0.00  0.00    +0.042 A 
BRANCH  29  31
ATOM     31  C   UNL     1      -1.585  -6.052  -6.691  0.00  0.00    +0.099 C 
ATOM     32  N   UNL     1      -1.319  -7.027  -7.210  0.00  0.00    -0.191 NA
ENDBRANCH  29  31
ENDBRANCH  23  25
BRANCH  20  33
ATOM     33  C   UNL     1       0.799  -1.865  -1.127  0.00  0.00    +0.110 C 
BRANCH  33  34
ATOM     34  C   UNL     1       0.758  -0.347  -1.314  0.00  0.00    +0.019 C 
BRANCH  34  36
ATOM     35  C   UNL     1       0.058   1.817  -0.281  0.00  0.00    +0.004 C 
ATOM     36  C   UNL     1       0.099   0.299  -0.093  0.00  0.00    -0.002 C 
ENDBRANCH  34  36
ENDBRANCH  33  34
ENDBRANCH  20  33
ENDBRANCH   1  20
BRANCH   1  37
ATOM     37  C   UNL     1       3.592  -1.346  -2.188  0.00  0.00    +0.027 C 
ATOM     38  C   UNL     1       3.267  -0.475  -3.402  0.00  0.00    +0.006 C 
ENDBRANCH   1  37
TORSDOF 10
