REMARK  Name = ZINC01086963
REMARK  10 active torsions:
REMARK  status: ('A' for Active; 'I' for Inactive)
REMARK    1  A    between atoms: C_1  and  O_2
REMARK    2  A    between atoms: O_2  and  C_3
REMARK    3  A    between atoms: C_6  and  C_11
REMARK    4  A    between atoms: C_8  and  O_9
REMARK    5  A    between atoms: O_9  and  C_10
REMARK    6  A    between atoms: N_12  and  N_13
REMARK    7  A    between atoms: C_14  and  C_16
REMARK    8  A    between atoms: C_17  and  N_29
REMARK    9  A    between atoms: N_19  and  C_21
REMARK   10  A    between atoms: C_21  and  C_22
REMARK                            x       y       z     vdW  Elec       q    Type
REMARK                         _______ _______ _______ _____ _____    ______ ____
ROOT
ATOM      1  N   UNL     1       4.745   1.422   2.399  0.00  0.00    -0.202 N 
ATOM      2  C   UNL     1       4.661   2.215   1.312  0.00  0.00    +0.286 C 
ATOM      3  O   UNL     1       5.632   2.847   0.944  0.00  0.00    -0.267 OA
ATOM      4  H   UNL     1       3.970   0.918   2.693  0.00  0.00    +0.178 HD
ENDROOT
BRANCH   2   5
ATOM      5  C   UNL     1       3.389   2.316   0.569  0.00  0.00    +0.179 A 
ATOM      6  C   UNL     1       3.147   3.102  -0.583  0.00  0.00    +0.176 A 
ATOM      7  C   UNL     1       1.852   2.878  -0.908  0.00  0.00    +0.142 A 
ATOM      8  N   UNL     1       1.356   2.010  -0.000  0.00  0.00    -0.264 N 
ATOM      9  N   UNL     1       2.261   1.697   0.856  0.00  0.00    -0.164 NA
BRANCH   6  10
ATOM     10  N   UNL     1       4.107   3.983  -1.285  0.00  0.00    +0.060 N 
ATOM     11  O   UNL     1       3.756   4.603  -2.272  0.00  0.00    -0.126 OA
ATOM     12  O   UNL     1       5.250   4.087  -0.875  0.00  0.00    -0.126 OA
ENDBRANCH   6  10
BRANCH   8  13
ATOM     13  C   UNL     1      -0.018   1.503   0.010  0.00  0.00    +0.178 C 
BRANCH  13  14
ATOM     14  C   UNL     1       0.002  -0.004   0.002  0.00  0.00    -0.026 A 
ATOM     15  C   UNL     1      -0.006  -0.689  -1.199  0.00  0.00    +0.006 A 
ATOM     16  C   UNL     1       0.018  -2.071  -1.207  0.00  0.00    +0.015 A 
ATOM     17  C   UNL     1       0.039  -2.769  -0.013  0.00  0.00    +0.018 A 
ATOM     18  C   UNL     1       0.041  -2.083   1.188  0.00  0.00    +0.015 A 
ATOM     19  C   UNL     1       0.023  -0.701   1.196  0.00  0.00    +0.006 A 
ATOM     20 BR   UNL     1       0.064  -4.660  -0.024  0.00  0.00    -0.050 Br
ENDBRANCH  13  14
ENDBRANCH   8  13
ENDBRANCH   2   5
BRANCH   1  22
ATOM     21  C   UNL     1       6.033   0.562   4.150  0.00  0.00    +0.138 C 
ATOM     22  N   UNL     1       5.952   1.325   3.104  0.00  0.00    -0.187 NA
BRANCH  21  26
ATOM     23  C   UNL     1       9.696   0.273   6.284  0.00  0.00    +0.162 A 
ATOM     24  C   UNL     1       9.607   1.089   5.165  0.00  0.00    +0.050 A 
ATOM     25  C   UNL     1       8.422   1.181   4.467  0.00  0.00    +0.013 A 
ATOM     26  C   UNL     1       7.303   0.460   4.892  0.00  0.00    -0.002 A 
ATOM     27  C   UNL     1       7.393  -0.361   6.019  0.00  0.00    +0.059 A 
ATOM     28  C   UNL     1       8.586  -0.453   6.710  0.00  0.00    +0.162 A 
BRANCH  23  30
ATOM     29  C   UNL     1      11.967   0.952   6.473  0.00  0.00    +0.277 C 
ATOM     30  O   UNL     1      10.869   0.181   6.965  0.00  0.00    -0.491 OA
ENDBRANCH  23  30
BRANCH  28  31
ATOM     31  O   UNL     1       8.676  -1.252   7.808  0.00  0.00    -0.491 OA
ATOM     32  C   UNL     1       7.499  -1.966   8.188  0.00  0.00    +0.277 C 
ENDBRANCH  28  31
ENDBRANCH  21  26
ENDBRANCH   1  22
TORSDOF 8
