REMARK  Name = ZINC06475536
REMARK  5 active torsions:
REMARK  status: ('A' for Active; 'I' for Inactive)
REMARK    1  A    between atoms: C_6  and  O_11
REMARK    2  A    between atoms: O_11  and  C_12
REMARK    3  A    between atoms: C_12  and  C_14
REMARK    4  A    between atoms: C_21  and  C_30
REMARK    5  A    between atoms: C_33  and  N_36
REMARK                            x       y       z     vdW  Elec       q    Type
REMARK                         _______ _______ _______ _____ _____    ______ ____
ROOT
ATOM      1  C   UNL     1       7.146   3.959   0.179  0.00  0.00    +0.080 A 
ATOM      2  C   UNL     1       7.181   5.350   0.288  0.00  0.00    +0.017 A 
ATOM      3  C   UNL     1       8.394   5.994   0.396  0.00  0.00    +0.001 A 
ATOM      4  C   UNL     1       9.571   5.267   0.389  0.00  0.00    +0.006 A 
ATOM      5  C   UNL     1       9.558   3.885   0.278  0.00  0.00    -0.019 A 
ATOM      6  C   UNL     1       8.347   3.223   0.167  0.00  0.00    +0.046 A 
ATOM      7  N   UNL     1       8.264   1.846   0.037  0.00  0.00    -0.336 N 
ATOM      8  C   UNL     1       9.405   1.162   0.569  0.00  0.00    +0.105 C 
ATOM      9  C   UNL     1      10.703   1.671  -0.063  0.00  0.00    +0.029 C 
ATOM     10  C   UNL     1      10.874   3.165   0.286  0.00  0.00    +0.049 C 
ATOM     11  C   UNL     1      11.475   3.170   1.674  0.00  0.00    -0.023 C 
ATOM     12  C   UNL     1      12.030   1.997   1.925  0.00  0.00    -0.030 C 
ATOM     13  C   UNL     1      11.903   1.076   0.728  0.00  0.00    +0.033 C 
ATOM     14  H   UNL     1       7.401   1.497   0.427  0.00  0.00    +0.147 HD
ENDROOT
BRANCH   8  15
ATOM     15  C   UNL     1       9.275  -0.320   0.325  0.00  0.00    -0.027 A 
ATOM     16  C   UNL     1       8.816  -0.782  -0.894  0.00  0.00    +0.008 A 
ATOM     17  C   UNL     1       8.701  -2.141  -1.119  0.00  0.00    +0.033 A 
ATOM     18  C   UNL     1       9.036  -3.037  -0.121  0.00  0.00    +0.126 A 
ATOM     19  C   UNL     1       9.490  -2.575   1.100  0.00  0.00    +0.033 A 
ATOM     20  C   UNL     1       9.609  -1.216   1.323  0.00  0.00    +0.008 A 
BRANCH  18  21
ATOM     21  N   UNL     1       8.909  -4.492  -0.361  0.00  0.00    +0.056 N 
ATOM     22  O   UNL     1       9.205  -5.282   0.518  0.00  0.00    -0.126 OA
ATOM     23  O   UNL     1       8.509  -4.900  -1.437  0.00  0.00    -0.126 OA
ENDBRANCH  18  21
ENDBRANCH   8  15
BRANCH   1  24
ATOM     24  C   UNL     1       5.853   3.262   0.070  0.00  0.00    +0.346 C 
ATOM     25  O   UNL     1       5.824   2.067  -0.151  0.00  0.00    -0.244 OA
BRANCH  24  26
ATOM     26  O   UNL     1       4.702   3.949   0.215  0.00  0.00    -0.422 OA
BRANCH  26  32
ATOM     27  C   UNL     1      -0.793   0.981  -0.720  0.00  0.00    +0.001 A 
ATOM     28  C   UNL     1      -0.471   1.712  -1.862  0.00  0.00    +0.001 A 
ATOM     29  C   UNL     1       0.673   2.446  -1.925  0.00  0.00    +0.008 A 
ATOM     30  C   UNL     1       1.542   2.474  -0.820  0.00  0.00    -0.014 A 
ATOM     31  C   UNL     1       2.732   3.221  -0.849  0.00  0.00    +0.055 A 
ATOM     32  C   UNL     1       3.552   3.226   0.243  0.00  0.00    +0.133 A 
ATOM     33  C   UNL     1       3.224   2.496   1.390  0.00  0.00    +0.047 A 
ATOM     34  C   UNL     1       2.080   1.763   1.449  0.00  0.00    +0.012 A 
ATOM     35  C   UNL     1       1.212   1.736   0.343  0.00  0.00    -0.018 A 
ATOM     36  C   UNL     1       0.022   0.989   0.370  0.00  0.00    +0.008 A 
ENDBRANCH  26  32
ENDBRANCH  24  26
ENDBRANCH   1  24
TORSDOF 5
