REMARK  Name = ZINC02052290
REMARK  6 active torsions:
REMARK  status: ('A' for Active; 'I' for Inactive)
REMARK    1  A    between atoms: C_1  and  C_2
REMARK    2  A    between atoms: C_2  and  N_3
REMARK    3  A    between atoms: N_5  and  C_22
REMARK    4  A    between atoms: C_8  and  C_11
REMARK    5  A    between atoms: C_11  and  C_12
REMARK    6  A    between atoms: N_14  and  C_15
REMARK                            x       y       z     vdW  Elec       q    Type
REMARK                         _______ _______ _______ _____ _____    ______ ____
ROOT
ATOM      1  N   UNL     1       0.637  -0.739  -0.918  0.00  0.00    -0.263 NA
ATOM      2  C   UNL     1       1.805  -1.313  -0.877  0.00  0.00    +0.159 C 
ATOM      3  N   UNL     1       2.591  -1.573   0.229  0.00  0.00    -0.247 N 
ATOM      4  C   UNL     1       3.768  -2.167   0.139  0.00  0.00    +0.235 C 
ATOM      5  O   UNL     1       4.452  -2.392   1.114  0.00  0.00    -0.274 OA
ATOM      6  C   UNL     1       4.210  -2.552  -1.264  0.00  0.00    +0.149 C 
ATOM      7  S   UNL     1       2.765  -1.959  -2.239  0.00  0.00    -0.077 S 
ENDROOT
BRANCH   3   8
ATOM      8  C   UNL     1       2.101  -1.174   1.551  0.00  0.00    +0.083 C 
ATOM      9  C   UNL     1       1.562  -2.402   2.287  0.00  0.00    +0.023 C 
ATOM     10  C   UNL     1       1.423  -2.083   3.777  0.00  0.00    +0.002 C 
ATOM     11  C   UNL     1       0.188  -1.208   3.999  0.00  0.00    +0.000 C 
ATOM     12  C   UNL     1       0.491   0.224   3.556  0.00  0.00    +0.000 C 
ATOM     13  C   UNL     1       1.874   0.635   4.067  0.00  0.00    +0.000 C 
ATOM     14  C   UNL     1       2.823   0.815   2.881  0.00  0.00    +0.002 C 
ATOM     15  C   UNL     1       3.248  -0.559   2.356  0.00  0.00    +0.023 C 
ENDBRANCH   3   8
BRANCH   1  17
ATOM     16  C   UNL     1      -1.641  -0.606  -0.039  0.00  0.00    +0.029 C 
ATOM     17  C   UNL     1      -0.151  -0.594   0.308  0.00  0.00    +0.141 C 
ENDBRANCH   1  17
BRANCH   6  18
ATOM     18  C   UNL     1       4.379  -4.067  -1.396  0.00  0.00    +0.120 C 
BRANCH  18  19
ATOM     19  C   UNL     1       4.933  -4.394  -2.758  0.00  0.00    +0.219 C 
ATOM     20  O   UNL     1       5.170  -3.502  -3.546  0.00  0.00    -0.275 OA
ATOM     21  N   UNL     1       5.166  -5.676  -3.101  0.00  0.00    -0.285 N 
ATOM     22  H   UNL     1       4.865  -6.395  -2.524  0.00  0.00    +0.155 HD
BRANCH  21  23
ATOM     23  C   UNL     1       5.843  -5.971  -4.290  0.00  0.00    +0.033 A 
ATOM     24  C   UNL     1       5.550  -7.136  -4.987  0.00  0.00    +0.024 A 
ATOM     25  C   UNL     1       6.219  -7.424  -6.160  0.00  0.00    +0.016 A 
ATOM     26  C   UNL     1       7.180  -6.553  -6.642  0.00  0.00    +0.013 A 
ATOM     27  C   UNL     1       7.474  -5.391  -5.950  0.00  0.00    +0.016 A 
ATOM     28  C   UNL     1       6.804  -5.096  -4.779  0.00  0.00    +0.024 A 
ATOM     29  I   UNL     1       8.194  -6.994  -8.421  0.00  0.00    -0.044 I 
ENDBRANCH  21  23
ENDBRANCH  18  19
ENDBRANCH   6  18
TORSDOF 5
