REMARK  Name = ZINC59016906
REMARK  13 active torsions:
REMARK  status: ('A' for Active; 'I' for Inactive)
REMARK    1  A    between atoms: C_1  and  C_2
REMARK    2  A    between atoms: C_2  and  C_3
REMARK    3  A    between atoms: C_3  and  S_4
REMARK    4  A    between atoms: S_4  and  C_5
REMARK    5  A    between atoms: C_10  and  N_11
REMARK    6  A    between atoms: C_12  and  C_14
REMARK    7  A    between atoms: C_14  and  S_15
REMARK    8  A    between atoms: S_15  and  C_16
REMARK    9  A    between atoms: N_21  and  N_22
REMARK   10  A    between atoms: C_23  and  C_24
REMARK   11  A    between atoms: C_28  and  O_31
REMARK   12  A    between atoms: C_29  and  O_30
REMARK   13  A    between atoms: O_31  and  C_32
REMARK                            x       y       z     vdW  Elec       q    Type
REMARK                         _______ _______ _______ _____ _____    ______ ____
ROOT
ATOM      1  C   UNL     1      -1.226 -10.255   0.420  0.00  0.00    +0.211 A 
ATOM      2  N   UNL     1      -1.325 -11.585   0.519  0.00  0.00    -0.186 NA
ATOM      3  C   UNL     1      -0.121 -12.115   0.579  0.00  0.00    +0.232 A 
ATOM      4  N   UNL     1       0.780 -11.112   0.517  0.00  0.00    -0.245 N 
ATOM      5  N   UNL     1       0.043  -9.921   0.410  0.00  0.00    -0.144 NA
ATOM      6  N   UNL     1       0.169 -13.463   0.685  0.00  0.00    -0.205 N 
ATOM      7  H   UNL     1       1.091 -13.759   0.723  0.00  0.00    +0.177 HD
ATOM      8  H   UNL     1       1.746 -11.197   0.540  0.00  0.00    +0.192 HD
ENDROOT
BRANCH   6   9
ATOM      9  N   UNL     1      -0.871 -14.401   0.739  0.00  0.00    -0.187 NA
ATOM     10  C   UNL     1      -0.599 -15.666   0.840  0.00  0.00    +0.142 C 
BRANCH  10  11
ATOM     11  C   UNL     1      -1.692 -16.653   0.896  0.00  0.00    +0.040 A 
ATOM     12  C   UNL     1      -1.403 -18.016   1.010  0.00  0.00    +0.013 A 
ATOM     13  C   UNL     1      -2.429 -18.936   1.063  0.00  0.00    +0.004 A 
ATOM     14  C   UNL     1      -3.747 -18.517   1.003  0.00  0.00    +0.049 A 
ATOM     15  C   UNL     1      -4.048 -17.169   0.890  0.00  0.00    +0.162 A 
ATOM     16  C   UNL     1      -3.025 -16.229   0.843  0.00  0.00    +0.167 A 
BRANCH  16  17
ATOM     17  O   UNL     1      -3.317 -14.906   0.738  0.00  0.00    -0.503 OA
ATOM     18  H   UNL     1      -3.388 -14.590  -0.174  0.00  0.00    +0.292 HD
ENDBRANCH  16  17
BRANCH  15  19
ATOM     19  O   UNL     1      -5.346 -16.765   0.831  0.00  0.00    -0.491 OA
ATOM     20  C   UNL     1      -6.346 -17.783   0.891  0.00  0.00    +0.277 C 
ENDBRANCH  15  19
ENDBRANCH  10  11
ENDBRANCH   6   9
BRANCH   1  21
ATOM     21  S   UNL     1      -2.580  -9.132   0.314  0.00  0.00    -0.075 S 
BRANCH  21  22
ATOM     22  C   UNL     1      -1.791  -7.503   0.195  0.00  0.00    +0.173 C 
BRANCH  22  24
ATOM     23  N   UNL     1      -2.498  -5.141  -0.001  0.00  0.00    -0.284 N 
ATOM     24  C   UNL     1      -2.852  -6.437   0.097  0.00  0.00    +0.228 C 
ATOM     25  O   UNL     1      -4.025  -6.747   0.106  0.00  0.00    -0.275 OA
ATOM     26  H   UNL     1      -1.562  -4.899  -0.089  0.00  0.00    +0.155 HD
BRANCH  23  32
ATOM     27  C   UNL     1      -3.233  -2.902  -0.566  0.00  0.00    +0.029 A 
ATOM     28  C   UNL     1      -4.213  -1.919  -0.542  0.00  0.00    +0.016 A 
ATOM     29  C   UNL     1      -5.426  -2.169   0.070  0.00  0.00    +0.001 A 
ATOM     30  C   UNL     1      -5.669  -3.396   0.660  0.00  0.00    +0.002 A 
ATOM     31  C   UNL     1      -4.699  -4.381   0.641  0.00  0.00    +0.024 A 
ATOM     32  C   UNL     1      -3.480  -4.142   0.024  0.00  0.00    +0.047 A 
BRANCH  27  33
ATOM     33  S   UNL     1      -1.685  -2.587  -1.346  0.00  0.00    -0.123 S 
BRANCH  33  34
ATOM     34  C   UNL     1      -1.836  -0.883  -1.949  0.00  0.00    +0.074 C 
BRANCH  34  36
ATOM     35  C   UNL     1      -0.669   0.961  -3.166  0.00  0.00    +0.004 C 
ATOM     36  C   UNL     1      -0.542  -0.477  -2.657  0.00  0.00    +0.008 C 
ENDBRANCH  34  36
ENDBRANCH  33  34
ENDBRANCH  27  33
ENDBRANCH  23  32
ENDBRANCH  22  24
ENDBRANCH  21  22
ENDBRANCH   1  21
TORSDOF 11
