REMARK  Name = ZINC38904780
REMARK  7 active torsions:
REMARK  status: ('A' for Active; 'I' for Inactive)
REMARK    1  A    between atoms: C_1  and  C_2
REMARK    2  A    between atoms: C_2  and  C_4
REMARK    3  A    between atoms: C_2  and  N_11
REMARK    4  A    between atoms: C_12  and  C_14
REMARK    5  A    between atoms: N_19  and  C_21
REMARK    6  A    between atoms: C_21  and  C_22
REMARK    7  A    between atoms: C_24  and  C_27
REMARK                            x       y       z     vdW  Elec       q    Type
REMARK                         _______ _______ _______ _____ _____    ______ ____
ROOT
ATOM      1  C   UNL     1       2.736  -1.073  -2.455  0.00  0.00    +0.058 C 
ATOM      2  C   UNL     1       2.248  -2.483  -2.801  0.00  0.00    +0.009 C 
ATOM      3  C   UNL     1       3.027  -2.998  -4.015  0.00  0.00    -0.018 C 
ATOM      4  C   UNL     1       4.525  -2.962  -3.706  0.00  0.00    -0.078 C 
ATOM      5  N   UNL     1       4.935  -1.584  -3.409  0.00  0.00    +0.386 N 
ATOM      6  C   UNL     1       4.245  -1.108  -2.204  0.00  0.00    -0.065 C 
ATOM      7  H   UNL     1       4.697  -0.988  -4.188  0.00  0.00    -0.081 HD
ENDROOT
BRANCH   1   9
ATOM      8  N   UNL     1       0.688  -0.476  -1.203  0.00  0.00    -0.309 N 
ATOM      9  C   UNL     1       2.031  -0.587  -1.215  0.00  0.00    +0.215 C 
ATOM     10  O   UNL     1       2.672  -0.295  -0.228  0.00  0.00    -0.276 OA
ATOM     11  H   UNL     1       0.175  -0.710  -1.993  0.00  0.00    +0.149 HD
BRANCH   8  13
ATOM     12  C   UNL     1      -0.019   1.526   0.010  0.00  0.00    +0.033 C 
ATOM     13  C   UNL     1       0.002  -0.004   0.002  0.00  0.00    +0.100 C 
BRANCH  13  14
ATOM     14  C   UNL     1      -1.412  -0.526   0.013  0.00  0.00    -0.027 A 
ATOM     15  C   UNL     1      -2.141  -0.569  -1.161  0.00  0.00    +0.008 A 
ATOM     16  C   UNL     1      -3.437  -1.047  -1.153  0.00  0.00    +0.038 A 
ATOM     17  C   UNL     1      -4.006  -1.484   0.032  0.00  0.00    +0.123 A 
ATOM     18  C   UNL     1      -3.275  -1.440   1.207  0.00  0.00    +0.038 A 
ATOM     19  C   UNL     1      -1.976  -0.966   1.195  0.00  0.00    +0.008 A 
ATOM     20  F   UNL     1      -5.273  -1.951   0.042  0.00  0.00    -0.205 F 
ENDBRANCH  13  14
ENDBRANCH   8  13
ENDBRANCH   1   9
BRANCH   5  21
ATOM     21  C   UNL     1       6.387  -1.543  -3.189  0.00  0.00    +0.022 C 
BRANCH  21  22
ATOM     22  C   UNL     1       7.098  -1.904  -4.467  0.00  0.00    +0.211 A 
ATOM     23  N   UNL     1       7.476  -1.067  -5.391  0.00  0.00    -0.193 NA
ATOM     24  C   UNL     1       8.082  -1.729  -6.393  0.00  0.00    +0.202 A 
ATOM     25  N   UNL     1       8.091  -3.007  -6.105  0.00  0.00    -0.056 NA
ATOM     26  O   UNL     1       7.455  -3.139  -4.843  0.00  0.00    -0.340 OA
BRANCH  24  27
ATOM     27  C   UNL     1       8.646  -1.115  -7.620  0.00  0.00    +0.023 A 
ATOM     28  C   UNL     1       8.577   0.265  -7.807  0.00  0.00    +0.012 A 
ATOM     29  C   UNL     1       9.102   0.832  -8.950  0.00  0.00    +0.002 A 
ATOM     30  C   UNL     1       9.697   0.034  -9.911  0.00  0.00    +0.015 A 
ATOM     31  C   UNL     1       9.769  -1.337  -9.731  0.00  0.00    +0.019 A 
ATOM     32  C   UNL     1       9.251  -1.914  -8.588  0.00  0.00    +0.027 A 
ATOM     33 BR   UNL     1      10.583  -2.420 -11.050  0.00  0.00    -0.050 Br
ENDBRANCH  24  27
ENDBRANCH  21  22
ENDBRANCH   5  21
TORSDOF 6
