REMARK  Name = ZINC59472974
REMARK  13 active torsions:
REMARK  status: ('A' for Active; 'I' for Inactive)
REMARK    1  A    between atoms: C_1  and  C_2
REMARK    2  A    between atoms: C_2  and  C_27
REMARK    3  A    between atoms: N_3  and  N_4
REMARK    4  A    between atoms: C_5  and  C_7
REMARK    5  A    between atoms: C_7  and  N_8
REMARK    6  A    between atoms: N_8  and  C_9
REMARK    7  A    between atoms: N_8  and  S_15
REMARK    8  A    between atoms: S_15  and  C_18
REMARK    9  A    between atoms: C_23  and  N_24
REMARK   10  A    between atoms: C_30  and  O_35
REMARK   11  A    between atoms: C_31  and  O_33
REMARK   12  A    between atoms: O_33  and  C_34
REMARK   13  A    between atoms: O_35  and  C_36
REMARK                            x       y       z     vdW  Elec       q    Type
REMARK                         _______ _______ _______ _____ _____    ______ ____
ROOT
ATOM      1  N   UNL     1      -0.489  -0.465   5.109  0.00  0.00    -0.194 N 
ENDROOT
BRANCH   1   2
ATOM      2  C   UNL     1       0.828  -0.693   5.516  0.00  0.00    +0.052 A 
ATOM      3  C   UNL     1       1.128  -1.785   6.321  0.00  0.00    +0.025 A 
ATOM      4  C   UNL     1       2.431  -2.007   6.721  0.00  0.00    +0.002 A 
ATOM      5  C   UNL     1       3.436  -1.145   6.322  0.00  0.00    +0.000 A 
ATOM      6  C   UNL     1       3.140  -0.057   5.521  0.00  0.00    +0.002 A 
ATOM      7  C   UNL     1       1.840   0.168   5.112  0.00  0.00    +0.025 A 
ENDBRANCH   1   2
BRANCH   1   8
ATOM      8  S   UNL     1      -1.748  -1.043   6.016  0.00  0.00    +0.077 S 
ATOM      9  O   UNL     1      -1.273  -1.147   7.351  0.00  0.00    -0.150 OA
ATOM     10  O   UNL     1      -2.887  -0.267   5.671  0.00  0.00    -0.150 OA
BRANCH   8  11
ATOM     11  C   UNL     1      -2.074  -2.686   5.468  0.00  0.00    +0.139 A 
ATOM     12  C   UNL     1      -1.140  -3.356   4.699  0.00  0.00    +0.031 A 
ATOM     13  C   UNL     1      -1.395  -4.644   4.269  0.00  0.00    +0.002 A 
ATOM     14  C   UNL     1      -2.584  -5.264   4.608  0.00  0.00    +0.002 A 
ATOM     15  C   UNL     1      -3.517  -4.594   5.378  0.00  0.00    +0.035 A 
ATOM     16  C   UNL     1      -3.260  -3.307   5.811  0.00  0.00    +0.153 A 
BRANCH  16  17
ATOM     17  N   UNL     1      -4.256  -2.592   6.640  0.00  0.00    +0.058 N 
ATOM     18  O   UNL     1      -5.346  -3.080   6.830  0.00  0.00    -0.126 OA
ATOM     19  O   UNL     1      -3.981  -1.520   7.127  0.00  0.00    -0.126 OA
ENDBRANCH  16  17
ENDBRANCH   8  11
ENDBRANCH   1   8
BRANCH   1  20
ATOM     20  C   UNL     1      -0.756   0.285   3.879  0.00  0.00    +0.228 C 
BRANCH  20  22
ATOM     21  N   UNL     1      -0.722  -0.140   1.443  0.00  0.00    -0.205 N 
ATOM     22  C   UNL     1      -0.435  -0.576   2.685  0.00  0.00    +0.251 C 
ATOM     23  O   UNL     1       0.082  -1.663   2.842  0.00  0.00    -0.272 OA
ATOM     24  H   UNL     1      -1.135   0.729   1.317  0.00  0.00    +0.177 HD
BRANCH  21  27
ATOM     25  C   UNL     1      -1.343   0.829  -1.059  0.00  0.00    +0.068 C 
ATOM     26  C   UNL     1      -0.701  -0.521  -0.864  0.00  0.00    +0.063 C 
ATOM     27  N   UNL     1      -0.424  -0.941   0.333  0.00  0.00    -0.185 NA
BRANCH  26  28
ATOM     28  C   UNL     1      -0.387  -1.363  -2.032  0.00  0.00    +0.001 A 
ATOM     29  C   UNL     1      -0.678  -0.910  -3.321  0.00  0.00    +0.013 A 
ATOM     30  C   UNL     1      -0.384  -1.700  -4.412  0.00  0.00    +0.050 A 
ATOM     31  C   UNL     1       0.202  -2.945  -4.234  0.00  0.00    +0.162 A 
ATOM     32  C   UNL     1       0.496  -3.403  -2.952  0.00  0.00    +0.162 A 
ATOM     33  C   UNL     1       0.208  -2.615  -1.853  0.00  0.00    +0.059 A 
BRANCH  32  34
ATOM     34  O   UNL     1       1.070  -4.624  -2.781  0.00  0.00    -0.491 OA
ATOM     35  C   UNL     1       1.344  -5.030  -1.438  0.00  0.00    +0.277 C 
ENDBRANCH  32  34
BRANCH  31  36
ATOM     36  O   UNL     1       0.490  -3.720  -5.313  0.00  0.00    -0.491 OA
ATOM     37  C   UNL     1       0.162  -3.189  -6.599  0.00  0.00    +0.277 C 
ENDBRANCH  31  36
ENDBRANCH  26  28
ENDBRANCH  21  27
ENDBRANCH  20  22
ENDBRANCH   1  20
TORSDOF 10
