REMARK  Name = ZINC41088053
REMARK  6 active torsions:
REMARK  status: ('A' for Active; 'I' for Inactive)
REMARK    1  A    between atoms: C_1  and  C_2
REMARK    2  A    between atoms: C_7  and  O_10
REMARK    3  A    between atoms: O_10  and  C_11
REMARK    4  A    between atoms: C_11  and  C_13
REMARK    5  A    between atoms: C_15  and  N_19
REMARK    6  A    between atoms: N_17  and  C_18
REMARK                            x       y       z     vdW  Elec       q    Type
REMARK                         _______ _______ _______ _____ _____    ______ ____
ROOT
ATOM      1  C   UNL     1       2.105  -3.690   2.277  0.00  0.00    +0.356 C 
ATOM      2  O   UNL     1       2.085  -4.297   1.223  0.00  0.00    -0.243 OA
ENDROOT
BRANCH   1   3
ATOM      3  C   UNL     1       2.835  -4.237   3.423  0.00  0.00    +0.129 A 
ATOM      4  C   UNL     1       3.546  -5.420   3.448  0.00  0.00    +0.057 A 
ATOM      5  C   UNL     1       4.081  -5.553   4.736  0.00  0.00    +0.043 A 
ATOM      6  C   UNL     1       3.694  -4.470   5.460  0.00  0.00    +0.108 A 
ATOM      7  N   UNL     1       2.941  -3.661   4.669  0.00  0.00    -0.343 N 
ATOM      8  C   UNL     1       2.338  -2.389   5.076  0.00  0.00    +0.149 C 
BRANCH   5   9
ATOM      9  N   UNL     1       4.877  -6.618   5.197  0.00  0.00    -0.357 N 
ATOM     10  H   UNL     1       5.101  -7.350   4.601  0.00  0.00    +0.142 HD
ATOM     11  H   UNL     1       5.202  -6.620   6.111  0.00  0.00    +0.142 HD
ENDBRANCH   5   9
ENDBRANCH   1   3
BRANCH   1  12
ATOM     12  O   UNL     1       1.454  -2.514   2.391  0.00  0.00    -0.457 OA
BRANCH  12  18
ATOM     13  C   UNL     1      -0.019   1.526   0.010  0.00  0.00    +0.007 C 
ATOM     14  C   UNL     1       0.002  -0.004   0.002  0.00  0.00    -0.011 C 
ATOM     15  C   UNL     1      -1.433  -0.534   0.013  0.00  0.00    +0.003 C 
ATOM     16  C   UNL     1      -1.413  -2.063   0.004  0.00  0.00    +0.004 C 
ATOM     17  C   UNL     1      -0.673  -2.570   1.244  0.00  0.00    +0.045 C 
ATOM     18  C   UNL     1       0.763  -2.041   1.233  0.00  0.00    +0.177 C 
ATOM     19  C   UNL     1       0.742  -0.511   1.242  0.00  0.00    +0.048 C 
ENDBRANCH  12  18
ENDBRANCH   1  12
TORSDOF 4
