REMARK  Name = ZINC59832292
REMARK  7 active torsions:
REMARK  status: ('A' for Active; 'I' for Inactive)
REMARK    1  A    between atoms: C_1  and  C_2
REMARK    2  A    between atoms: C_2  and  C_4
REMARK    3  A    between atoms: C_2  and  S_12
REMARK    4  A    between atoms: S_12  and  C_13
REMARK    5  A    between atoms: C_16  and  C_25
REMARK    6  A    between atoms: N_17  and  C_18
REMARK    7  A    between atoms: C_18  and  C_19
REMARK                            x       y       z     vdW  Elec       q    Type
REMARK                         _______ _______ _______ _____ _____    ______ ____
ROOT
ATOM      1  C   UNL     1      -2.359  -0.132  -1.542  0.00  0.00    +0.193 A 
ATOM      2  N   UNL     1      -1.744   0.620  -2.424  0.00  0.00    -0.122 NA
ATOM      3  N   UNL     1      -2.525   0.873  -3.413  0.00  0.00    -0.128 NA
ATOM      4  C   UNL     1      -3.690   0.297  -3.222  0.00  0.00    +0.167 A 
ATOM      5  N   UNL     1      -3.619  -0.370  -2.021  0.00  0.00    -0.300 N 
ENDROOT
BRANCH   4   6
ATOM      6  C   UNL     1      -4.855   0.350  -4.129  0.00  0.00    +0.044 A 
ATOM      7  C   UNL     1      -5.624  -0.698  -4.522  0.00  0.00    +0.095 A 
ATOM      8  N   UNL     1      -6.606  -0.257  -5.362  0.00  0.00    -0.360 N 
ATOM      9  H   UNL     1      -7.280  -0.822  -5.773  0.00  0.00    +0.165 HD
ATOM     10  C   UNL     1      -6.504   1.106  -5.541  0.00  0.00    +0.047 A 
ATOM     11  C   UNL     1      -5.411   1.549  -4.777  0.00  0.00    +0.010 A 
ATOM     12  C   UNL     1      -5.072   2.901  -4.764  0.00  0.00    +0.011 A 
ATOM     13  C   UNL     1      -5.814   3.797  -5.500  0.00  0.00    +0.001 A 
ATOM     14  C   UNL     1      -6.896   3.361  -6.252  0.00  0.00    +0.002 A 
ATOM     15  C   UNL     1      -7.238   2.027  -6.281  0.00  0.00    +0.026 A 
ENDBRANCH   4   6
BRANCH   1  16
ATOM     16  S   UNL     1      -1.687  -0.729  -0.027  0.00  0.00    -0.078 S 
BRANCH  16  18
ATOM     17  C   UNL     1      -0.062   1.469   0.085  0.00  0.00    +0.024 C 
ATOM     18  C   UNL     1      -0.002  -0.058   0.000  0.00  0.00    +0.084 C 
BRANCH  18  19
ATOM     19  C   UNL     1       0.735  -0.598   1.198  0.00  0.00    +0.004 A 
ATOM     20  C   UNL     1       0.031  -1.023   2.309  0.00  0.00    +0.046 A 
ATOM     21  C   UNL     1       0.708  -1.520   3.410  0.00  0.00    +0.124 A 
ATOM     22  C   UNL     1       2.091  -1.592   3.397  0.00  0.00    +0.041 A 
ATOM     23  C   UNL     1       2.795  -1.167   2.287  0.00  0.00    +0.041 A 
ATOM     24  C   UNL     1       2.117  -0.675   1.184  0.00  0.00    +0.128 A 
ATOM     25  F   UNL     1       2.805  -0.265   0.096  0.00  0.00    -0.205 F 
ATOM     26  F   UNL     1       0.019  -1.934   4.496  0.00  0.00    -0.205 F 
ENDBRANCH  18  19
ENDBRANCH  16  18
ENDBRANCH   1  16
BRANCH   5  27
ATOM     27  C   UNL     1      -4.672  -1.166  -1.385  0.00  0.00    +0.157 C 
BRANCH  27  28
ATOM     28  C   UNL     1      -5.598  -0.244  -0.589  0.00  0.00    +0.138 C 
ATOM     29  C   UNL     1      -6.771  -1.054   0.017  0.00  0.00    +0.035 C 
ATOM     30  C   UNL     1      -7.157  -0.156   1.224  0.00  0.00    +0.031 C 
ATOM     31  C   UNL     1      -5.789   0.414   1.658  0.00  0.00    +0.160 C 
ATOM     32  O   UNL     1      -4.901   0.311   0.537  0.00  0.00    -0.375 OA
ENDBRANCH  27  28
ENDBRANCH   5  27
TORSDOF 6
