REMARK  Name = ZINC20161608
REMARK  5 active torsions:
REMARK  status: ('A' for Active; 'I' for Inactive)
REMARK    1  A    between atoms: C_1  and  C_2
REMARK    2  A    between atoms: C_2  and  C_4
REMARK    3  A    between atoms: C_15  and  C_31
REMARK    4  A    between atoms: C_22  and  C_23
REMARK    5  A    between atoms: C_26  and  O_29
REMARK                            x       y       z     vdW  Elec       q    Type
REMARK                         _______ _______ _______ _____ _____    ______ ____
ROOT
ATOM      1  C   UNL     1      -1.440  -0.058   0.899  0.00  0.00    +0.149 C 
ATOM      2  C   UNL     1      -2.537  -0.750   0.073  0.00  0.00    +0.142 C 
ATOM      3  C   UNL     1      -3.813  -0.740   0.886  0.00  0.00    +0.018 A 
ATOM      4  C   UNL     1      -5.026  -0.839   0.228  0.00  0.00    +0.009 A 
ATOM      5  C   UNL     1      -6.206  -0.857   0.946  0.00  0.00    +0.001 A 
ATOM      6  C   UNL     1      -6.174  -0.774   2.326  0.00  0.00    +0.004 A 
ATOM      7  C   UNL     1      -4.967  -0.669   2.985  0.00  0.00    +0.046 A 
ATOM      8  C   UNL     1      -3.775  -0.647   2.265  0.00  0.00    +0.129 A 
ATOM      9  O   UNL     1      -2.610  -0.532   2.951  0.00  0.00    -0.464 OA
ATOM     10  C   UNL     1      -1.376  -0.733   2.274  0.00  0.00    +0.213 C 
ATOM     11  N   UNL     1      -1.089  -2.162   2.111  0.00  0.00    -0.215 NA
ATOM     12  C   UNL     1      -1.446  -2.758   1.022  0.00  0.00    +0.176 A 
ATOM     13  N   UNL     1      -2.133  -2.183  -0.042  0.00  0.00    -0.278 N 
ATOM     14  C   UNL     1      -2.401  -2.937  -1.105  0.00  0.00    +0.268 A 
ATOM     15  O   UNL     1      -2.985  -2.478  -2.069  0.00  0.00    -0.266 OA
ATOM     16  C   UNL     1      -1.967  -4.345  -1.079  0.00  0.00    +0.081 A 
ATOM     17  C   UNL     1      -2.123  -5.311  -2.019  0.00  0.00    +0.028 C 
ATOM     18  S   UNL     1      -1.180  -4.438   0.524  0.00  0.00    -0.046 S 
ATOM     19  C   UNL     1      -0.245  -0.105   3.091  0.00  0.00    +0.084 C 
ENDROOT
BRANCH  17  20
ATOM     20  C   UNL     1      -1.756  -6.700  -1.712  0.00  0.00    -0.024 A 
ATOM     21  C   UNL     1      -1.586  -7.627  -2.748  0.00  0.00    +0.011 A 
ATOM     22  C   UNL     1      -1.237  -8.926  -2.455  0.00  0.00    +0.046 A 
ATOM     23  C   UNL     1      -1.064  -9.321  -1.133  0.00  0.00    +0.117 A 
ATOM     24  C   UNL     1      -1.237  -8.406  -0.101  0.00  0.00    +0.046 A 
ATOM     25  C   UNL     1      -1.581  -7.103  -0.383  0.00  0.00    +0.011 A 
BRANCH  23  26
ATOM     26  O   UNL     1      -0.725 -10.605  -0.850  0.00  0.00    -0.507 OA
ATOM     27  H   UNL     1      -0.587 -10.919   0.195  0.00  0.00    +0.292 HD
ENDBRANCH  23  26
ENDBRANCH  17  20
BRANCH   1  29
ATOM     28  C   UNL     1      -1.363   2.394   0.007  0.00  0.00    +0.086 C 
ATOM     29  C   UNL     1      -1.774   1.402   1.065  0.00  0.00    +0.141 C 
ATOM     30  O   UNL     1      -2.375   1.777   2.043  0.00  0.00    -0.297 OA
ENDBRANCH   1  29
TORSDOF 3
