REMARK  Name = ZINC59013099
REMARK  5 active torsions:
REMARK  status: ('A' for Active; 'I' for Inactive)
REMARK    1  A    between atoms: C_1  and  C_2
REMARK    2  A    between atoms: C_2  and  C_28
REMARK    3  A    between atoms: N_5  and  C_9
REMARK    4  A    between atoms: C_9  and  C_10
REMARK    5  A    between atoms: C_16  and  C_18
REMARK                            x       y       z     vdW  Elec       q    Type
REMARK                         _______ _______ _______ _____ _____    ______ ____
ROOT
ATOM      1  C   UNL     1       2.871  -1.896  -1.406  0.00  0.00    +0.213 C 
ENDROOT
BRANCH   1   6
ATOM      2  C   UNL     1      -0.019   1.526   0.010  0.00  0.00    +0.047 C 
ATOM      3  C   UNL     1       0.002  -0.004   0.002  0.00  0.00    +0.138 C 
ATOM      4  C   UNL     1       0.815  -0.520  -1.169  0.00  0.00    +0.251 C 
ATOM      5  O   UNL     1       0.595  -0.342  -2.348  0.00  0.00    -0.272 OA
ATOM      6  N   UNL     1       1.833  -1.217  -0.627  0.00  0.00    -0.215 N 
ATOM      7  C   UNL     1       1.777  -1.214   0.710  0.00  0.00    +0.310 C 
ATOM      8  O   UNL     1       2.586  -1.776   1.421  0.00  0.00    -0.252 OA
ATOM      9  N   UNL     1       0.724  -0.519   1.178  0.00  0.00    -0.281 N 
ATOM     10  H   UNL     1       0.487  -0.383   2.109  0.00  0.00    +0.152 HD
BRANCH   3  11
ATOM     11  C   UNL     1      -1.401  -0.551  -0.040  0.00  0.00    +0.020 A 
ATOM     12  C   UNL     1      -1.863  -1.350   0.990  0.00  0.00    +0.012 A 
ATOM     13  C   UNL     1      -3.149  -1.852   0.953  0.00  0.00    +0.039 A 
ATOM     14  C   UNL     1      -3.978  -1.557  -0.116  0.00  0.00    +0.126 A 
ATOM     15  C   UNL     1      -3.518  -0.757  -1.148  0.00  0.00    +0.077 A 
ATOM     16  C   UNL     1      -2.230  -0.250  -1.107  0.00  0.00    +0.132 A 
ATOM     17  F   UNL     1      -1.781   0.535  -2.111  0.00  0.00    -0.205 F 
ATOM     18  F   UNL     1      -5.236  -2.049  -0.153  0.00  0.00    -0.205 F 
ENDBRANCH   3  11
ENDBRANCH   1   6
BRANCH   1  19
ATOM     19  C   UNL     1       4.020  -0.950  -1.644  0.00  0.00    +0.234 C 
ATOM     20  O   UNL     1       3.975   0.180  -1.206  0.00  0.00    -0.274 OA
ATOM     21  N   UNL     1       5.097  -1.360  -2.343  0.00  0.00    -0.293 N 
ATOM     22  C   UNL     1       5.279  -2.698  -2.934  0.00  0.00    +0.108 C 
ATOM     23  C   UNL     1       6.814  -2.872  -3.055  0.00  0.00    +0.021 C 
ATOM     24  C   UNL     1       7.261  -1.437  -3.439  0.00  0.00    +0.029 C 
ATOM     25  C   UNL     1       6.282  -0.544  -2.647  0.00  0.00    +0.106 C 
BRANCH  25  26
ATOM     26  C   UNL     1       5.884   0.648  -3.479  0.00  0.00    -0.023 A 
ATOM     27  C   UNL     1       4.940   0.507  -4.479  0.00  0.00    +0.009 A 
ATOM     28  C   UNL     1       4.573   1.597  -5.245  0.00  0.00    +0.050 A 
ATOM     29  C   UNL     1       5.151   2.837  -5.011  0.00  0.00    +0.162 A 
ATOM     30  C   UNL     1       6.098   2.978  -4.004  0.00  0.00    +0.162 A 
ATOM     31  C   UNL     1       6.459   1.881  -3.237  0.00  0.00    +0.055 A 
ATOM     32  O   UNL     1       6.672   4.187  -3.753  0.00  0.00    -0.485 OA
ATOM     33  C   UNL     1       6.558   5.179  -4.779  0.00  0.00    +0.270 C 
ATOM     34  C   UNL     1       5.104   5.200  -5.268  0.00  0.00    +0.270 C 
ATOM     35  O   UNL     1       4.783   3.900  -5.776  0.00  0.00    -0.485 OA
ENDBRANCH  25  26
ENDBRANCH   1  19
TORSDOF 4
