REMARK  Name = ZINC43245729
REMARK  8 active torsions:
REMARK  status: ('A' for Active; 'I' for Inactive)
REMARK    1  A    between atoms: C_1  and  C_2
REMARK    2  A    between atoms: C_2  and  C_3
REMARK    3  A    between atoms: C_3  and  C_5
REMARK    4  A    between atoms: C_3  and  N_21
REMARK    5  A    between atoms: C_5  and  C_7
REMARK    6  A    between atoms: C_5  and  O_13
REMARK    7  A    between atoms: C_10  and  C_12
REMARK    8  A    between atoms: O_13  and  C_14
REMARK                            x       y       z     vdW  Elec       q    Type
REMARK                         _______ _______ _______ _____ _____    ______ ____
ROOT
ATOM      1  C   UNL     1      -1.417  -2.074   0.128  0.00  0.00    +0.196 C 
ENDROOT
BRANCH   1   2
ATOM      2  C   UNL     1      -2.794  -2.685   0.103  0.00  0.00    +0.029 A 
ATOM      3  C   UNL     1      -3.456  -3.257  -0.933  0.00  0.00    +0.015 A 
ATOM      4  C   UNL     1      -4.727  -3.757  -0.722  0.00  0.00    +0.011 A 
ATOM      5  C   UNL     1      -5.274  -3.662   0.515  0.00  0.00    -0.013 A 
ATOM      6  S   UNL     1      -3.975  -2.849   1.432  0.00  0.00    -0.095 S 
ATOM      7  C   UNL     1      -6.626  -4.125   0.993  0.00  0.00    +0.051 C 
ENDBRANCH   1   2
BRANCH   1   8
ATOM      8  C   UNL     1      -1.533  -0.551   0.043  0.00  0.00    -0.029 C 
BRANCH   8   9
ATOM      9  N   UNL     1      -2.210  -0.180  -1.207  0.00  0.00    +0.383 N 
ATOM     10  H   UNL     1      -1.677  -0.521  -1.993  0.00  0.00    -0.089 HD
ATOM     11  H   UNL     1      -3.132  -0.589  -1.223  0.00  0.00    -0.089 HD
ATOM     12  H   UNL     1      -2.287   0.824  -1.263  0.00  0.00    -0.089 HD
ENDBRANCH   8   9
BRANCH   8  14
ATOM     13  C   UNL     1      -0.253   1.594   0.109  0.00  0.00    +0.002 C 
ATOM     14  C   UNL     1      -0.134   0.069   0.068  0.00  0.00    -0.016 C 
ENDBRANCH   8  14
ENDBRANCH   1   8
BRANCH   1  15
ATOM     15  O   UNL     1      -0.758  -2.435   1.343  0.00  0.00    -0.484 OA
BRANCH  15  16
ATOM     16  C   UNL     1       0.567  -2.730   1.263  0.00  0.00    +0.134 A 
ATOM     17  C   UNL     1       1.245  -2.559   0.065  0.00  0.00    +0.047 A 
ATOM     18  C   UNL     1       2.591  -2.860  -0.014  0.00  0.00    +0.004 A 
ATOM     19  C   UNL     1       3.263  -3.330   1.099  0.00  0.00    +0.001 A 
ATOM     20  C   UNL     1       2.589  -3.502   2.294  0.00  0.00    +0.018 A 
ATOM     21  C   UNL     1       1.244  -3.196   2.381  0.00  0.00    +0.055 A 
ATOM     22  I   UNL     1       0.226  -3.447   4.194  0.00  0.00    -0.040 I 
ENDBRANCH  15  16
ENDBRANCH   1  15
TORSDOF 6
