REMARK  Name = ZINC08940182
REMARK  6 active torsions:
REMARK  status: ('A' for Active; 'I' for Inactive)
REMARK    1  A    between atoms: C_1  and  C_2
REMARK    2  A    between atoms: C_5  and  S_8
REMARK    3  A    between atoms: S_8  and  N_11
REMARK    4  A    between atoms: N_11  and  N_12
REMARK    5  A    between atoms: C_13  and  C_15
REMARK    6  A    between atoms: N_19  and  C_20
REMARK                            x       y       z     vdW  Elec       q    Type
REMARK                         _______ _______ _______ _____ _____    ______ ____
ROOT
ATOM      1  N   UNL     1       0.668  -2.844  -2.327  0.00  0.00    -0.108 NA
ATOM      2  H   UNL     1       0.013  -3.387  -2.793  0.00  0.00    +0.172 HD
ENDROOT
BRANCH   1   3
ATOM      3  N   UNL     1       1.857  -2.476  -2.970  0.00  0.00    -0.227 N 
ATOM      4  C   UNL     1       2.658  -3.422  -3.499  0.00  0.00    +0.275 C 
ATOM      5  O   UNL     1       2.403  -4.600  -3.329  0.00  0.00    -0.267 OA
ATOM      6  H   UNL     1       2.104  -1.540  -3.034  0.00  0.00    +0.171 HD
BRANCH   4   7
ATOM      7  C   UNL     1       3.837  -3.032  -4.280  0.00  0.00    +0.106 A 
ATOM      8  C   UNL     1       4.295  -1.746  -4.477  0.00  0.00    +0.047 A 
ATOM      9  C   UNL     1       5.440  -1.836  -5.275  0.00  0.00    +0.036 A 
ATOM     10  C   UNL     1       5.651  -3.145  -5.554  0.00  0.00    +0.101 A 
ATOM     11  N   UNL     1       4.683  -3.882  -4.955  0.00  0.00    -0.345 N 
ATOM     12  C   UNL     1       4.559  -5.340  -5.016  0.00  0.00    +0.149 C 
ATOM     13 BR   UNL     1       6.501  -0.387  -5.867  0.00  0.00    -0.049 Br
ENDBRANCH   4   7
ENDBRANCH   1   3
BRANCH   1  14
ATOM     14  S   UNL     1       0.381  -2.353  -0.772  0.00  0.00    +0.074 S 
ATOM     15  O   UNL     1       1.504  -2.762  -0.003  0.00  0.00    -0.152 OA
ATOM     16  O   UNL     1      -0.945  -2.754  -0.457  0.00  0.00    -0.152 OA
BRANCH  14  21
ATOM     17  C   UNL     1       0.399   3.681  -0.774  0.00  0.00    +0.044 C 
ATOM     18  C   UNL     1       0.395   2.174  -0.773  0.00  0.00    -0.050 A 
ATOM     19  C   UNL     1      -0.784   1.486  -0.992  0.00  0.00    +0.005 A 
ATOM     20  C   UNL     1      -0.788   0.104  -0.992  0.00  0.00    +0.029 A 
ATOM     21  C   UNL     1       0.387  -0.591  -0.773  0.00  0.00    +0.107 A 
ATOM     22  C   UNL     1       1.566   0.097  -0.555  0.00  0.00    +0.029 A 
ATOM     23  C   UNL     1       1.570   1.479  -0.556  0.00  0.00    +0.005 A 
ENDBRANCH  14  21
ENDBRANCH   1  14
TORSDOF 4
