REMARK  Name = ZINC59507010
REMARK  7 active torsions:
REMARK  status: ('A' for Active; 'I' for Inactive)
REMARK    1  A    between atoms: C_4  and  C_7
REMARK    2  A    between atoms: C_10  and  O_13
REMARK    3  A    between atoms: O_13  and  C_14
REMARK    4  A    between atoms: C_17  and  C_30
REMARK    5  A    between atoms: C_19  and  N_20
REMARK    6  A    between atoms: C_21  and  C_22
REMARK    7  A    between atoms: C_27  and  O_28
REMARK                            x       y       z     vdW  Elec       q    Type
REMARK                         _______ _______ _______ _____ _____    ______ ____
ROOT
ATOM      1  C   UNL     1       7.283  -4.054  -0.005  0.00  0.00    +0.154 A 
ATOM      2  C   UNL     1       6.074  -4.731  -0.008  0.00  0.00    +0.049 A 
ATOM      3  C   UNL     1       6.052  -6.109   0.099  0.00  0.00    +0.016 A 
ATOM      4  C   UNL     1       7.233  -6.822   0.211  0.00  0.00    +0.057 A 
ATOM      5  C   UNL     1       8.445  -6.163   0.216  0.00  0.00    +0.043 A 
ATOM      6  C   UNL     1       8.482  -4.772   0.102  0.00  0.00    +0.107 A 
ENDROOT
BRANCH   4   7
ATOM      7  C   UNL     1       7.195  -8.324   0.328  0.00  0.00    +0.417 C 
ATOM      8  F   UNL     1       5.867  -8.760   0.301  0.00  0.00    -0.166 F 
ATOM      9  F   UNL     1       7.895  -8.893  -0.741  0.00  0.00    -0.166 F 
ATOM     10  F   UNL     1       7.789  -8.713   1.534  0.00  0.00    -0.166 F 
ENDBRANCH   4   7
BRANCH   6  11
ATOM     11  N   UNL     1       9.680  -4.113   0.101  0.00  0.00    -0.251 NA
ATOM     12  C   UNL     1      10.666  -4.554  -0.629  0.00  0.00    +0.123 C 
BRANCH  12  13
ATOM     13  C   UNL     1      11.918  -3.788  -0.715  0.00  0.00    +0.036 A 
ATOM     14  C   UNL     1      12.976  -4.254  -1.502  0.00  0.00    +0.013 A 
ATOM     15  C   UNL     1      14.146  -3.531  -1.579  0.00  0.00    +0.002 A 
ATOM     16  C   UNL     1      14.281  -2.342  -0.880  0.00  0.00    +0.024 A 
ATOM     17  C   UNL     1      13.243  -1.869  -0.099  0.00  0.00    +0.083 A 
ATOM     18  C   UNL     1      12.056  -2.581  -0.014  0.00  0.00    +0.144 A 
ATOM     19 CL   UNL     1      13.425  -0.379   0.773  0.00  0.00    -0.080 Cl
BRANCH  18  20
ATOM     20  O   UNL     1      11.034  -2.115   0.749  0.00  0.00    -0.505 OA
ATOM     21  H   UNL     1      11.057  -2.421   1.666  0.00  0.00    +0.292 HD
ENDBRANCH  18  20
ENDBRANCH  12  13
ENDBRANCH   6  11
BRANCH   1  22
ATOM     22  O   UNL     1       7.306  -2.700  -0.110  0.00  0.00    -0.454 OA
BRANCH  22  26
ATOM     23  C   UNL     1       3.701  -0.689  -0.039  0.00  0.00    -0.018 A 
ATOM     24  C   UNL     1       4.462  -0.717  -1.207  0.00  0.00    +0.012 A 
ATOM     25  C   UNL     1       5.666  -1.389  -1.227  0.00  0.00    +0.047 A 
ATOM     26  C   UNL     1       6.120  -2.038  -0.087  0.00  0.00    +0.129 A 
ATOM     27  C   UNL     1       5.364  -2.012   1.078  0.00  0.00    +0.047 A 
ATOM     28  C   UNL     1       4.162  -1.337   1.106  0.00  0.00    +0.012 A 
BRANCH  23  32
ATOM     29  C   UNL     1      -0.013   1.381   0.034  0.00  0.00    +0.000 A 
ATOM     30  C   UNL     1       0.737   1.351  -1.128  0.00  0.00    +0.001 A 
ATOM     31  C   UNL     1       1.943   0.681  -1.158  0.00  0.00    +0.008 A 
ATOM     32  C   UNL     1       2.405   0.034  -0.014  0.00  0.00    -0.018 A 
ATOM     33  C   UNL     1       1.646   0.067   1.154  0.00  0.00    +0.008 A 
ATOM     34  C   UNL     1       0.441   0.740   1.172  0.00  0.00    +0.001 A 
ENDBRANCH  23  32
ENDBRANCH  22  26
ENDBRANCH   1  22
TORSDOF 7
