REMARK  Name = ZINC13366685
REMARK  12 active torsions:
REMARK  status: ('A' for Active; 'I' for Inactive)
REMARK    1  A    between atoms: C_1  and  C_2
REMARK    2  A    between atoms: C_2  and  O_3
REMARK    3  A    between atoms: O_3  and  C_4
REMARK    4  A    between atoms: C_6  and  C_13
REMARK    5  A    between atoms: C_9  and  O_10
REMARK    6  A    between atoms: O_10  and  C_11
REMARK    7  A    between atoms: C_14  and  C_15
REMARK    8  A    between atoms: C_15  and  C_17
REMARK    9  A    between atoms: C_21  and  S_23
REMARK   10  A    between atoms: S_23  and  N_26
REMARK   11  A    between atoms: N_26  and  C_27
REMARK   12  A    between atoms: C_27  and  C_28
REMARK                            x       y       z     vdW  Elec       q    Type
REMARK                         _______ _______ _______ _____ _____    ______ ____
ROOT
ATOM      1  C   UNL     1       1.172   3.566   0.009  0.00  0.00    +0.186 C 
ATOM      2  O   UNL     1       2.221   4.183   0.003  0.00  0.00    -0.287 OA
ENDROOT
BRANCH   1   3
ATOM      3  C   UNL     1       1.185   2.086   0.002  0.00  0.00    +0.024 A 
ATOM      4  C   UNL     1      -0.017   1.375   0.010  0.00  0.00    +0.012 A 
ATOM      5  C   UNL     1       0.002  -0.004   0.002  0.00  0.00    +0.003 A 
ATOM      6  C   UNL     1       1.208  -0.683  -0.013  0.00  0.00    +0.028 A 
ATOM      7  C   UNL     1       2.402   0.016  -0.021  0.00  0.00    +0.106 A 
ATOM      8  C   UNL     1       2.398   1.396  -0.013  0.00  0.00    +0.040 A 
BRANCH   7   9
ATOM      9  S   UNL     1       3.932  -0.858  -0.040  0.00  0.00    +0.059 S 
ATOM     10  O   UNL     1       4.908   0.019   0.507  0.00  0.00    -0.153 OA
ATOM     11  O   UNL     1       3.672  -2.143   0.507  0.00  0.00    -0.153 OA
BRANCH   9  12
ATOM     12  N   UNL     1       4.342  -1.093  -1.627  0.00  0.00    -0.179 NA
ATOM     13  H   UNL     1       4.380  -1.991  -1.990  0.00  0.00    +0.149 HD
BRANCH  12  14
ATOM     14  C   UNL     1       4.648   0.057  -2.482  0.00  0.00    +0.230 C 
BRANCH  14  15
ATOM     15  C   UNL     1       5.335  -0.419  -3.736  0.00  0.00    +0.371 C 
ATOM     16  O   UNL     1       5.547  -1.597  -3.899  0.00  0.00    -0.245 OA
ATOM     17  O   UNL     1       5.710   0.466  -4.673  0.00  0.00    -0.245 OA
ENDBRANCH  14  15
ENDBRANCH  12  14
ENDBRANCH   9  12
ENDBRANCH   7   9
ENDBRANCH   1   3
BRANCH   1  19
ATOM     18  C   UNL     1      -0.073   5.617   0.032  0.00  0.00    +0.012 C 
ATOM     19  C   UNL     1      -0.061   4.264   0.025  0.00  0.00    +0.052 C 
BRANCH  18  22
ATOM     20  C   UNL     1      -2.569   8.415   0.069  0.00  0.00    +0.164 A 
ATOM     21  C   UNL     1      -1.365   7.740   0.054  0.00  0.00    +0.057 A 
ATOM     22  C   UNL     1      -1.351   6.340   0.047  0.00  0.00    -0.020 A 
ATOM     23  C   UNL     1      -2.559   5.632   0.049  0.00  0.00    +0.027 A 
ATOM     24  C   UNL     1      -3.756   6.313   0.069  0.00  0.00    +0.064 A 
ATOM     25  C   UNL     1      -3.768   7.703   0.076  0.00  0.00    +0.175 A 
ATOM     26 BR   UNL     1      -5.386   5.356   0.079  0.00  0.00    -0.046 Br
BRANCH  25  27
ATOM     27  O   UNL     1      -4.952   8.370   0.090  0.00  0.00    -0.490 OA
ATOM     28  C   UNL     1      -5.529   8.695  -1.176  0.00  0.00    +0.277 C 
ENDBRANCH  25  27
BRANCH  20  29
ATOM     29  O   UNL     1      -2.587   9.775   0.075  0.00  0.00    -0.489 OA
BRANCH  29  31
ATOM     30  C   UNL     1      -1.541  11.954   0.076  0.00  0.00    +0.048 C 
ATOM     31  C   UNL     1      -1.322  10.440   0.067  0.00  0.00    +0.226 C 
ENDBRANCH  29  31
ENDBRANCH  20  29
ENDBRANCH  18  22
ENDBRANCH   1  19
TORSDOF 10
