REMARK  Name = ZINC45876281
REMARK  6 active torsions:
REMARK  status: ('A' for Active; 'I' for Inactive)
REMARK    1  A    between atoms: C_1  and  C_2
REMARK    2  A    between atoms: C_2  and  N_3
REMARK    3  A    between atoms: N_3  and  C_4
REMARK    4  A    between atoms: C_4  and  C_5
REMARK    5  A    between atoms: N_16  and  C_17
REMARK    6  A    between atoms: C_17  and  C_18
REMARK                            x       y       z     vdW  Elec       q    Type
REMARK                         _______ _______ _______ _____ _____    ______ ____
ROOT
ATOM      1  N   UNL     1      -1.171  -1.053   0.039  0.00  0.00    -0.282 N 
ATOM      2  C   UNL     1      -1.871  -1.052   1.190  0.00  0.00    +0.303 C 
ATOM      3  O   UNL     1      -3.061  -1.297   1.178  0.00  0.00    -0.253 OA
ATOM      4  N   UNL     1      -1.250  -0.781   2.356  0.00  0.00    -0.295 N 
ATOM      5  H   UNL     1      -0.300  -0.586   2.365  0.00  0.00    +0.151 HD
ENDROOT
BRANCH   1   7
ATOM      6  C   UNL     1       0.478   0.747  -0.116  0.00  0.00    +0.024 C 
ATOM      7  C   UNL     1       0.264  -0.759   0.053  0.00  0.00    +0.106 C 
ENDBRANCH   1   7
BRANCH   1   8
ATOM      8  C   UNL     1      -1.845  -1.348  -1.228  0.00  0.00    +0.144 C 
BRANCH   8   9
ATOM      9  C   UNL     1      -1.794  -2.831  -1.490  0.00  0.00    -0.026 A 
ATOM     10  C   UNL     1      -0.731  -3.372  -2.190  0.00  0.00    +0.009 A 
ATOM     11  C   UNL     1      -0.680  -4.732  -2.432  0.00  0.00    +0.050 A 
ATOM     12  C   UNL     1      -1.695  -5.557  -1.975  0.00  0.00    +0.166 A 
ATOM     13  C   UNL     1      -2.766  -5.012  -1.271  0.00  0.00    +0.167 A 
ATOM     14  C   UNL     1      -2.808  -3.649  -1.026  0.00  0.00    +0.054 A 
ATOM     15  O   UNL     1      -3.624  -6.019  -0.933  0.00  0.00    -0.453 OA
ATOM     16  C   UNL     1      -3.275  -7.123  -1.788  0.00  0.00    +0.466 C 
ATOM     17  O   UNL     1      -1.882  -6.905  -2.079  0.00  0.00    -0.453 OA
ENDBRANCH   8   9
ENDBRANCH   1   8
BRANCH   4  18
ATOM     18  C   UNL     1      -2.011  -0.780   3.608  0.00  0.00    +0.142 C 
BRANCH  18  19
ATOM     19  C   UNL     1      -1.091  -0.450   4.755  0.00  0.00    -0.014 A 
ATOM     20  C   UNL     1      -0.420  -1.462   5.430  0.00  0.00    +0.010 A 
ATOM     21  C   UNL     1       0.415  -1.115   6.476  0.00  0.00    +0.042 A 
ATOM     22  C   UNL     1       0.554   0.227   6.816  0.00  0.00    +0.099 A 
ATOM     23  N   UNL     1      -0.102   1.162   6.147  0.00  0.00    -0.349 N 
ATOM     24  C   UNL     1      -0.901   0.862   5.141  0.00  0.00    +0.089 A 
ATOM     25  N   UNL     1       1.390   0.589   7.866  0.00  0.00    -0.317 N 
ATOM     26  C   UNL     1       2.208  -0.431   8.484  0.00  0.00    +0.106 C 
ATOM     27  C   UNL     1       1.423  -1.093   9.644  0.00  0.00    +0.019 C 
ATOM     28  C   UNL     1       1.298  -0.159  10.774  0.00  0.00    +0.002 C 
ATOM     29  C   UNL     1       0.508   1.108  10.458  0.00  0.00    +0.002 C 
ATOM     30  C   UNL     1       1.429   2.129   9.837  0.00  0.00    +0.019 C 
ATOM     31  C   UNL     1       1.411   1.999   8.300  0.00  0.00    +0.106 C 
ATOM     32  H   UNL     1       0.010   2.092   6.401  0.00  0.00    +0.167 HD
ENDBRANCH  18  19
ENDBRANCH   4  18
TORSDOF 5
