REMARK  Name = ZINC04625529
REMARK  11 active torsions:
REMARK  status: ('A' for Active; 'I' for Inactive)
REMARK    1  A    between atoms: C_1  and  C_2
REMARK    2  A    between atoms: C_2  and  C_18
REMARK    3  A    between atoms: C_3  and  C_16
REMARK    4  A    between atoms: C_3  and  O_17
REMARK    5  A    between atoms: N_4  and  C_8
REMARK    6  A    between atoms: C_8  and  C_9
REMARK    7  A    between atoms: C_9  and  C_10
REMARK    8  A    between atoms: C_18  and  C_19
REMARK    9  A    between atoms: C_19  and  C_20
REMARK   10  A    between atoms: C_19  and  C_21
REMARK   11  A    between atoms: C_19  and  C_22
REMARK                            x       y       z     vdW  Elec       q    Type
REMARK                         _______ _______ _______ _____ _____    ______ ____
ROOT
ATOM      1  C   UNL     1      -0.408   1.293  -0.709  0.00  0.00    +0.061 C 
ATOM      2  C   UNL     1      -0.506  -0.230  -0.600  0.00  0.00    +0.158 C 
ATOM      3  C   UNL     1      -0.215  -0.902  -1.963  0.00  0.00    +0.175 C 
ATOM      4  N   UNL     1       1.229  -1.194  -1.865  0.00  0.00    -0.235 N 
ATOM      5  C   UNL     1       1.587  -1.068  -0.573  0.00  0.00    +0.406 C 
ATOM      6  O   UNL     1       2.724  -1.219  -0.172  0.00  0.00    -0.226 OA
ATOM      7  O   UNL     1       0.552  -0.756   0.226  0.00  0.00    -0.439 OA
ATOM      8  C   UNL     1      -1.022  -2.192  -2.118  0.00  0.00    +0.068 C 
ENDROOT
BRANCH   3   9
ATOM      9  O   UNL     1      -0.479  -0.001  -3.040  0.00  0.00    -0.368 OA
ATOM     10  H   UNL     1      -0.312  -0.376  -3.916  0.00  0.00    +0.212 HD
ENDBRANCH   3   9
BRANCH   4  11
ATOM     11  C   UNL     1       2.114  -1.557  -2.974  0.00  0.00    +0.120 C 
BRANCH  11  12
ATOM     12  C   UNL     1       2.720  -0.289  -3.579  0.00  0.00    +0.074 C 
BRANCH  12  13
ATOM     13  C   UNL     1       3.630  -0.662  -4.721  0.00  0.00    +0.035 A 
ATOM     14  C   UNL     1       4.923  -1.028  -4.630  0.00  0.00    +0.105 A 
ATOM     15  N   UNL     1       5.372  -1.277  -5.869  0.00  0.00    -0.352 N 
ATOM     16  C   UNL     1       4.406  -1.080  -6.724  0.00  0.00    +0.171 A 
ATOM     17  N   UNL     1       3.300  -0.701  -6.049  0.00  0.00    -0.350 N 
ATOM     18  H   UNL     1       2.434  -0.494  -6.433  0.00  0.00    +0.166 HD
ATOM     19  H   UNL     1       6.272  -1.559  -6.094  0.00  0.00    +0.166 HD
ENDBRANCH  12  13
ENDBRANCH  11  12
ENDBRANCH   4  11
BRANCH   2  20
ATOM     20  C   UNL     1      -1.876  -0.650  -0.064  0.00  0.00    +0.063 C 
BRANCH  20  21
ATOM     21  C   UNL     1      -2.168   0.102   1.236  0.00  0.00    -0.006 C 
ATOM     22  C   UNL     1      -1.003  -0.092   2.209  0.00  0.00    +0.016 C 
ATOM     23  C   UNL     1      -2.340   1.592   0.936  0.00  0.00    +0.016 C 
BRANCH  21  24
ATOM     24  C   UNL     1      -3.433  -0.436   1.854  0.00  0.00    -0.042 A 
ATOM     25  C   UNL     1      -4.123  -1.461   1.234  0.00  0.00    +0.004 A 
ATOM     26  C   UNL     1      -5.284  -1.954   1.801  0.00  0.00    +0.000 A 
ATOM     27  C   UNL     1      -5.753  -1.423   2.988  0.00  0.00    +0.000 A 
ATOM     28  C   UNL     1      -5.063  -0.398   3.607  0.00  0.00    +0.000 A 
ATOM     29  C   UNL     1      -3.900   0.092   3.043  0.00  0.00    +0.004 A 
ENDBRANCH  21  24
ENDBRANCH  20  21
ENDBRANCH   2  20
TORSDOF 7
