REMARK  Name = ZINC02813771
REMARK  11 active torsions:
REMARK  status: ('A' for Active; 'I' for Inactive)
REMARK    1  A    between atoms: C_1  and  C_2
REMARK    2  A    between atoms: C_2  and  O_3
REMARK    3  A    between atoms: O_3  and  C_4
REMARK    4  A    between atoms: C_6  and  C_15
REMARK    5  A    between atoms: C_9  and  O_10
REMARK    6  A    between atoms: O_10  and  S_11
REMARK    7  A    between atoms: S_11  and  C_14
REMARK    8  A    between atoms: C_27  and  C_31
REMARK    9  A    between atoms: C_31  and  C_32
REMARK   10  A    between atoms: C_31  and  C_33
REMARK   11  A    between atoms: C_31  and  C_34
REMARK                            x       y       z     vdW  Elec       q    Type
REMARK                         _______ _______ _______ _____ _____    ______ ____
ROOT
ATOM      1  C   UNL     1       1.171   3.565   0.009  0.00  0.00    +0.142 A 
ATOM      2  N   UNL     1       2.355   4.252   0.002  0.00  0.00    -0.306 N 
ATOM      3  H   UNL     1       3.216   3.744  -0.008  0.00  0.00    +0.170 HD
ATOM      4  C   UNL     1       2.381   5.597   0.008  0.00  0.00    +0.260 A 
ATOM      5  O   UNL     1       3.443   6.195   0.000  0.00  0.00    -0.267 OA
ATOM      6  C   UNL     1       1.141   6.317   0.022  0.00  0.00    +0.075 A 
ATOM      7  C   UNL     1       0.934   7.764   0.029  0.00  0.00    -0.023 A 
ATOM      8  C   UNL     1      -0.343   8.201   0.043  0.00  0.00    -0.004 A 
ATOM      9  S   UNL     1      -1.332   6.729   0.047  0.00  0.00    -0.073 S 
ATOM     10  C   UNL     1      -0.023   5.530   0.029  0.00  0.00    +0.116 A 
ATOM     11  N   UNL     1       0.020   4.204   0.018  0.00  0.00    -0.222 NA
ATOM     12  C   UNL     1      -0.817   9.622   0.052  0.00  0.00    +0.046 C 
ATOM     13  C   UNL     1       0.362  10.528  -0.332  0.00  0.00    -0.000 C 
ATOM     14  C   UNL     1       1.585  10.117   0.493  0.00  0.00    +0.009 C 
ATOM     15  C   UNL     1       2.096   8.755   0.023  0.00  0.00    +0.037 C 
ENDROOT
BRANCH   1  18
ATOM     16  C   UNL     1       0.002  -0.004   0.002  0.00  0.00    +0.165 A 
ATOM     17  C   UNL     1      -0.017   1.378   0.010  0.00  0.00    +0.061 A 
ATOM     18  C   UNL     1       1.186   2.089   0.002  0.00  0.00    +0.021 A 
ATOM     19  C   UNL     1       2.401   1.401  -0.014  0.00  0.00    +0.015 A 
ATOM     20  C   UNL     1       2.413   0.023  -0.021  0.00  0.00    +0.053 A 
ATOM     21  C   UNL     1       1.218  -0.684  -0.013  0.00  0.00    +0.198 A 
BRANCH  16  22
ATOM     22  O   UNL     1      -1.166  -0.700   0.009  0.00  0.00    -0.488 OA
BRANCH  22  24
ATOM     23  C   UNL     1      -3.576  -0.887   0.030  0.00  0.00    +0.048 C 
ATOM     24  C   UNL     1      -2.375   0.062   0.024  0.00  0.00    +0.226 C 
ENDBRANCH  22  24
ENDBRANCH  16  22
BRANCH  21  25
ATOM     25  O   UNL     1       1.235  -2.043  -0.021  0.00  0.00    -0.343 OA
BRANCH  25  26
ATOM     26  S   UNL     1       1.229  -2.654  -1.414  0.00  0.00    +0.118 S 
ATOM     27  O   UNL     1       0.985  -4.038  -1.202  0.00  0.00    -0.137 OA
ATOM     28  O   UNL     1       0.310  -1.862  -2.154  0.00  0.00    -0.137 OA
ATOM     29  C   UNL     1       2.914  -2.405  -2.040  0.00  0.00    +0.242 C 
ENDBRANCH  25  26
ENDBRANCH  21  25
ENDBRANCH   1  18
BRANCH  13  30
ATOM     30  C   UNL     1       0.008  11.986  -0.034  0.00  0.00    -0.035 C 
ATOM     31  C   UNL     1      -0.289  12.144   1.459  0.00  0.00    +0.011 C 
ATOM     32  C   UNL     1       1.184  12.886  -0.417  0.00  0.00    +0.011 C 
ATOM     33  C   UNL     1      -1.226  12.387  -0.844  0.00  0.00    +0.011 C 
ENDBRANCH  13  30
TORSDOF 6
