REMARK  Name = ZINC35226755
REMARK  13 active torsions:
REMARK  status: ('A' for Active; 'I' for Inactive)
REMARK    1  A    between atoms: C_1  and  O_2
REMARK    2  A    between atoms: O_2  and  C_3
REMARK    3  A    between atoms: C_8  and  C_9
REMARK    4  A    between atoms: C_9  and  N_10
REMARK    5  A    between atoms: N_10  and  C_11
REMARK    6  A    between atoms: N_10  and  C_18
REMARK    7  A    between atoms: C_11  and  C_12
REMARK    8  A    between atoms: C_18  and  C_19
REMARK    9  A    between atoms: C_22  and  C_24
REMARK   10  A    between atoms: N_26  and  C_27
REMARK   11  A    between atoms: C_27  and  C_29
REMARK   12  A    between atoms: C_27  and  C_36
REMARK   13  A    between atoms: C_29  and  C_30
REMARK                            x       y       z     vdW  Elec       q    Type
REMARK                         _______ _______ _______ _____ _____    ______ ____
ROOT
ATOM      1  C   UNL     1       2.529  -3.930   3.049  0.00  0.00    +0.090 A 
ATOM      2  C   UNL     1       2.276  -4.725   4.112  0.00  0.00    +0.043 A 
ATOM      3  C   UNL     1       3.190  -4.373   5.118  0.00  0.00    +0.055 A 
ATOM      4  C   UNL     1       3.963  -3.367   4.611  0.00  0.00    +0.189 A 
ATOM      5  O   UNL     1       3.549  -3.117   3.352  0.00  0.00    -0.457 OA
ENDROOT
BRANCH   4   6
ATOM      6  C   UNL     1       5.055  -2.683   5.311  0.00  0.00    +0.280 C 
ATOM      7  O   UNL     1       5.340  -3.002   6.451  0.00  0.00    -0.267 OA
ATOM      8  N   UNL     1       5.742  -1.702   4.693  0.00  0.00    -0.302 N 
ATOM      9  H   UNL     1       5.514  -1.449   3.785  0.00  0.00    +0.150 HD
BRANCH   8  10
ATOM     10  C   UNL     1       6.833  -1.019   5.393  0.00  0.00    +0.108 C 
BRANCH  10  11
ATOM     11  C   UNL     1       8.105  -1.812   5.235  0.00  0.00    -0.027 A 
ATOM     12  C   UNL     1       8.405  -2.402   4.022  0.00  0.00    +0.005 A 
ATOM     13  C   UNL     1       9.572  -3.129   3.878  0.00  0.00    +0.000 A 
ATOM     14  C   UNL     1      10.439  -3.265   4.947  0.00  0.00    +0.000 A 
ATOM     15  C   UNL     1      10.138  -2.674   6.160  0.00  0.00    +0.000 A 
ATOM     16  C   UNL     1       8.973  -1.944   6.303  0.00  0.00    +0.005 A 
ENDBRANCH  10  11
BRANCH  10  17
ATOM     17  C   UNL     1       7.025   0.377   4.798  0.00  0.00    +0.062 C 
BRANCH  17  18
ATOM     18  C   UNL     1       5.797   1.210   5.063  0.00  0.00    -0.045 A 
ATOM     19  C   UNL     1       4.754   1.213   4.156  0.00  0.00    +0.004 A 
ATOM     20  C   UNL     1       3.628   1.977   4.400  0.00  0.00    +0.000 A 
ATOM     21  C   UNL     1       3.545   2.737   5.551  0.00  0.00    +0.000 A 
ATOM     22  C   UNL     1       4.587   2.733   6.459  0.00  0.00    +0.000 A 
ATOM     23  C   UNL     1       5.712   1.966   6.217  0.00  0.00    +0.004 A 
ENDBRANCH  17  18
ENDBRANCH  10  17
ENDBRANCH   8  10
ENDBRANCH   4   6
BRANCH   1  24
ATOM     24  C   UNL     1       1.788  -3.958   1.736  0.00  0.00    -0.002 C 
BRANCH  24  25
ATOM     25  N   UNL     1       0.653  -3.027   1.794  0.00  0.00    +0.390 N 
ATOM     26  H   UNL     1       0.073  -3.253   2.588  0.00  0.00    -0.080 HD
BRANCH  25  27
ATOM     27  C   UNL     1      -0.137  -3.142   0.562  0.00  0.00    -0.038 C 
BRANCH  27  33
ATOM     28  C   UNL     1      -1.804  -4.873   1.277  0.00  0.00    +0.121 A 
ATOM     29  C   UNL     1      -2.351  -6.145   1.188  0.00  0.00    +0.046 A 
ATOM     30  C   UNL     1      -1.820  -7.063   0.302  0.00  0.00    +0.004 A 
ATOM     31  C   UNL     1      -0.746  -6.715  -0.495  0.00  0.00    +0.000 A 
ATOM     32  C   UNL     1      -0.199  -5.448  -0.408  0.00  0.00    +0.005 A 
ATOM     33  C   UNL     1      -0.730  -4.525   0.472  0.00  0.00    -0.022 A 
BRANCH  28  35
ATOM     34  C   UNL     1      -3.358  -4.428   3.021  0.00  0.00    +0.277 C 
ATOM     35  O   UNL     1      -2.325  -3.968   2.147  0.00  0.00    -0.495 OA
ENDBRANCH  28  35
ENDBRANCH  27  33
ENDBRANCH  25  27
BRANCH  25  36
ATOM     36  C   UNL     1       1.154  -1.653   1.929  0.00  0.00    -0.042 C 
BRANCH  36  37
ATOM     37  C   UNL     1      -0.006  -0.713   2.129  0.00  0.00    -0.064 A 
ATOM     38  C   UNL     1      -0.550  -0.045   1.048  0.00  0.00    +0.002 A 
ATOM     39  C   UNL     1      -1.614   0.818   1.232  0.00  0.00    +0.000 A 
ATOM     40  C   UNL     1      -2.136   1.012   2.497  0.00  0.00    +0.000 A 
ATOM     41  C   UNL     1      -1.593   0.343   3.578  0.00  0.00    +0.000 A 
ATOM     42  C   UNL     1      -0.531  -0.522   3.394  0.00  0.00    +0.002 A 
ENDBRANCH  36  37
ENDBRANCH  25  36
ENDBRANCH  24  25
ENDBRANCH   1  24
TORSDOF 12
