REMARK  Name = ZINC50564962
REMARK  5 active torsions:
REMARK  status: ('A' for Active; 'I' for Inactive)
REMARK    1  A    between atoms: C_1  and  C_2
REMARK    2  A    between atoms: N_7  and  C_11
REMARK    3  A    between atoms: C_8  and  C_10
REMARK    4  A    between atoms: C_14  and  C_18
REMARK    5  A    between atoms: N_19  and  O_20
REMARK                            x       y       z     vdW  Elec       q    Type
REMARK                         _______ _______ _______ _____ _____    ______ ____
ROOT
ATOM      1  C   UNL     1       1.784  -2.766   1.399  0.00  0.00    +0.066 A 
ATOM      2  C   UNL     1       2.444  -3.197   0.253  0.00  0.00    +0.027 A 
ATOM      3  C   UNL     1       3.575  -3.976   0.358  0.00  0.00    +0.013 A 
ATOM      4  C   UNL     1       4.060  -4.334   1.617  0.00  0.00    +0.021 A 
ATOM      5  C   UNL     1       3.398  -3.901   2.767  0.00  0.00    +0.051 A 
ATOM      6  C   UNL     1       2.269  -3.117   2.657  0.00  0.00    +0.145 A 
ATOM      7  F   UNL     1       1.630  -2.692   3.769  0.00  0.00    -0.204 F 
ENDROOT
BRANCH   1  13
ATOM      8  C   UNL     1      -0.019   1.526   0.010  0.00  0.00    +0.009 C 
ATOM      9  C   UNL     1       0.002  -0.004   0.002  0.00  0.00    +0.006 C 
ATOM     10  C   UNL     1      -1.433  -0.534   0.015  0.00  0.00    +0.006 C 
ATOM     11  C   UNL     1      -1.414  -2.064  -0.027  0.00  0.00    +0.019 C 
ATOM     12  C   UNL     1      -0.692  -2.596   1.215  0.00  0.00    +0.105 C 
ATOM     13  N   UNL     1       0.639  -1.977   1.288  0.00  0.00    -0.325 N 
ATOM     14  C   UNL     1       0.742  -0.512   1.244  0.00  0.00    +0.073 C 
ATOM     15  C   UNL     1       0.104   0.084   2.500  0.00  0.00    +0.028 C 
ENDBRANCH   1  13
BRANCH   4  16
ATOM     16  C   UNL     1       5.274  -5.171   1.733  0.00  0.00    +0.162 C 
ATOM     17  N   UNL     1       5.891  -5.574   0.660  0.00  0.00    -0.072 NA
ATOM     18  N   UNL     1       5.755  -5.526   2.982  0.00  0.00    -0.340 N 
ATOM     19  H   UNL     1       5.295  -5.225   3.782  0.00  0.00    +0.144 HD
ATOM     20  H   UNL     1       6.551  -6.074   3.058  0.00  0.00    +0.144 HD
BRANCH  17  21
ATOM     21  O   UNL     1       7.053  -6.375   0.770  0.00  0.00    -0.408 OA
ATOM     22  H   UNL     1       7.441  -6.625  -0.080  0.00  0.00    +0.328 HD
ENDBRANCH  17  21
ENDBRANCH   4  16
TORSDOF 3
