REMARK  Name = ZINC01773115
REMARK  8 active torsions:
REMARK  status: ('A' for Active; 'I' for Inactive)
REMARK    1  A    between atoms: C_1  and  C_2
REMARK    2  A    between atoms: C_5  and  N_8
REMARK    3  A    between atoms: C_9  and  C_20
REMARK    4  A    between atoms: C_23  and  O_37
REMARK    5  A    between atoms: C_24  and  C_26
REMARK    6  A    between atoms: C_26  and  O_27
REMARK    7  A    between atoms: O_27  and  C_28
REMARK    8  A    between atoms: O_37  and  C_38
REMARK                            x       y       z     vdW  Elec       q    Type
REMARK                         _______ _______ _______ _____ _____    ______ ____
ROOT
ATOM      1  N   UNL     1       0.059  -4.169  -0.021  0.00  0.00    -0.244 N 
ATOM      2  C   UNL     1       0.180  -4.893   1.245  0.00  0.00    +0.198 C 
ATOM      3  N   UNL     1       0.925  -6.141   1.048  0.00  0.00    -0.321 N 
ATOM      4  C   UNL     1       0.640  -6.924  -0.066  0.00  0.00    +0.041 A 
ATOM      5  C   UNL     1       0.813  -8.297  -0.055  0.00  0.00    +0.024 A 
ATOM      6  C   UNL     1       0.525  -9.032  -1.190  0.00  0.00    +0.002 A 
ATOM      7  C   UNL     1       0.067  -8.405  -2.337  0.00  0.00    +0.001 A 
ATOM      8  C   UNL     1      -0.116  -7.038  -2.363  0.00  0.00    +0.015 A 
ATOM      9  C   UNL     1       0.165  -6.285  -1.225  0.00  0.00    +0.058 A 
ATOM     10  C   UNL     1      -0.041  -4.826  -1.194  0.00  0.00    +0.254 C 
ATOM     11  O   UNL     1      -0.296  -4.220  -2.217  0.00  0.00    -0.270 OA
ATOM     12  H   UNL     1       1.606  -6.416   1.683  0.00  0.00    +0.148 HD
ENDROOT
BRANCH   1  17
ATOM     13  C   UNL     1      -0.016   1.503   0.009  0.00  0.00    +0.044 C 
ATOM     14  C   UNL     1       0.004  -0.004   0.001  0.00  0.00    -0.050 A 
ATOM     15  C   UNL     1       1.082  -0.683   0.539  0.00  0.00    +0.005 A 
ATOM     16  C   UNL     1       1.103  -2.064   0.533  0.00  0.00    +0.024 A 
ATOM     17  C   UNL     1       0.040  -2.771  -0.013  0.00  0.00    +0.039 A 
ATOM     18  C   UNL     1      -1.041  -2.086  -0.552  0.00  0.00    +0.024 A 
ATOM     19  C   UNL     1      -1.058  -0.705  -0.539  0.00  0.00    +0.005 A 
ENDBRANCH   1  17
BRANCH   2  20
ATOM     20  C   UNL     1      -1.196  -5.215   1.769  0.00  0.00    -0.008 A 
ATOM     21  C   UNL     1      -2.259  -4.380   1.478  0.00  0.00    +0.010 A 
ATOM     22  C   UNL     1      -3.520  -4.672   1.957  0.00  0.00    +0.046 A 
ATOM     23  C   UNL     1      -3.721  -5.806   2.732  0.00  0.00    +0.126 A 
ATOM     24  C   UNL     1      -2.654  -6.643   3.022  0.00  0.00    +0.032 A 
ATOM     25  C   UNL     1      -1.394  -6.348   2.535  0.00  0.00    +0.017 A 
BRANCH  23  26
ATOM     26  O   UNL     1      -4.962  -6.096   3.205  0.00  0.00    -0.495 OA
ATOM     27  C   UNL     1      -6.013  -5.190   2.867  0.00  0.00    +0.277 C 
ENDBRANCH  23  26
BRANCH  24  28
ATOM     28  C   UNL     1      -2.868  -7.875   3.862  0.00  0.00    +0.268 C 
BRANCH  28  29
ATOM     29  O   UNL     1      -1.627  -8.567   4.019  0.00  0.00    -0.484 OA
BRANCH  29  30
ATOM     30  C   UNL     1      -1.646  -9.709   4.757  0.00  0.00    +0.158 A 
ATOM     31  C   UNL     1      -1.432  -9.655   6.127  0.00  0.00    +0.085 A 
ATOM     32  C   UNL     1      -1.452 -10.818   6.875  0.00  0.00    +0.043 A 
ATOM     33  C   UNL     1      -1.684 -12.034   6.259  0.00  0.00    +0.044 A 
ATOM     34  C   UNL     1      -1.897 -12.090   4.893  0.00  0.00    +0.043 A 
ATOM     35  C   UNL     1      -1.885 -10.930   4.142  0.00  0.00    +0.085 A 
ATOM     36 CL   UNL     1      -2.161 -11.000   2.429  0.00  0.00    -0.080 Cl
ATOM     37 CL   UNL     1      -1.707 -13.492   7.200  0.00  0.00    -0.083 Cl
ATOM     38 CL   UNL     1      -1.139  -8.129   6.901  0.00  0.00    -0.080 Cl
ENDBRANCH  29  30
ENDBRANCH  28  29
ENDBRANCH  24  28
ENDBRANCH   2  20
TORSDOF 6
