REMARK  Name = ZINC12253475
REMARK  14 active torsions:
REMARK  status: ('A' for Active; 'I' for Inactive)
REMARK    1  A    between atoms: C_1  and  C_2
REMARK    2  A    between atoms: C_3  and  C_36
REMARK    3  A    between atoms: N_4  and  C_31
REMARK    4  A    between atoms: C_5  and  N_9
REMARK    5  A    between atoms: C_6  and  C_7
REMARK    6  A    between atoms: C_10  and  C_12
REMARK    7  A    between atoms: C_12  and  O_13
REMARK    8  A    between atoms: O_13  and  C_14
REMARK    9  A    between atoms: C_14  and  C_16
REMARK   10  A    between atoms: C_21  and  O_22
REMARK   11  A    between atoms: O_22  and  C_23
REMARK   12  A    between atoms: C_23  and  C_24
REMARK   13  A    between atoms: C_25  and  C_30
REMARK   14  A    between atoms: C_28  and  C_29
REMARK                            x       y       z     vdW  Elec       q    Type
REMARK                         _______ _______ _______ _____ _____    ______ ____
ROOT
ATOM      1  C   UNL     1       3.300   7.662   1.338  0.00  0.00    +0.328 C 
ENDROOT
BRANCH   1   3
ATOM      2  N   UNL     1       3.783   9.968   0.587  0.00  0.00    -0.268 N 
ATOM      3  C   UNL     1       4.223   8.843   1.184  0.00  0.00    +0.256 C 
ATOM      4  O   UNL     1       5.361   8.781   1.597  0.00  0.00    -0.272 OA
ATOM      5  H   UNL     1       2.850  10.050   0.333  0.00  0.00    +0.156 HD
BRANCH   2  10
ATOM      6  C   UNL     1       7.941  12.654  -0.433  0.00  0.00    +0.047 C 
ATOM      7  C   UNL     1       6.522  12.251  -0.126  0.00  0.00    -0.011 A 
ATOM      8  C   UNL     1       5.468  13.071   0.016  0.00  0.00    +0.022 A 
ATOM      9  N   UNL     1       4.349  12.329   0.287  0.00  0.00    -0.329 N 
ATOM     10  C   UNL     1       4.664  11.009   0.334  0.00  0.00    +0.124 A 
ATOM     11  C   UNL     1       6.023  10.885   0.078  0.00  0.00    +0.095 A 
ATOM     12  C   UNL     1       5.509  14.572  -0.110  0.00  0.00    +0.064 C 
BRANCH   9  13
ATOM     13  C   UNL     1       3.009  12.880   0.498  0.00  0.00    +0.089 C 
ATOM     14  C   UNL     1       2.422  12.350   1.823  0.00  0.00    +0.025 C 
ATOM     15  C   UNL     1       0.918  12.143   1.516  0.00  0.00    +0.002 C 
ATOM     16  C   UNL     1       0.935  11.609   0.062  0.00  0.00    +0.002 C 
ATOM     17  C   UNL     1       2.063  12.409  -0.621  0.00  0.00    +0.025 C 
ENDBRANCH   9  13
BRANCH  11  18
ATOM     18  C   UNL     1       6.783   9.673   0.025  0.00  0.00    +0.103 C 
ATOM     19  N   UNL     1       7.386   8.711  -0.017  0.00  0.00    -0.191 NA
ENDBRANCH  11  18
ENDBRANCH   2  10
ENDBRANCH   1   3
BRANCH   1  20
ATOM     20  O   UNL     1       4.035   6.543   1.899  0.00  0.00    -0.452 OA
BRANCH  20  21
ATOM     21  C   UNL     1       3.350   5.400   2.102  0.00  0.00    +0.343 C 
ATOM     22  O   UNL     1       2.170   5.341   1.818  0.00  0.00    -0.245 OA
BRANCH  21  23
ATOM     23  C   UNL     1       4.032   4.223   2.669  0.00  0.00    +0.101 A 
ATOM     24  C   UNL     1       5.389   4.286   2.998  0.00  0.00    +0.018 A 
ATOM     25  C   UNL     1       6.020   3.182   3.527  0.00  0.00    +0.001 A 
ATOM     26  C   UNL     1       5.316   2.007   3.736  0.00  0.00    +0.004 A 
ATOM     27  C   UNL     1       3.974   1.932   3.421  0.00  0.00    +0.046 A 
ATOM     28  C   UNL     1       3.323   3.032   2.882  0.00  0.00    +0.135 A 
BRANCH  28  29
ATOM     29  O   UNL     1       2.006   2.957   2.567  0.00  0.00    -0.486 OA
BRANCH  29  30
ATOM     30  C   UNL     1       1.350   1.712   2.811  0.00  0.00    +0.269 C 
BRANCH  30  31
ATOM     31  C   UNL     1      -0.097   1.817   2.403  0.00  0.00    +0.054 A 
ATOM     32  C   UNL     1      -0.668   1.537   1.141  0.00  0.00    +0.087 A 
ATOM     33  N   UNL     1      -1.943   1.775   1.253  0.00  0.00    -0.083 NA
ATOM     34  O   UNL     1      -2.231   2.140   2.369  0.00  0.00    -0.359 OA
ATOM     35  C   UNL     1      -1.151   2.204   3.161  0.00  0.00    +0.141 A 
ATOM     36  C   UNL     1      -1.117   2.622   4.608  0.00  0.00    +0.089 C 
ATOM     37  C   UNL     1       0.057   1.063  -0.093  0.00  0.00    +0.069 C 
ENDBRANCH  30  31
ENDBRANCH  29  30
ENDBRANCH  28  29
ENDBRANCH  21  23
ENDBRANCH  20  21
ENDBRANCH   1  20
TORSDOF 10
