REMARK  Name = ZINC13762898
REMARK  5 active torsions:
REMARK  status: ('A' for Active; 'I' for Inactive)
REMARK    1  A    between atoms: C_1  and  C_2
REMARK    2  A    between atoms: C_2  and  C_4
REMARK    3  A    between atoms: C_2  and  N_15
REMARK    4  A    between atoms: C_7  and  C_9
REMARK    5  A    between atoms: N_15  and  O_19
REMARK                            x       y       z     vdW  Elec       q    Type
REMARK                         _______ _______ _______ _____ _____    ______ ____
ROOT
ATOM      1  C   UNL     1      -4.962   4.864  -0.006  0.00  0.00    +0.013 A 
ATOM      2  C   UNL     1      -3.932   5.749  -0.054  0.00  0.00    +0.014 A 
ATOM      3  C   UNL     1      -2.641   5.274  -0.110  0.00  0.00    +0.018 A 
ATOM      4  C   UNL     1      -2.438   3.920  -0.116  0.00  0.00    +0.038 A 
ATOM      5  S   UNL     1      -4.109   3.296  -0.049  0.00  0.00    -0.090 S 
ENDROOT
BRANCH   4   6
ATOM      6  C   UNL     1      -1.166   3.170  -0.171  0.00  0.00    +0.078 A 
ATOM      7  C   UNL     1      -1.185   1.774  -0.172  0.00  0.00    +0.029 A 
ATOM      8  C   UNL     1       0.014   1.086  -0.217  0.00  0.00    +0.004 A 
ATOM      9  C   UNL     1       1.195   1.815  -0.271  0.00  0.00    +0.020 A 
ATOM     10  C   UNL     1       1.141   3.196  -0.273  0.00  0.00    +0.111 A 
ATOM     11  N   UNL     1      -0.014   3.829  -0.224  0.00  0.00    -0.254 NA
ENDBRANCH   4   6
BRANCH   1  13
ATOM     12  C   UNL     1      -6.926   4.985   1.502  0.00  0.00    +0.036 C 
ATOM     13  C   UNL     1      -6.442   5.136   0.058  0.00  0.00    +0.140 C 
BRANCH  13  14
ATOM     14  N   UNL     1      -7.152   4.181  -0.797  0.00  0.00    -0.160 N 
ATOM     15  C   UNL     1      -7.053   2.859  -0.557  0.00  0.00    +0.323 C 
ATOM     16  O   UNL     1      -6.331   2.455   0.334  0.00  0.00    -0.251 OA
ATOM     17  N   UNL     1      -7.755   1.984  -1.304  0.00  0.00    -0.312 N 
ATOM     18  H   UNL     1      -8.273   2.299  -2.061  0.00  0.00    +0.147 HD
ATOM     19  H   UNL     1      -7.741   1.039  -1.085  0.00  0.00    +0.147 HD
BRANCH  14  20
ATOM     20  O   UNL     1      -7.942   4.648  -1.875  0.00  0.00    -0.291 OA
ATOM     21  H   UNL     1      -8.433   3.952  -2.333  0.00  0.00    +0.242 HD
ENDBRANCH  14  20
ENDBRANCH  13  14
ENDBRANCH   1  13
TORSDOF 4
