REMARK  Name = ZINC15303567
REMARK  3 active torsions:
REMARK  status: ('A' for Active; 'I' for Inactive)
REMARK    1  A    between atoms: C_4  and  N_7
REMARK    2  A    between atoms: C_12  and  C_29
REMARK    3  A    between atoms: C_29  and  C_30
REMARK                            x       y       z     vdW  Elec       q    Type
REMARK                         _______ _______ _______ _____ _____    ______ ____
ROOT
ATOM      1  N   UNL     1       3.624  -0.652  -0.037  0.00  0.00    -0.210 N 
ATOM      2  C   UNL     1       4.801  -0.025  -0.139  0.00  0.00    +0.232 C 
ATOM      3  O   UNL     1       4.950   1.175  -0.223  0.00  0.00    -0.274 OA
ATOM      4  C   UNL     1       5.916  -1.045  -0.131  0.00  0.00    +0.108 C 
ATOM      5  C   UNL     1       6.736  -0.897   1.169  0.00  0.00    +0.072 C 
ATOM      6  N   UNL     1       6.026  -1.741   2.167  0.00  0.00    -0.295 NA
ATOM      7  C   UNL     1       5.598  -2.924   1.397  0.00  0.00    +0.136 C 
ATOM      8  C   UNL     1       5.164  -2.398   0.006  0.00  0.00    +0.123 C 
ATOM      9  C   UNL     1       3.711  -1.984   0.052  0.00  0.00    +0.233 C 
ATOM     10  O   UNL     1       2.770  -2.742   0.153  0.00  0.00    -0.274 OA
ATOM     11  C   UNL     1       4.482  -3.656   2.087  0.00  0.00    +0.003 A 
ATOM     12  C   UNL     1       3.212  -3.297   2.481  0.00  0.00    +0.008 A 
ATOM     13  C   UNL     1       2.397  -4.219   3.113  0.00  0.00    +0.000 A 
ATOM     14  C   UNL     1       2.860  -5.500   3.349  0.00  0.00    +0.002 A 
ATOM     15  C   UNL     1       4.131  -5.865   2.955  0.00  0.00    +0.023 A 
ATOM     16  C   UNL     1       4.958  -4.944   2.317  0.00  0.00    +0.039 A 
ATOM     17  N   UNL     1       6.261  -5.071   1.831  0.00  0.00    -0.283 N 
ATOM     18  C   UNL     1       6.710  -3.930   1.275  0.00  0.00    +0.243 C 
ATOM     19  O   UNL     1       7.798  -3.748   0.772  0.00  0.00    -0.273 OA
ATOM     20  H   UNL     1       6.642  -2.004   2.921  0.00  0.00    +0.124 HD
ATOM     21  H   UNL     1       6.783  -5.887   1.887  0.00  0.00    +0.155 HD
ENDROOT
BRANCH   1  25
ATOM     22  C   UNL     1      -0.016   1.380   0.010  0.00  0.00    +0.000 A 
ATOM     23  C   UNL     1       0.869   1.524   1.063  0.00  0.00    +0.002 A 
ATOM     24  C   UNL     1       2.075   0.852   1.050  0.00  0.00    +0.024 A 
ATOM     25  C   UNL     1       2.399   0.031  -0.021  0.00  0.00    +0.044 A 
ATOM     26  C   UNL     1       1.509  -0.112  -1.077  0.00  0.00    +0.024 A 
ATOM     27  C   UNL     1       0.304   0.563  -1.058  0.00  0.00    +0.002 A 
ENDBRANCH   1  25
BRANCH   5  28
ATOM     28  C   UNL     1       6.755   0.565   1.622  0.00  0.00    +0.056 C 
BRANCH  28  29
ATOM     29  C   UNL     1       7.659   0.707   2.819  0.00  0.00    -0.021 A 
ATOM     30  C   UNL     1       7.287   0.678   4.109  0.00  0.00    +0.087 A 
ATOM     31  N   UNL     1       8.381   0.840   4.914  0.00  0.00    -0.360 N 
ATOM     32  H   UNL     1       8.362   0.854   5.884  0.00  0.00    +0.165 HD
ATOM     33  C   UNL     1       9.513   0.981   4.143  0.00  0.00    +0.047 A 
ATOM     34  C   UNL     1       9.111   0.898   2.797  0.00  0.00    +0.003 A 
ATOM     35  C   UNL     1      10.061   1.003   1.779  0.00  0.00    +0.010 A 
ATOM     36  C   UNL     1      11.378   1.182   2.096  0.00  0.00    +0.001 A 
ATOM     37  C   UNL     1      11.780   1.261   3.422  0.00  0.00    +0.002 A 
ATOM     38  C   UNL     1      10.858   1.169   4.442  0.00  0.00    +0.026 A 
ENDBRANCH  28  29
ENDBRANCH   5  28
TORSDOF 3
