REMARK  Name = ZINC04806656
REMARK  7 active torsions:
REMARK  status: ('A' for Active; 'I' for Inactive)
REMARK    1  A    between atoms: C_4  and  C_7
REMARK    2  A    between atoms: C_12  and  C_13
REMARK    3  A    between atoms: C_12  and  N_59
REMARK    4  A    between atoms: C_14  and  C_15
REMARK    5  A    between atoms: C_15  and  C_16
REMARK    6  A    between atoms: C_15  and  C_22
REMARK    7  A    between atoms: C_15  and  O_28
REMARK                            x       y       z     vdW  Elec       q    Type
REMARK                         _______ _______ _______ _____ _____    ______ ____
ROOT
ATOM      1  C   UNL     1      -2.959  -1.204   0.392  0.00  0.00    -0.118 C 
ATOM      2  C   UNL     1      -3.572  -0.214   0.240  0.00  0.00    -0.064 C 
ENDROOT
BRANCH   1   3
ATOM      3  C   UNL     1      -2.191  -2.445   0.583  0.00  0.00    +0.012 C 
BRANCH   3   8
ATOM      4  C   UNL     1       0.179  -3.494   3.150  0.00  0.00    +0.001 C 
ATOM      5  C   UNL     1      -1.163  -3.170   3.859  0.00  0.00    -0.012 C 
ATOM      6  C   UNL     1      -1.785  -2.090   2.948  0.00  0.00    -0.077 C 
ATOM      7  C   UNL     1      -0.216  -3.365   1.658  0.00  0.00    -0.069 C 
ATOM      8  N   UNL     1      -1.153  -2.226   1.623  0.00  0.00    +0.387 N 
ATOM      9  H   UNL     1      -0.634  -1.367   1.404  0.00  0.00    -0.080 HD
BRANCH   4  13
ATOM     10  C   UNL     1       1.464  -7.466   4.056  0.00  0.00    +0.000 A 
ATOM     11  C   UNL     1       2.276  -6.390   4.363  0.00  0.00    +0.000 A 
ATOM     12  C   UNL     1       1.860  -5.105   4.070  0.00  0.00    +0.004 A 
ATOM     13  C   UNL     1       0.632  -4.896   3.470  0.00  0.00    -0.046 A 
ATOM     14  C   UNL     1      -0.181  -5.971   3.167  0.00  0.00    +0.004 A 
ATOM     15  C   UNL     1       0.237  -7.257   3.456  0.00  0.00    +0.000 A 
ENDBRANCH   4  13
ENDBRANCH   3   8
ENDBRANCH   1   3
BRANCH   2  16
ATOM     16  C   UNL     1      -4.340   1.027   0.049  0.00  0.00    +0.154 C 
BRANCH  16  17
ATOM     17  C   UNL     1      -5.006   1.409   1.345  0.00  0.00    -0.004 A 
ATOM     18  C   UNL     1      -4.242   1.644   2.473  0.00  0.00    +0.007 A 
ATOM     19  C   UNL     1      -4.853   2.000   3.660  0.00  0.00    +0.000 A 
ATOM     20  C   UNL     1      -6.230   2.111   3.723  0.00  0.00    +0.000 A 
ATOM     21  C   UNL     1      -6.995   1.871   2.597  0.00  0.00    +0.000 A 
ATOM     22  C   UNL     1      -6.383   1.520   1.408  0.00  0.00    +0.007 A 
ENDBRANCH  16  17
BRANCH  16  23
ATOM     23  C   UNL     1      -3.396   2.148  -0.389  0.00  0.00    +0.038 C 
ATOM     24  C   UNL     1      -4.202   3.424  -0.642  0.00  0.00    +0.007 C 
ATOM     25  C   UNL     1      -3.258   4.545  -1.080  0.00  0.00    +0.000 C 
ATOM     26  C   UNL     1      -2.539   4.133  -2.366  0.00  0.00    +0.000 C 
ATOM     27  C   UNL     1      -1.733   2.858  -2.114  0.00  0.00    +0.000 C 
ATOM     28  C   UNL     1      -2.677   1.736  -1.676  0.00  0.00    +0.007 C 
ENDBRANCH  16  23
BRANCH  16  29
ATOM     29  O   UNL     1      -5.335   0.822  -0.956  0.00  0.00    -0.372 OA
ATOM     30  H   UNL     1      -4.976   0.572  -1.819  0.00  0.00    +0.212 HD
ENDBRANCH  16  29
ENDBRANCH   2  16
TORSDOF 7
