REMARK  Name = ZINC13051543
REMARK  11 active torsions:
REMARK  status: ('A' for Active; 'I' for Inactive)
REMARK    1  A    between atoms: C_1  and  C_2
REMARK    2  A    between atoms: C_2  and  C_4
REMARK    3  A    between atoms: C_2  and  O_36
REMARK    4  A    between atoms: C_4  and  N_5
REMARK    5  A    between atoms: C_11  and  C_34
REMARK    6  A    between atoms: C_15  and  S_16
REMARK    7  A    between atoms: S_16  and  C_17
REMARK    8  A    between atoms: C_17  and  C_18
REMARK    9  A    between atoms: N_20  and  C_21
REMARK   10  A    between atoms: C_21  and  C_23
REMARK   11  A    between atoms: C_21  and  C_24
REMARK                            x       y       z     vdW  Elec       q    Type
REMARK                         _______ _______ _______ _____ _____    ______ ____
ROOT
ATOM      1  N   UNL     1      -8.246   2.510  -5.749  0.00  0.00    -0.285 N 
ATOM      2  C   UNL     1      -9.454   1.909  -5.644  0.00  0.00    +0.262 A 
ATOM      3  O   UNL     1     -10.441   2.380  -6.178  0.00  0.00    -0.267 OA
ATOM      4  C   UNL     1      -9.530   0.667  -4.858  0.00  0.00    +0.065 A 
ATOM      5  C   UNL     1     -10.732  -0.020  -4.690  0.00  0.00    +0.016 A 
ATOM      6  C   UNL     1     -10.762  -1.168  -3.952  0.00  0.00    +0.016 A 
ATOM      7  C   UNL     1      -9.594  -1.666  -3.360  0.00  0.00    +0.065 A 
ATOM      8  C   UNL     1      -8.386  -0.997  -3.514  0.00  0.00    +0.043 A 
ATOM      9  C   UNL     1      -8.343   0.179  -4.267  0.00  0.00    +0.080 A 
ATOM     10  N   UNL     1      -7.188   0.864  -4.444  0.00  0.00    -0.223 NA
ATOM     11  C   UNL     1      -7.146   1.967  -5.149  0.00  0.00    +0.173 A 
ENDROOT
BRANCH   7  12
ATOM     12  C   UNL     1      -9.647  -2.912  -2.564  0.00  0.00    +0.387 C 
ATOM     13  O   UNL     1      -8.637  -3.347  -2.048  0.00  0.00    -0.241 OA
ATOM     14  O   UNL     1     -10.816  -3.563  -2.411  0.00  0.00    -0.241 OA
ENDBRANCH   7  12
BRANCH   1  15
ATOM     15  C   UNL     1      -8.117   3.752  -6.516  0.00  0.00    +0.158 C 
BRANCH  15  17
ATOM     16  C   UNL     1      -7.542   4.713  -8.749  0.00  0.00    +0.039 C 
ATOM     17  C   UNL     1      -7.800   3.419  -7.975  0.00  0.00    +0.131 C 
BRANCH  17  18
ATOM     18  O   UNL     1      -8.907   2.728  -8.558  0.00  0.00    -0.390 OA
ATOM     19  H   UNL     1      -9.732   3.233  -8.553  0.00  0.00    +0.210 HD
ENDBRANCH  17  18
ENDBRANCH  15  17
ENDBRANCH   1  15
BRANCH  11  20
ATOM     20  S   UNL     1      -5.599   2.792  -5.326  0.00  0.00    -0.078 S 
BRANCH  20  21
ATOM     21  C   UNL     1      -4.540   1.685  -4.363  0.00  0.00    +0.173 C 
BRANCH  21  22
ATOM     22  C   UNL     1      -3.126   2.206  -4.374  0.00  0.00    +0.224 C 
ATOM     23  O   UNL     1      -2.861   3.227  -4.973  0.00  0.00    -0.275 OA
ATOM     24  N   UNL     1      -2.157   1.539  -3.717  0.00  0.00    -0.312 N 
ATOM     25  H   UNL     1      -2.369   0.723  -3.237  0.00  0.00    +0.149 HD
BRANCH  24  26
ATOM     26  C   UNL     1      -0.782   2.046  -3.727  0.00  0.00    +0.076 C 
ATOM     27  C   UNL     1      -0.066   1.553  -4.986  0.00  0.00    +0.028 C 
BRANCH  26  28
ATOM     28  C   UNL     1      -0.043   1.539  -2.488  0.00  0.00    -0.010 C 
ATOM     29  C   UNL     1      -0.759   2.033  -1.229  0.00  0.00    +0.012 C 
ATOM     30  C   UNL     1      -0.019   1.526   0.010  0.00  0.00    -0.010 C 
ATOM     31  C   UNL     1       1.417   2.055  -0.000  0.00  0.00    +0.007 C 
ATOM     32  C   UNL     1       2.133   1.562  -1.259  0.00  0.00    -0.010 C 
ATOM     33  C   UNL     1       1.393   2.069  -2.499  0.00  0.00    +0.012 C 
ATOM     34  C   UNL     1       2.154   0.032  -1.268  0.00  0.00    +0.007 C 
ATOM     35  C   UNL     1       0.718  -0.497  -1.257  0.00  0.00    -0.010 C 
ATOM     36  C   UNL     1       0.002  -0.004   0.002  0.00  0.00    +0.007 C 
ATOM     37  C   UNL     1      -0.022   0.009  -2.496  0.00  0.00    +0.012 C 
ENDBRANCH  26  28
ENDBRANCH  24  26
ENDBRANCH  21  22
ENDBRANCH  20  21
ENDBRANCH  11  20
TORSDOF 9
