REMARK  Name = ZINC18750865
REMARK  6 active torsions:
REMARK  status: ('A' for Active; 'I' for Inactive)
REMARK    1  A    between atoms: C_9  and  C_11
REMARK    2  A    between atoms: C_11  and  O_13
REMARK    3  A    between atoms: O_13  and  C_14
REMARK    4  A    between atoms: C_14  and  C_15
REMARK    5  A    between atoms: N_17  and  C_18
REMARK    6  A    between atoms: C_19  and  C_27
REMARK                            x       y       z     vdW  Elec       q    Type
REMARK                         _______ _______ _______ _____ _____    ______ ____
ROOT
ATOM      1  C   UNL     1      -2.065   1.840   5.838  0.00  0.00    +0.255 C 
ATOM      2  O   UNL     1      -2.759   2.761   5.463  0.00  0.00    -0.272 OA
ATOM      3  N   UNL     1      -1.288   1.179   4.957  0.00  0.00    -0.277 N 
ATOM      4  H   UNL     1      -0.734   0.442   5.258  0.00  0.00    +0.155 HD
ENDROOT
BRANCH   3   5
ATOM      5  C   UNL     1      -1.282   1.552   3.622  0.00  0.00    +0.084 A 
ATOM      6  C   UNL     1      -0.558   0.999   2.575  0.00  0.00    +0.068 A 
ATOM      7  C   UNL     1      -0.732   1.580   1.257  0.00  0.00    -0.023 A 
ATOM      8  C   UNL     1      -1.601   2.615   1.194  0.00  0.00    -0.004 A 
ATOM      9  S   UNL     1      -2.178   2.821   2.855  0.00  0.00    -0.077 S 
ATOM     10  C   UNL     1      -1.979   3.405  -0.021  0.00  0.00    +0.043 C 
ATOM     11  C   UNL     1      -0.956   3.111  -1.127  0.00  0.00    +0.005 C 
ATOM     12  C   UNL     1      -0.758   1.595  -1.227  0.00  0.00    +0.005 C 
ATOM     13  C   UNL     1      -0.013   1.086   0.008  0.00  0.00    +0.037 C 
BRANCH   6  14
ATOM     14  C   UNL     1       0.351  -0.131   2.793  0.00  0.00    +0.244 C 
ATOM     15  O   UNL     1      -0.061  -1.272   2.693  0.00  0.00    -0.270 OA
ATOM     16  N   UNL     1       1.643   0.094   3.104  0.00  0.00    -0.325 N 
ATOM     17  H   UNL     1       1.971   1.004   3.184  0.00  0.00    +0.145 HD
ATOM     18  H   UNL     1       2.244  -0.653   3.248  0.00  0.00    +0.145 HD
ENDBRANCH   6  14
ENDBRANCH   3   5
BRANCH   1  19
ATOM     19  C   UNL     1      -2.071   1.434   7.290  0.00  0.00    +0.328 C 
BRANCH  19  20
ATOM     20  O   UNL     1      -2.981   2.292   8.028  0.00  0.00    -0.450 OA
BRANCH  20  21
ATOM     21  C   UNL     1      -3.104   2.060   9.351  0.00  0.00    +0.375 C 
ATOM     22  O   UNL     1      -2.468   1.165   9.872  0.00  0.00    -0.241 OA
BRANCH  21  31
ATOM     23  C   UNL     1      -6.972   5.877  11.915  0.00  0.00    +0.023 A 
ATOM     24  C   UNL     1      -6.382   5.522  10.721  0.00  0.00    +0.048 A 
ATOM     25  C   UNL     1      -5.476   4.469  10.682  0.00  0.00    +0.136 A 
ATOM     26  C   UNL     1      -5.176   3.777  11.871  0.00  0.00    +0.022 A 
ATOM     27  C   UNL     1      -5.785   4.151  13.071  0.00  0.00    +0.031 A 
ATOM     28  C   UNL     1      -6.672   5.191  13.085  0.00  0.00    +0.042 A 
ATOM     29 CL   UNL     1      -7.430   5.658  14.576  0.00  0.00    -0.084 Cl
ATOM     30  C   UNL     1      -4.209   2.747  11.497  0.00  0.00    +0.065 A 
ATOM     31  C   UNL     1      -4.006   2.888  10.161  0.00  0.00    +0.213 A 
ATOM     32  O   UNL     1      -4.754   3.909   9.692  0.00  0.00    -0.448 OA
ENDBRANCH  21  31
ENDBRANCH  20  21
ENDBRANCH  19  20
ENDBRANCH   1  19
TORSDOF 6
