REMARK  Name = ZINC35898164
REMARK  6 active torsions:
REMARK  status: ('A' for Active; 'I' for Inactive)
REMARK    1  A    between atoms: C_3  and  S_24
REMARK    2  A    between atoms: C_6  and  N_7
REMARK    3  A    between atoms: C_8  and  C_10
REMARK    4  A    between atoms: C_19  and  C_21
REMARK    5  A    between atoms: S_24  and  N_27
REMARK    6  A    between atoms: N_27  and  C_28
REMARK                            x       y       z     vdW  Elec       q    Type
REMARK                         _______ _______ _______ _____ _____    ______ ____
ROOT
ATOM      1  C   UNL     1      -0.013   1.374   0.193  0.00  0.00    +0.025 A 
ATOM      2  C   UNL     1       1.174   2.082   0.190  0.00  0.00    +0.031 A 
ATOM      3  C   UNL     1       2.374   1.421   0.002  0.00  0.00    +0.110 A 
ATOM      4  C   UNL     1       2.391   0.051  -0.183  0.00  0.00    +0.031 A 
ATOM      5  C   UNL     1       1.208  -0.663  -0.181  0.00  0.00    +0.025 A 
ATOM      6  C   UNL     1       0.001  -0.002   0.007  0.00  0.00    +0.034 A 
ENDROOT
BRANCH   6   7
ATOM      7  N   UNL     1      -1.199  -0.722   0.010  0.00  0.00    -0.285 N 
ATOM      8  C   UNL     1      -2.325  -0.156  -0.469  0.00  0.00    +0.221 C 
ATOM      9  O   UNL     1      -2.280   0.938  -0.990  0.00  0.00    -0.275 OA
ATOM     10  H   UNL     1      -1.221  -1.627   0.357  0.00  0.00    +0.155 HD
BRANCH   8  11
ATOM     11  C   UNL     1      -3.640  -0.884  -0.358  0.00  0.00    +0.092 C 
ATOM     12  C   UNL     1      -4.780  -0.050  -1.016  0.00  0.00    +0.002 C 
ATOM     13  C   UNL     1      -6.091  -0.787  -0.604  0.00  0.00    +0.004 C 
ATOM     14  C   UNL     1      -6.064  -2.110  -1.403  0.00  0.00    +0.004 C 
ATOM     15  C   UNL     1      -4.739  -2.048  -2.223  0.00  0.00    +0.004 C 
ATOM     16  C   UNL     1      -4.635  -0.491  -2.515  0.00  0.00    +0.008 C 
ATOM     17  C   UNL     1      -3.597  -2.200  -1.167  0.00  0.00    +0.117 C 
BRANCH  17  18
ATOM     18  C   UNL     1      -3.894  -3.377  -0.274  0.00  0.00    +0.360 C 
ATOM     19  O   UNL     1      -4.096  -3.203   0.916  0.00  0.00    -0.246 OA
ATOM     20  O   UNL     1      -3.932  -4.503  -0.740  0.00  0.00    -0.246 OA
ENDBRANCH  17  18
ENDBRANCH   8  11
ENDBRANCH   6   7
BRANCH   3  21
ATOM     21  S   UNL     1       3.885   2.327  -0.002  0.00  0.00    +0.092 S 
ATOM     22  O   UNL     1       4.821   1.553  -0.741  0.00  0.00    -0.148 OA
ATOM     23  O   UNL     1       3.556   3.664  -0.354  0.00  0.00    -0.148 OA
BRANCH  21  24
ATOM     24  N   UNL     1       4.434   2.370   1.560  0.00  0.00    -0.098 NA
BRANCH  24  25
ATOM     25  C   UNL     1       5.628   3.030   1.862  0.00  0.00    +0.077 A 
ATOM     26  C   UNL     1       6.352   3.655   0.855  0.00  0.00    +0.046 A 
ATOM     27  C   UNL     1       7.532   4.307   1.157  0.00  0.00    +0.044 A 
ATOM     28  C   UNL     1       7.993   4.338   2.462  0.00  0.00    +0.040 A 
ATOM     29  C   UNL     1       7.274   3.716   3.467  0.00  0.00    +0.044 A 
ATOM     30  C   UNL     1       6.090   3.067   3.171  0.00  0.00    +0.046 A 
ATOM     31 CL   UNL     1       7.856   3.756   5.102  0.00  0.00    -0.083 Cl
ATOM     32 CL   UNL     1       8.438   5.088  -0.101  0.00  0.00    -0.083 Cl
ENDBRANCH  24  25
ENDBRANCH  21  24
ENDBRANCH   3  21
TORSDOF 6
