REMARK  Name = ZINC20083690
REMARK  6 active torsions:
REMARK  status: ('A' for Active; 'I' for Inactive)
REMARK    1  A    between atoms: C_1  and  O_2
REMARK    2  A    between atoms: O_2  and  C_3
REMARK    3  A    between atoms: C_3  and  C_5
REMARK    4  A    between atoms: C_6  and  N_24
REMARK    5  A    between atoms: C_8  and  C_17
REMARK    6  A    between atoms: C_9  and  C_15
REMARK                            x       y       z     vdW  Elec       q    Type
REMARK                         _______ _______ _______ _____ _____    ______ ____
ROOT
ATOM      1  C   UNL     1       1.936   5.851   0.597  0.00  0.00    +0.119 A 
ATOM      2  C   UNL     1       2.272   4.621   0.069  0.00  0.00    +0.056 A 
ATOM      3  C   UNL     1       1.211   3.792  -0.476  0.00  0.00    +0.038 A 
ATOM      4  C   UNL     1       1.314   2.498  -1.068  0.00  0.00    +0.014 A 
ATOM      5  C   UNL     1       0.149   1.875  -1.534  0.00  0.00    +0.100 A 
ATOM      6  C   UNL     1      -1.092   2.534  -1.415  0.00  0.00    +0.136 A 
ATOM      7  N   UNL     1      -1.158   3.731  -0.856  0.00  0.00    -0.224 NA
ATOM      8  C   UNL     1      -0.086   4.351  -0.406  0.00  0.00    +0.114 A 
ATOM      9  S   UNL     1       0.170   5.928   0.371  0.00  0.00    -0.060 S 
ATOM     10  N   UNL     1      -2.243   1.924  -1.878  0.00  0.00    -0.342 N 
ATOM     11  H   UNL     1      -3.212   2.436  -1.786  0.00  0.00    +0.144 HD
ATOM     12  H   UNL     1      -2.190   0.926  -2.338  0.00  0.00    +0.144 HD
ENDROOT
BRANCH   4  13
ATOM     13  C   UNL     1       2.627   1.828  -1.189  0.00  0.00    -0.016 A 
ATOM     14  C   UNL     1       3.574   2.299  -2.099  0.00  0.00    +0.010 A 
ATOM     15  C   UNL     1       4.797   1.672  -2.204  0.00  0.00    +0.020 A 
ATOM     16  C   UNL     1       5.084   0.571  -1.416  0.00  0.00    +0.041 A 
ATOM     17  C   UNL     1       4.147   0.095  -0.514  0.00  0.00    +0.020 A 
ATOM     18  C   UNL     1       2.921   0.717  -0.397  0.00  0.00    +0.010 A 
ATOM     19 CL   UNL     1       6.624  -0.217  -1.558  0.00  0.00    -0.084 Cl
ENDBRANCH   4  13
BRANCH   2  20
ATOM     20  N   UNL     1       3.589   4.186   0.061  0.00  0.00    -0.356 N 
ATOM     21  H   UNL     1       3.841   3.203  -0.363  0.00  0.00    +0.142 HD
ATOM     22  H   UNL     1       4.381   4.825   0.478  0.00  0.00    +0.142 HD
ENDBRANCH   2  20
BRANCH   1  23
ATOM     23  C   UNL     1       2.788   6.817   1.177  0.00  0.00    +0.348 C 
ATOM     24  O   UNL     1       3.984   6.606   1.255  0.00  0.00    -0.244 OA
BRANCH  23  26
ATOM     25  C   UNL     1       3.194   8.907   2.219  0.00  0.00    +0.280 C 
ATOM     26  O   UNL     1       2.275   7.976   1.645  0.00  0.00    -0.464 OA
ENDBRANCH  23  26
ENDBRANCH   1  23
BRANCH   5  27
ATOM     27  C   UNL     1       0.219   0.577  -2.133  0.00  0.00    +0.103 C 
ATOM     28  N   UNL     1       0.274  -0.453  -2.609  0.00  0.00    -0.191 NA
ENDBRANCH   5  27
TORSDOF 5
