REMARK  Name = ZINC01829578
REMARK  10 active torsions:
REMARK  status: ('A' for Active; 'I' for Inactive)
REMARK    1  A    between atoms: C_1  and  C_2
REMARK    2  A    between atoms: C_2  and  O_3
REMARK    3  A    between atoms: O_3  and  C_4
REMARK    4  A    between atoms: C_4  and  C_6
REMARK    5  A    between atoms: C_10  and  N_11
REMARK    6  A    between atoms: C_12  and  C_14
REMARK    7  A    between atoms: C_14  and  C_28
REMARK    8  A    between atoms: C_15  and  C_16
REMARK    9  A    between atoms: C_19  and  C_21
REMARK   10  A    between atoms: C_31  and  C_35
REMARK                            x       y       z     vdW  Elec       q    Type
REMARK                         _______ _______ _______ _____ _____    ______ ____
ROOT
ATOM      1  N   UNL     1      -0.602  -2.455  -3.925  0.00  0.00    -0.275 N 
ATOM      2  C   UNL     1      -1.117  -2.783  -5.127  0.00  0.00    +0.259 C 
ATOM      3  O   UNL     1      -0.393  -3.227  -5.998  0.00  0.00    -0.269 OA
ATOM      4  H   UNL     1      -1.180  -2.101  -3.231  0.00  0.00    +0.156 HD
ENDROOT
BRANCH   1   9
ATOM      5  C   UNL     1       1.449  -2.344  -2.516  0.00  0.00    +0.091 A 
ATOM      6  C   UNL     1       2.875  -2.619  -2.515  0.00  0.00    -0.021 A 
ATOM      7  C   UNL     1       3.342  -3.119  -3.680  0.00  0.00    -0.004 A 
ATOM      8  S   UNL     1       1.922  -3.213  -4.730  0.00  0.00    -0.077 S 
ATOM      9  C   UNL     1       0.750  -2.624  -3.682  0.00  0.00    +0.087 A 
ATOM     10  C   UNL     1       4.756  -3.503  -3.991  0.00  0.00    +0.046 C 
ATOM     11  C   UNL     1       5.532  -3.600  -2.669  0.00  0.00    -0.009 C 
ATOM     12  C   UNL     1       5.244  -2.350  -1.833  0.00  0.00    +0.008 C 
ATOM     13  C   UNL     1       3.799  -2.381  -1.330  0.00  0.00    +0.037 C 
ATOM     14  C   UNL     1       7.031  -3.692  -2.961  0.00  0.00    +0.008 C 
BRANCH   5  15
ATOM     15  C   UNL     1       0.776  -1.800  -1.335  0.00  0.00    +0.342 C 
ATOM     16  O   UNL     1       0.312  -2.552  -0.499  0.00  0.00    -0.245 OA
BRANCH  15  17
ATOM     17  O   UNL     1       0.671  -0.465  -1.174  0.00  0.00    -0.461 OA
BRANCH  17  19
ATOM     18  C   UNL     1      -0.019   1.526   0.010  0.00  0.00    +0.048 C 
ATOM     19  C   UNL     1       0.002  -0.004   0.002  0.00  0.00    +0.229 C 
ENDBRANCH  17  19
ENDBRANCH  15  17
ENDBRANCH   5  15
ENDBRANCH   1   9
BRANCH   2  20
ATOM     20  C   UNL     1      -2.550  -2.604  -5.385  0.00  0.00    +0.117 C 
ATOM     21  C   UNL     1      -3.080  -2.941  -6.623  0.00  0.00    +0.070 C 
BRANCH  21  22
ATOM     22  C   UNL     1      -4.452  -2.770  -6.870  0.00  0.00    +0.130 A 
ATOM     23  C   UNL     1      -5.109  -3.070  -8.054  0.00  0.00    +0.050 A 
ATOM     24  C   UNL     1      -6.452  -2.747  -7.862  0.00  0.00    +0.050 A 
ATOM     25  C   UNL     1      -6.571  -2.263  -6.576  0.00  0.00    +0.136 A 
ATOM     26  O   UNL     1      -5.360  -2.289  -5.994  0.00  0.00    -0.455 OA
BRANCH  25  27
ATOM     27  C   UNL     1      -7.821  -1.799  -5.944  0.00  0.00    +0.017 A 
ATOM     28  C   UNL     1      -9.023  -1.833  -6.656  0.00  0.00    +0.012 A 
ATOM     29  C   UNL     1     -10.187  -1.399  -6.059  0.00  0.00    +0.016 A 
ATOM     30  C   UNL     1     -10.167  -0.929  -4.756  0.00  0.00    +0.018 A 
ATOM     31  C   UNL     1      -8.979  -0.892  -4.045  0.00  0.00    +0.016 A 
ATOM     32  C   UNL     1      -7.809  -1.329  -4.628  0.00  0.00    +0.012 A 
ATOM     33 BR   UNL     1     -11.769  -0.335  -3.945  0.00  0.00    -0.050 Br
ENDBRANCH  25  27
ENDBRANCH  21  22
BRANCH  20  34
ATOM     34  C   UNL     1      -3.402  -2.081  -4.359  0.00  0.00    +0.104 C 
ATOM     35  N   UNL     1      -4.078  -1.666  -3.546  0.00  0.00    -0.191 NA
ENDBRANCH  20  34
ENDBRANCH   2  20
TORSDOF 8
