REMARK  Name = ZINC53853031
REMARK  6 active torsions:
REMARK  status: ('A' for Active; 'I' for Inactive)
REMARK    1  A    between atoms: C_1  and  C_2
REMARK    2  A    between atoms: C_2  and  C_4
REMARK    3  A    between atoms: C_2  and  N_16
REMARK    4  A    between atoms: C_17  and  C_19
REMARK    5  A    between atoms: C_19  and  S_20
REMARK    6  A    between atoms: S_20  and  C_21
REMARK                            x       y       z     vdW  Elec       q    Type
REMARK                         _______ _______ _______ _____ _____    ______ ____
ROOT
ATOM      1  N   UNL     1       0.688  -0.476  -1.203  0.00  0.00    -0.308 N 
ATOM      2  C   UNL     1       2.031  -0.587  -1.215  0.00  0.00    +0.224 C 
ATOM      3  O   UNL     1       2.672  -0.295  -0.228  0.00  0.00    -0.275 OA
ATOM      4  H   UNL     1       0.175  -0.710  -1.993  0.00  0.00    +0.149 HD
ENDROOT
BRANCH   1   6
ATOM      5  C   UNL     1      -0.019   1.526   0.010  0.00  0.00    +0.033 C 
ATOM      6  C   UNL     1       0.002  -0.004   0.002  0.00  0.00    +0.100 C 
BRANCH   6   7
ATOM      7  C   UNL     1      -1.412  -0.526   0.013  0.00  0.00    -0.025 A 
ATOM      8  C   UNL     1      -2.140  -0.568  -1.164  0.00  0.00    +0.007 A 
ATOM      9  C   UNL     1      -3.436  -1.044  -1.164  0.00  0.00    +0.028 A 
ATOM     10  C   UNL     1      -4.011  -1.482   0.019  0.00  0.00    +0.067 A 
ATOM     11  C   UNL     1      -3.276  -1.440   1.206  0.00  0.00    +0.067 A 
ATOM     12  C   UNL     1      -1.974  -0.965   1.195  0.00  0.00    +0.033 A 
ATOM     13  N   UNL     1      -4.104  -1.937   2.210  0.00  0.00    -0.306 N 
ATOM     14  H   UNL     1      -3.868  -2.030   3.146  0.00  0.00    +0.170 HD
ATOM     15  C   UNL     1      -5.288  -2.267   1.659  0.00  0.00    +0.325 A 
ATOM     16  O   UNL     1      -6.237  -2.732   2.262  0.00  0.00    -0.247 OA
ATOM     17  N   UNL     1      -5.262  -2.004   0.338  0.00  0.00    -0.306 N 
ATOM     18  H   UNL     1      -5.991  -2.152  -0.284  0.00  0.00    +0.170 HD
ENDBRANCH   6   7
ENDBRANCH   1   6
BRANCH   2  19
ATOM     19  C   UNL     1       2.736  -1.073  -2.455  0.00  0.00    +0.174 C 
BRANCH  19  20
ATOM     20  S   UNL     1       4.525  -1.111  -2.157  0.00  0.00    -0.058 S 
BRANCH  20  21
ATOM     21  C   UNL     1       5.198  -1.692  -3.678  0.00  0.00    +0.258 A 
ATOM     22  N   UNL     1       4.497  -1.999  -4.740  0.00  0.00    -0.203 NA
ATOM     23  C   UNL     1       5.348  -2.408  -5.721  0.00  0.00    +0.110 A 
ATOM     24  C   UNL     1       5.165  -2.845  -7.034  0.00  0.00    +0.031 A 
ATOM     25  C   UNL     1       6.258  -3.198  -7.795  0.00  0.00    +0.002 A 
ATOM     26  C   UNL     1       7.536  -3.123  -7.264  0.00  0.00    +0.004 A 
ATOM     27  C   UNL     1       7.731  -2.693  -5.966  0.00  0.00    +0.048 A 
ATOM     28  C   UNL     1       6.643  -2.333  -5.188  0.00  0.00    +0.156 A 
ATOM     29  O   UNL     1       6.508  -1.880  -3.920  0.00  0.00    -0.431 OA
ENDBRANCH  20  21
ENDBRANCH  19  20
ENDBRANCH   2  19
TORSDOF 5
