REMARK  Name = ZINC04324782
REMARK  2 active torsions:
REMARK  status: ('A' for Active; 'I' for Inactive)
REMARK    1  A    between atoms: C_6  and  N_7
REMARK    2  A    between atoms: N_10  and  C_11
REMARK                            x       y       z     vdW  Elec       q    Type
REMARK                         _______ _______ _______ _____ _____    ______ ____
ROOT
ATOM      1  N   UNL     1       1.123   1.960   0.000  0.00  0.00    -0.269 N 
ATOM      2  C   UNL     1      -0.001   1.233  -0.155  0.00  0.00    +0.308 C 
ATOM      3  O   UNL     1       0.070   0.027  -0.295  0.00  0.00    -0.252 OA
ATOM      4  N   UNL     1      -1.202   1.843  -0.160  0.00  0.00    -0.269 N 
ATOM      5  H   UNL     1       1.074   2.928   0.037  0.00  0.00    +0.156 HD
ATOM      6  H   UNL     1      -1.255   2.810  -0.115  0.00  0.00    +0.156 HD
ENDROOT
BRANCH   1  12
ATOM      7  C   UNL     1       2.458   0.080   0.729  0.00  0.00    +0.027 A 
ATOM      8  C   UNL     1       3.678  -0.555   0.834  0.00  0.00    +0.048 A 
ATOM      9  C   UNL     1       4.829   0.045   0.328  0.00  0.00    +0.124 A 
ATOM     10  C   UNL     1       4.725   1.283  -0.293  0.00  0.00    -0.001 A 
ATOM     11  C   UNL     1       3.509   1.918  -0.403  0.00  0.00    +0.030 A 
ATOM     12  C   UNL     1       2.364   1.317   0.107  0.00  0.00    +0.035 A 
ATOM     13  C   UNL     1       6.119   1.669  -0.750  0.00  0.00    +0.080 C 
ATOM     14  C   UNL     1       6.872   0.321  -0.653  0.00  0.00    +0.234 C 
ATOM     15  O   UNL     1       6.119  -0.394   0.341  0.00  0.00    -0.491 OA
ENDBRANCH   1  12
BRANCH   4  16
ATOM     16  C   UNL     1      -2.376   1.079  -0.229  0.00  0.00    +0.035 A 
ATOM     17  C   UNL     1      -2.407  -0.085  -0.984  0.00  0.00    +0.027 A 
ATOM     18  C   UNL     1      -3.560  -0.839  -1.053  0.00  0.00    +0.048 A 
ATOM     19  C   UNL     1      -4.707  -0.433  -0.374  0.00  0.00    +0.124 A 
ATOM     20  C   UNL     1      -4.665   0.733   0.380  0.00  0.00    -0.001 A 
ATOM     21  C   UNL     1      -3.515   1.486   0.454  0.00  0.00    +0.030 A 
ATOM     22  C   UNL     1      -6.036   0.905   1.007  0.00  0.00    +0.080 C 
ATOM     23  C   UNL     1      -6.654  -0.500   0.817  0.00  0.00    +0.234 C 
ATOM     24  O   UNL     1      -5.939  -1.011  -0.321  0.00  0.00    -0.491 OA
ENDBRANCH   4  16
TORSDOF 2
