REMARK  Name = ZINC13090406
REMARK  6 active torsions:
REMARK  status: ('A' for Active; 'I' for Inactive)
REMARK    1  A    between atoms: C_1  and  C_2
REMARK    2  A    between atoms: C_7  and  C_8
REMARK    3  A    between atoms: C_7  and  N_52
REMARK    4  A    between atoms: C_18  and  S_20
REMARK    5  A    between atoms: S_20  and  C_21
REMARK    6  A    between atoms: C_22  and  C_27
REMARK                            x       y       z     vdW  Elec       q    Type
REMARK                         _______ _______ _______ _____ _____    ______ ____
ROOT
ATOM      1  C   UNL     1      -4.130   4.803   0.066  0.00  0.00    +0.115 A 
ATOM      2  N   UNL     1      -4.726   5.980   0.076  0.00  0.00    -0.227 NA
ATOM      3  C   UNL     1      -4.010   7.088   0.074  0.00  0.00    +0.113 A 
ATOM      4  C   UNL     1      -2.604   7.053   0.068  0.00  0.00    +0.043 A 
ATOM      5  C   UNL     1      -1.928   8.361   0.065  0.00  0.00    -0.025 A 
ATOM      6  C   UNL     1      -2.713   9.450   0.074  0.00  0.00    -0.004 A 
ATOM      7  S   UNL     1      -4.377   8.822   0.083  0.00  0.00    -0.073 S 
ATOM      8  C   UNL     1      -1.915  10.726   0.070  0.00  0.00    +0.043 C 
ATOM      9  C   UNL     1      -0.501  10.297  -0.380  0.00  0.00    +0.010 C 
ATOM     10  C   UNL     1      -0.467   8.820   0.059  0.00  0.00    +0.037 C 
ATOM     11  C   UNL     1      -2.020   5.757   0.050  0.00  0.00    +0.115 A 
ATOM     12  N   UNL     1      -2.813   4.697   0.052  0.00  0.00    -0.227 NA
ENDROOT
BRANCH   1  13
ATOM     13  C   UNL     1      -4.969   3.552   0.068  0.00  0.00    -0.001 C 
BRANCH  13  20
ATOM     14  C   UNL     1      -6.871   2.245   5.297  0.00  0.00    +0.007 C 
ATOM     15  C   UNL     1      -6.791   2.728   3.848  0.00  0.00    -0.018 C 
ATOM     16  C   UNL     1      -6.372   1.566   2.943  0.00  0.00    -0.016 C 
ATOM     17  C   UNL     1      -6.233   2.069   1.505  0.00  0.00    -0.078 C 
ATOM     18  C   UNL     1      -5.633   4.286   2.277  0.00  0.00    -0.078 C 
ATOM     19  C   UNL     1      -5.753   3.849   3.739  0.00  0.00    -0.016 C 
ATOM     20  N   UNL     1      -5.203   3.129   1.464  0.00  0.00    +0.384 N 
ATOM     21  H   UNL     1      -4.327   2.757   1.851  0.00  0.00    -0.081 HD
ENDBRANCH  13  20
ENDBRANCH   1  13
BRANCH  11  22
ATOM     22  S   UNL     1      -0.269   5.564   0.032  0.00  0.00    -0.049 S 
BRANCH  22  23
ATOM     23  C   UNL     1      -0.154   3.806   0.023  0.00  0.00    +0.117 A 
ATOM     24  C   UNL     1       1.108   3.187   0.008  0.00  0.00    +0.095 A 
ATOM     25  C   UNL     1       1.173   1.789   0.001  0.00  0.00    +0.019 A 
ATOM     26  C   UNL     1      -0.013   1.076   0.008  0.00  0.00    +0.021 A 
ATOM     27  C   UNL     1      -1.217   1.756   0.017  0.00  0.00    +0.112 A 
ATOM     28  N   UNL     1      -1.258   3.074   0.030  0.00  0.00    -0.248 NA
BRANCH  24  29
ATOM     29  C   UNL     1       2.340   3.995   0.000  0.00  0.00    +0.389 C 
ATOM     30  O   UNL     1       2.270   5.209   0.007  0.00  0.00    -0.240 OA
ATOM     31  O   UNL     1       3.543   3.389  -0.015  0.00  0.00    -0.240 OA
ENDBRANCH  24  29
ENDBRANCH  22  23
ENDBRANCH  11  22
TORSDOF 5
