REMARK  Name = ZINC63349988
REMARK  6 active torsions:
REMARK  status: ('A' for Active; 'I' for Inactive)
REMARK    1  A    between atoms: C_1  and  O_2
REMARK    2  A    between atoms: O_2  and  C_3
REMARK    3  A    between atoms: C_10  and  C_18
REMARK    4  A    between atoms: C_23  and  O_24
REMARK    5  A    between atoms: O_24  and  C_25
REMARK    6  A    between atoms: C_25  and  C_26
REMARK                            x       y       z     vdW  Elec       q    Type
REMARK                         _______ _______ _______ _____ _____    ______ ____
ROOT
ATOM      1  C   UNL     1      -1.200  -0.637   0.010  0.00  0.00    +0.121 A 
ATOM      2  C   UNL     1      -2.375   0.136   0.020  0.00  0.00    +0.047 A 
ATOM      3  C   UNL     1      -3.606  -0.417   0.033  0.00  0.00    +0.029 A 
ATOM      4  C   UNL     1      -3.753  -1.875   0.037  0.00  0.00    +0.043 A 
ATOM      5  N   UNL     1      -4.814  -2.649   0.026  0.00  0.00    -0.376 N 
ATOM      6  C   UNL     1      -4.374  -4.036   0.129  0.00  0.00    +0.128 C 
ATOM      7  C   UNL     1      -4.890  -4.905  -1.021  0.00  0.00    +0.114 C 
ATOM      8  N   UNL     1      -4.169  -6.187  -0.992  0.00  0.00    -0.307 NA
ATOM      9  C   UNL     1      -2.743  -6.055  -1.306  0.00  0.00    +0.086 C 
ATOM     10  C   UNL     1      -2.035  -5.237  -0.210  0.00  0.00    +0.048 C 
ATOM     11  C   UNL     1      -2.859  -3.987   0.008  0.00  0.00    -0.035 C 
ATOM     12  C   UNL     1      -2.514  -2.694   0.017  0.00  0.00    +0.003 A 
ATOM     13  C   UNL     1      -1.226  -1.991   0.003  0.00  0.00    +0.055 A 
ATOM     14  H   UNL     1      -4.303  -6.658  -0.110  0.00  0.00    +0.123 HD
ATOM     15  H   UNL     1      -5.734  -2.349  -0.039  0.00  0.00    +0.160 HD
ENDROOT
BRANCH   7  16
ATOM     16  C   UNL     1      -6.367  -5.149  -0.849  0.00  0.00    +0.014 A 
ATOM     17  C   UNL     1      -6.810  -6.296  -0.217  0.00  0.00    +0.024 A 
ATOM     18  C   UNL     1      -8.165  -6.520  -0.059  0.00  0.00    +0.018 A 
ATOM     19  C   UNL     1      -9.081  -5.598  -0.533  0.00  0.00    +0.019 A 
ATOM     20  C   UNL     1      -8.643  -4.450  -1.165  0.00  0.00    +0.047 A 
ATOM     21  C   UNL     1      -7.284  -4.221  -1.319  0.00  0.00    +0.126 A 
ATOM     22 BR   UNL     1      -8.768  -8.091   0.805  0.00  0.00    -0.050 Br
BRANCH  21  23
ATOM     23  O   UNL     1      -6.851  -3.090  -1.937  0.00  0.00    -0.486 OA
BRANCH  23  24
ATOM     24  C   UNL     1      -7.850  -2.178  -2.396  0.00  0.00    +0.284 C 
BRANCH  24  25
ATOM     25  C   UNL     1      -7.187  -0.992  -3.049  0.00  0.00    +0.078 A 
ATOM     26  C   UNL     1      -5.808  -0.937  -3.124  0.00  0.00    +0.027 A 
ATOM     27  C   UNL     1      -5.208   0.158  -3.727  0.00  0.00    +0.003 A 
ATOM     28  C   UNL     1      -6.021   1.160  -4.233  0.00  0.00    +0.020 A 
ATOM     29  C   UNL     1      -7.392   1.036  -4.121  0.00  0.00    +0.111 A 
ATOM     30  N   UNL     1      -7.929  -0.023  -3.546  0.00  0.00    -0.256 NA
ENDBRANCH  24  25
ENDBRANCH  23  24
ENDBRANCH  21  23
ENDBRANCH   7  16
BRANCH   1  32
ATOM     31  C   UNL     1      -0.017   1.425   0.010  0.00  0.00    +0.277 C 
ATOM     32  O   UNL     1       0.002  -0.004   0.002  0.00  0.00    -0.495 OA
ENDBRANCH   1  32
TORSDOF 5
