REMARK  Name = ZINC40161166
REMARK  8 active torsions:
REMARK  status: ('A' for Active; 'I' for Inactive)
REMARK    1  A    between atoms: C_1  and  O_2
REMARK    2  A    between atoms: O_2  and  C_3
REMARK    3  A    between atoms: C_8  and  N_9
REMARK    4  A    between atoms: N_9  and  S_10
REMARK    5  A    between atoms: S_10  and  C_13
REMARK    6  A    between atoms: C_16  and  N_19
REMARK    7  A    between atoms: N_19  and  C_20
REMARK    8  A    between atoms: N_25  and  C_28
REMARK                            x       y       z     vdW  Elec       q    Type
REMARK                         _______ _______ _______ _____ _____    ______ ____
ROOT
ATOM      1  C   UNL     1       2.335  -3.976   0.954  0.00  0.00    +0.109 A 
ATOM      2  C   UNL     1       3.480  -3.902   0.182  0.00  0.00    +0.030 A 
ATOM      3  C   UNL     1       4.707  -3.691   0.782  0.00  0.00    +0.025 A 
ATOM      4  C   UNL     1       4.789  -3.554   2.162  0.00  0.00    +0.028 A 
ATOM      5  C   UNL     1       3.636  -3.630   2.934  0.00  0.00    +0.025 A 
ATOM      6  C   UNL     1       2.413  -3.835   2.327  0.00  0.00    +0.030 A 
ENDROOT
BRANCH   1   7
ATOM      7  S   UNL     1       0.773  -4.245   0.185  0.00  0.00    +0.072 S 
ATOM      8  O   UNL     1      -0.074  -4.814   1.174  0.00  0.00    -0.150 OA
ATOM      9  O   UNL     1       1.036  -4.889  -1.055  0.00  0.00    -0.150 OA
BRANCH   7  10
ATOM     10  N   UNL     1       0.144  -2.757  -0.179  0.00  0.00    -0.213 N 
ATOM     11  H   UNL     1      -0.704  -2.482   0.204  0.00  0.00    +0.174 HD
BRANCH  10  17
ATOM     12  C   UNL     1       0.804  -0.520  -0.823  0.00  0.00    +0.142 A 
ATOM     13  C   UNL     1       1.495   0.327  -1.674  0.00  0.00    +0.047 A 
ATOM     14  C   UNL     1       2.209  -0.193  -2.738  0.00  0.00    +0.004 A 
ATOM     15  C   UNL     1       2.236  -1.558  -2.956  0.00  0.00    +0.002 A 
ATOM     16  C   UNL     1       1.550  -2.410  -2.112  0.00  0.00    +0.028 A 
ATOM     17  C   UNL     1       0.835  -1.896  -1.039  0.00  0.00    +0.090 A 
BRANCH  12  19
ATOM     18  C   UNL     1       0.114   1.410   0.383  0.00  0.00    +0.277 C 
ATOM     19  O   UNL     1       0.101  -0.010   0.223  0.00  0.00    -0.493 OA
ENDBRANCH  12  19
ENDBRANCH  10  17
ENDBRANCH   7  10
ENDBRANCH   1   7
BRANCH   4  20
ATOM     20  N   UNL     1       6.027  -3.342   2.772  0.00  0.00    -0.333 N 
ATOM     21  H   UNL     1       6.831  -3.289   2.232  0.00  0.00    +0.147 HD
BRANCH  20  22
ATOM     22  C   UNL     1       6.112  -3.198   4.228  0.00  0.00    +0.166 C 
ATOM     23  C   UNL     1       7.531  -3.540   4.725  0.00  0.00    +0.128 C 
ATOM     24  C   UNL     1       8.006  -2.250   5.357  0.00  0.00    +0.228 C 
ATOM     25  O   UNL     1       9.087  -2.080   5.879  0.00  0.00    -0.275 OA
ATOM     26  N   UNL     1       7.043  -1.326   5.249  0.00  0.00    -0.209 N 
ATOM     27  C   UNL     1       5.930  -1.751   4.631  0.00  0.00    +0.247 C 
ATOM     28  O   UNL     1       4.938  -1.084   4.426  0.00  0.00    -0.273 OA
BRANCH  26  29
ATOM     29  C   UNL     1       7.185  -0.021   5.742  0.00  0.00    +0.045 A 
ATOM     30  C   UNL     1       6.388   0.416   6.792  0.00  0.00    +0.024 A 
ATOM     31  C   UNL     1       6.530   1.702   7.277  0.00  0.00    +0.003 A 
ATOM     32  C   UNL     1       7.464   2.554   6.718  0.00  0.00    +0.020 A 
ATOM     33  C   UNL     1       8.259   2.122   5.671  0.00  0.00    +0.043 A 
ATOM     34  C   UNL     1       8.126   0.834   5.186  0.00  0.00    +0.044 A 
ATOM     35 CL   UNL     1       9.431   3.195   4.971  0.00  0.00    -0.083 Cl
ENDBRANCH  26  29
ENDBRANCH  20  22
ENDBRANCH   4  20
TORSDOF 7
