REMARK  Name = ZINC40111113
REMARK  9 active torsions:
REMARK  status: ('A' for Active; 'I' for Inactive)
REMARK    1  A    between atoms: C_3  and  C_8
REMARK    2  A    between atoms: C_5  and  O_7
REMARK    3  A    between atoms: C_10  and  C_19
REMARK    4  A    between atoms: N_14  and  C_15
REMARK    5  A    between atoms: C_15  and  C_16
REMARK    6  A    between atoms: C_16  and  O_17
REMARK    7  A    between atoms: C_19  and  C_21
REMARK    8  A    between atoms: C_24  and  S_27
REMARK    9  A    between atoms: S_27  and  N_30
REMARK                            x       y       z     vdW  Elec       q    Type
REMARK                         _______ _______ _______ _____ _____    ______ ____
ROOT
ATOM      1  C   UNL     1       2.316   2.914  -0.960  0.00  0.00    +0.145 C 
ATOM      2  C   UNL     1       3.698   2.637  -1.505  0.00  0.00    +0.076 C 
ATOM      3  C   UNL     1       4.560   3.393  -0.786  0.00  0.00    +0.249 C 
ATOM      4  C   UNL     1       3.804   4.166   0.222  0.00  0.00    +0.288 C 
ATOM      5  O   UNL     1       4.296   4.938   1.021  0.00  0.00    -0.266 OA
ATOM      6  N   UNL     1       2.490   3.888   0.124  0.00  0.00    -0.281 N 
ATOM      7  O   UNL     1       5.901   3.434  -0.961  0.00  0.00    -0.282 OA
ENDROOT
BRANCH   1  10
ATOM      8  C   UNL     1       0.815   5.335  -3.439  0.00  0.00    +0.004 A 
ATOM      9  C   UNL     1       1.618   4.801  -2.448  0.00  0.00    +0.006 A 
ATOM     10  C   UNL     1       1.439   3.493  -2.040  0.00  0.00    -0.019 A 
ATOM     11  C   UNL     1       0.457   2.715  -2.622  0.00  0.00    +0.051 A 
ATOM     12  C   UNL     1      -0.350   3.248  -3.616  0.00  0.00    +0.117 A 
ATOM     13  C   UNL     1      -0.169   4.562  -4.024  0.00  0.00    +0.045 A 
BRANCH  12  14
ATOM     14  O   UNL     1      -1.317   2.485  -4.190  0.00  0.00    -0.507 OA
ATOM     15  H   UNL     1      -2.173   2.533  -3.744  0.00  0.00    +0.292 HD
ENDBRANCH  12  14
ENDBRANCH   1  10
BRANCH   2  16
ATOM     16  C   UNL     1       4.038   1.726  -2.601  0.00  0.00    +0.195 C 
ATOM     17  O   UNL     1       4.524   2.163  -3.627  0.00  0.00    -0.287 OA
BRANCH  16  18
ATOM     18  C   UNL     1       3.792   0.275  -2.460  0.00  0.00    +0.022 A 
ATOM     19  C   UNL     1       3.339  -0.245  -1.246  0.00  0.00    +0.013 A 
ATOM     20  C   UNL     1       3.111  -1.599  -1.121  0.00  0.00    +0.029 A 
ATOM     21  C   UNL     1       3.329  -2.443  -2.196  0.00  0.00    +0.106 A 
ATOM     22  C   UNL     1       3.778  -1.935  -3.402  0.00  0.00    +0.029 A 
ATOM     23  C   UNL     1       4.005  -0.581  -3.543  0.00  0.00    +0.013 A 
BRANCH  21  24
ATOM     24  S   UNL     1       3.036  -4.172  -2.028  0.00  0.00    +0.061 S 
ATOM     25  O   UNL     1       3.835  -4.817  -3.009  0.00  0.00    -0.153 OA
ATOM     26  O   UNL     1       3.143  -4.469  -0.642  0.00  0.00    -0.153 OA
BRANCH  24  27
ATOM     27  N   UNL     1       1.458  -4.444  -2.449  0.00  0.00    -0.177 NA
ATOM     28  C   UNL     1       0.392  -4.385  -1.439  0.00  0.00    +0.109 C 
ATOM     29  C   UNL     1      -0.688  -3.410  -1.919  0.00  0.00    +0.017 C 
ATOM     30  C   UNL     1      -1.165  -3.829  -3.311  0.00  0.00    +0.003 C 
ATOM     31  C   UNL     1       0.008  -3.771  -4.293  0.00  0.00    +0.017 C 
ATOM     32  C   UNL     1       1.095  -4.744  -3.841  0.00  0.00    +0.109 C 
ENDBRANCH  24  27
ENDBRANCH  21  24
ENDBRANCH  16  18
ENDBRANCH   2  16
BRANCH   6  33
ATOM     33  C   UNL     1       1.423   4.457   0.952  0.00  0.00    +0.137 C 
BRANCH  33  34
ATOM     34  C   UNL     1       1.209   3.576   2.184  0.00  0.00    +0.175 C 
BRANCH  34  35
ATOM     35  O   UNL     1       2.380   3.608   3.002  0.00  0.00    -0.393 OA
ATOM     36  H   UNL     1       2.315   3.070   3.803  0.00  0.00    +0.209 HD
ENDBRANCH  34  35
ENDBRANCH  33  34
ENDBRANCH   6  33
TORSDOF 9
