REMARK  Name = ZINC00986547
REMARK  7 active torsions:
REMARK  status: ('A' for Active; 'I' for Inactive)
REMARK    1  A    between atoms: C_1  and  C_2
REMARK    2  A    between atoms: C_2  and  C_3
REMARK    3  A    between atoms: C_2  and  C_4
REMARK    4  A    between atoms: C_16  and  C_18
REMARK    5  A    between atoms: C_28  and  C_31
REMARK    6  A    between atoms: C_34  and  O_37
REMARK    7  A    between atoms: O_37  and  C_38
REMARK                            x       y       z     vdW  Elec       q    Type
REMARK                         _______ _______ _______ _____ _____    ______ ____
ROOT
ATOM      1  C   UNL     1      -0.012   1.065  -0.043  0.00  0.00    +0.223 C 
ATOM      2  O   UNL     1       0.076  -0.144  -0.001  0.00  0.00    -0.275 OA
ATOM      3  N   UNL     1       1.103   1.822  -0.054  0.00  0.00    -0.258 N 
ATOM      4  C   UNL     1       0.990   3.210  -0.108  0.00  0.00    +0.058 A 
ATOM      5  C   UNL     1       0.475   3.852  -1.220  0.00  0.00    +0.025 A 
ATOM      6  C   UNL     1       0.435   5.234  -1.253  0.00  0.00    +0.002 A 
ATOM      7  C   UNL     1       0.906   5.976  -0.184  0.00  0.00    +0.002 A 
ATOM      8  C   UNL     1       1.398   5.339   0.942  0.00  0.00    +0.025 A 
ATOM      9  C   UNL     1       1.416   3.956   0.985  0.00  0.00    +0.053 A 
ATOM     10  N   UNL     1       1.841   3.251   2.106  0.00  0.00    -0.316 N 
ATOM     11  C   UNL     1       2.921   2.428   2.139  0.00  0.00    +0.017 C 
ATOM     12  C   UNL     1       3.204   1.484   1.229  0.00  0.00    +0.037 C 
ATOM     13  C   UNL     1       2.400   1.180  -0.015  0.00  0.00    +0.147 C 
ATOM     14  C   UNL     1       4.343   0.657   1.387  0.00  0.00    +0.163 C 
ATOM     15  O   UNL     1       4.581  -0.179   0.538  0.00  0.00    -0.292 OA
ATOM     16  C   UNL     1       5.265   0.777   2.562  0.00  0.00    +0.088 C 
ATOM     17  C   UNL     1       4.468   1.320   3.755  0.00  0.00    +0.032 C 
ATOM     18  C   UNL     1       3.841   2.647   3.330  0.00  0.00    +0.059 C 
ATOM     19  H   UNL     1       1.329   3.354   2.924  0.00  0.00    +0.152 HD
ENDROOT
BRANCH  13  20
ATOM     20  C   UNL     1       3.193   1.629  -1.215  0.00  0.00    -0.019 A 
ATOM     21  C   UNL     1       3.657   0.696  -2.124  0.00  0.00    +0.006 A 
ATOM     22  C   UNL     1       4.380   1.107  -3.229  0.00  0.00    +0.003 A 
ATOM     23  C   UNL     1       4.649   2.449  -3.419  0.00  0.00    +0.038 A 
ATOM     24  C   UNL     1       4.190   3.383  -2.507  0.00  0.00    +0.124 A 
ATOM     25  C   UNL     1       3.461   2.971  -1.404  0.00  0.00    +0.044 A 
ATOM     26  F   UNL     1       4.453   4.695  -2.692  0.00  0.00    -0.205 F 
ENDBRANCH  13  20
BRANCH  17  27
ATOM     27  C   UNL     1       5.389   1.541   4.927  0.00  0.00    -0.043 A 
ATOM     28  C   UNL     1       6.455   2.414   4.812  0.00  0.00    +0.007 A 
ATOM     29  C   UNL     1       7.297   2.622   5.887  0.00  0.00    +0.046 A 
ATOM     30  C   UNL     1       7.080   1.946   7.079  0.00  0.00    +0.120 A 
ATOM     31  C   UNL     1       6.013   1.066   7.189  0.00  0.00    +0.046 A 
ATOM     32  C   UNL     1       5.170   0.866   6.113  0.00  0.00    +0.007 A 
BRANCH  30  33
ATOM     33  O   UNL     1       7.910   2.145   8.136  0.00  0.00    -0.495 OA
ATOM     34  C   UNL     1       8.988   3.065   7.950  0.00  0.00    +0.277 C 
ENDBRANCH  30  33
ENDBRANCH  17  27
BRANCH   1  36
ATOM     35  C   UNL     1      -2.455   0.644  -0.074  0.00  0.00    +0.017 C 
ATOM     36  C   UNL     1      -1.368   1.720  -0.090  0.00  0.00    +0.069 C 
ATOM     37  C   UNL     1      -1.536   2.633   1.126  0.00  0.00    +0.017 C 
ENDBRANCH   1  36
TORSDOF 4
