REMARK  Name = ZINC37733960
REMARK  5 active torsions:
REMARK  status: ('A' for Active; 'I' for Inactive)
REMARK    1  A    between atoms: C_1  and  C_2
REMARK    2  A    between atoms: C_4  and  C_19
REMARK    3  A    between atoms: C_7  and  N_8
REMARK    4  A    between atoms: C_16  and  C_18
REMARK    5  A    between atoms: N_20  and  O_21
REMARK                            x       y       z     vdW  Elec       q    Type
REMARK                         _______ _______ _______ _____ _____    ______ ____
ROOT
ATOM      1  C   UNL     1      -0.018   1.503   0.010  0.00  0.00    +0.046 C 
ATOM      2  C   UNL     1       0.002  -0.004   0.002  0.00  0.00    -0.028 A 
ATOM      3  C   UNL     1       0.006  -0.686  -1.195  0.00  0.00    +0.016 A 
ATOM      4  C   UNL     1       0.025  -2.081  -1.202  0.00  0.00    +0.018 A 
ATOM      5  C   UNL     1       0.040  -2.783   0.005  0.00  0.00    +0.013 A 
ATOM      6  C   UNL     1       0.036  -2.097   1.199  0.00  0.00    +0.024 A 
ATOM      7  C   UNL     1       0.023  -0.705   1.203  0.00  0.00    +0.037 A 
ENDROOT
BRANCH   7   8
ATOM      8  N   UNL     1       0.025  -0.013   2.413  0.00  0.00    -0.296 N 
ATOM      9  C   UNL     1      -1.118   0.363   3.121  0.00  0.00    +0.037 A 
ATOM     10  C   UNL     1      -2.463   0.151   2.809  0.00  0.00    +0.024 A 
ATOM     11  C   UNL     1      -3.452   0.609   3.652  0.00  0.00    +0.002 A 
ATOM     12  C   UNL     1      -3.121   1.282   4.814  0.00  0.00    +0.000 A 
ATOM     13  C   UNL     1      -1.792   1.495   5.130  0.00  0.00    +0.005 A 
ATOM     14  C   UNL     1      -0.797   1.039   4.288  0.00  0.00    -0.024 A 
ATOM     15  C   UNL     1       0.709   1.134   4.390  0.00  0.00    +0.059 C 
ATOM     16  C   UNL     1       1.227   0.420   3.130  0.00  0.00    +0.080 C 
ATOM     17  C   UNL     1       2.038   1.391   2.269  0.00  0.00    +0.029 C 
ENDBRANCH   7   8
BRANCH   4  18
ATOM     18  C   UNL     1       0.028  -2.816  -2.486  0.00  0.00    +0.162 C 
ATOM     19  N   UNL     1       0.013  -2.161  -3.610  0.00  0.00    -0.072 NA
ATOM     20  N   UNL     1       0.047  -4.200  -2.491  0.00  0.00    -0.340 N 
ATOM     21  H   UNL     1       0.058  -4.689  -1.653  0.00  0.00    +0.144 HD
ATOM     22  H   UNL     1       0.049  -4.682  -3.333  0.00  0.00    +0.144 HD
BRANCH  19  23
ATOM     23  O   UNL     1       0.017  -2.864  -4.839  0.00  0.00    -0.408 OA
ATOM     24  H   UNL     1       0.005  -2.292  -5.620  0.00  0.00    +0.328 HD
ENDBRANCH  19  23
ENDBRANCH   4  18
TORSDOF 3
