REMARK  Name = ZINC01758534
REMARK  12 active torsions:
REMARK  status: ('A' for Active; 'I' for Inactive)
REMARK    1  A    between atoms: C_1  and  C_2
REMARK    2  A    between atoms: C_2  and  C_3
REMARK    3  A    between atoms: C_3  and  C_4
REMARK    4  A    between atoms: C_4  and  C_5
REMARK    5  A    between atoms: C_8  and  N_11
REMARK    6  A    between atoms: C_12  and  N_41
REMARK    7  A    between atoms: C_13  and  C_24
REMARK    8  A    between atoms: N_26  and  C_27
REMARK    9  A    between atoms: C_28  and  C_36
REMARK   10  A    between atoms: C_36  and  O_38
REMARK   11  A    between atoms: O_38  and  C_39
REMARK   12  A    between atoms: C_39  and  C_40
REMARK                            x       y       z     vdW  Elec       q    Type
REMARK                         _______ _______ _______ _____ _____    ______ ____
ROOT
ATOM      1  N   UNL     1      -6.736  -4.028   0.045  0.00  0.00    -0.280 N 
ATOM      2  C   UNL     1      -7.108  -5.248   0.526  0.00  0.00    +0.117 A 
ATOM      3  C   UNL     1      -8.481  -5.425   0.391  0.00  0.00    +0.104 A 
ATOM      4  C   UNL     1      -9.002  -4.197  -0.232  0.00  0.00    +0.123 A 
ATOM      5  C   UNL     1      -7.834  -3.333  -0.426  0.00  0.00    +0.166 A 
ATOM      6  N   UNL     1      -7.991  -2.145  -0.969  0.00  0.00    -0.225 NA
ATOM      7  C   UNL     1      -9.212  -1.735  -1.336  0.00  0.00    +0.092 A 
ATOM      8  C   UNL     1      -9.388  -0.466  -1.917  0.00  0.00    +0.030 A 
ATOM      9  C   UNL     1     -10.632  -0.058  -2.287  0.00  0.00    +0.002 A 
ATOM     10  C   UNL     1     -11.742  -0.880  -2.099  0.00  0.00    +0.002 A 
ATOM     11  C   UNL     1     -11.611  -2.113  -1.540  0.00  0.00    +0.030 A 
ATOM     12  C   UNL     1     -10.340  -2.571  -1.144  0.00  0.00    +0.090 A 
ATOM     13  N   UNL     1     -10.199  -3.784  -0.599  0.00  0.00    -0.241 NA
ENDROOT
BRANCH   1  17
ATOM     14  C   UNL     1      -2.826  -2.585   0.015  0.00  0.00    -0.047 A 
ATOM     15  C   UNL     1      -3.464  -2.825   1.218  0.00  0.00    +0.005 A 
ATOM     16  C   UNL     1      -4.760  -3.303   1.232  0.00  0.00    +0.026 A 
ATOM     17  C   UNL     1      -5.422  -3.543   0.035  0.00  0.00    +0.050 A 
ATOM     18  C   UNL     1      -4.779  -3.301  -1.172  0.00  0.00    +0.026 A 
ATOM     19  C   UNL     1      -3.485  -2.817  -1.178  0.00  0.00    +0.005 A 
BRANCH  14  20
ATOM     20  C   UNL     1      -1.413  -2.063   0.004  0.00  0.00    +0.035 C 
BRANCH  20  21
ATOM     21  C   UNL     1      -1.433  -0.534   0.013  0.00  0.00    +0.004 C 
BRANCH  21  23
ATOM     22  C   UNL     1      -0.019   1.526   0.010  0.00  0.00    +0.004 C 
ATOM     23  C   UNL     1       0.002  -0.004   0.002  0.00  0.00    -0.003 C 
ENDBRANCH  21  23
ENDBRANCH  20  21
ENDBRANCH  14  20
ENDBRANCH   1  17
BRANCH   3  24
ATOM     24  C   UNL     1      -9.232  -6.564   0.778  0.00  0.00    +0.254 C 
ATOM     25  O   UNL     1      -9.703  -6.631   1.899  0.00  0.00    -0.270 OA
ATOM     26  N   UNL     1      -9.425  -7.572  -0.096  0.00  0.00    -0.275 N 
ATOM     27  H   UNL     1      -9.050  -7.519  -0.989  0.00  0.00    +0.156 HD
BRANCH  26  28
ATOM     28  C   UNL     1     -10.158  -8.685   0.282  0.00  0.00    +0.087 A 
ATOM     29  C   UNL     1     -10.451  -9.810  -0.474  0.00  0.00    +0.091 A 
ATOM     30  C   UNL     1     -11.245 -10.848   0.161  0.00  0.00    -0.021 A 
ATOM     31  C   UNL     1     -11.601 -10.571   1.433  0.00  0.00    -0.004 A 
ATOM     32  S   UNL     1     -10.890  -8.985   1.763  0.00  0.00    -0.077 S 
ATOM     33  C   UNL     1     -12.416 -11.432   2.348  0.00  0.00    +0.043 C 
ATOM     34  C   UNL     1     -13.107 -12.513   1.504  0.00  0.00    +0.005 C 
ATOM     35  C   UNL     1     -12.073 -13.149   0.570  0.00  0.00    +0.005 C 
ATOM     36  C   UNL     1     -11.662 -12.148  -0.511  0.00  0.00    +0.037 C 
BRANCH  29  37
ATOM     37  C   UNL     1      -9.980  -9.947  -1.854  0.00  0.00    +0.342 C 
ATOM     38  O   UNL     1      -8.903 -10.466  -2.080  0.00  0.00    -0.245 OA
BRANCH  37  39
ATOM     39  O   UNL     1     -10.739  -9.497  -2.873  0.00  0.00    -0.461 OA
BRANCH  39  40
ATOM     40  C   UNL     1     -10.218  -9.662  -4.193  0.00  0.00    +0.229 C 
ATOM     41  C   UNL     1     -11.212  -9.096  -5.209  0.00  0.00    +0.048 C 
ENDBRANCH  39  40
ENDBRANCH  37  39
ENDBRANCH  29  37
ENDBRANCH  26  28
ENDBRANCH   3  24
BRANCH   2  42
ATOM     42  N   UNL     1      -6.250  -6.170   1.066  0.00  0.00    -0.343 N 
ATOM     43  H   UNL     1      -5.302  -5.974   1.126  0.00  0.00    +0.144 HD
ATOM     44  H   UNL     1      -6.591  -7.020   1.388  0.00  0.00    +0.144 HD
ENDBRANCH   2  42
TORSDOF 10
