REMARK  Name = ZINC38918397
REMARK  9 active torsions:
REMARK  status: ('A' for Active; 'I' for Inactive)
REMARK    1  A    between atoms: C_1  and  C_2
REMARK    2  A    between atoms: C_5  and  C_33
REMARK    3  A    between atoms: C_6  and  N_8
REMARK    4  A    between atoms: N_8  and  C_9
REMARK    5  A    between atoms: C_9  and  C_10
REMARK    6  A    between atoms: C_17  and  C_22
REMARK    7  A    between atoms: C_23  and  C_25
REMARK    8  A    between atoms: C_30  and  O_31
REMARK    9  A    between atoms: O_31  and  C_32
REMARK                            x       y       z     vdW  Elec       q    Type
REMARK                         _______ _______ _______ _____ _____    ______ ____
ROOT
ATOM      1  N   UNL     1       0.137  -2.595   2.836  0.00  0.00    -0.266 N 
ATOM      2  C   UNL     1       1.155  -3.123   3.545  0.00  0.00    +0.254 C 
ATOM      3  O   UNL     1       0.925  -3.906   4.447  0.00  0.00    -0.270 OA
ENDROOT
BRANCH   1   9
ATOM      4  C   UNL     1       2.374  -1.288  -1.342  0.00  0.00    +0.044 C 
ATOM      5  C   UNL     1       1.474  -0.967  -0.177  0.00  0.00    -0.049 A 
ATOM      6  C   UNL     1       0.900   0.287  -0.072  0.00  0.00    +0.004 A 
ATOM      7  C   UNL     1       0.074   0.586   0.995  0.00  0.00    +0.005 A 
ATOM      8  C   UNL     1      -0.181  -0.367   1.962  0.00  0.00    -0.029 A 
ATOM      9  C   UNL     1       0.393  -1.628   1.859  0.00  0.00    +0.040 A 
ATOM     10  C   UNL     1       1.218  -1.927   0.783  0.00  0.00    +0.027 A 
ATOM     11  C   UNL     1      -1.081  -0.040   3.125  0.00  0.00    +0.045 C 
ENDBRANCH   1   9
BRANCH   2  12
ATOM     12  C   UNL     1       2.546  -2.752   3.227  0.00  0.00    +0.079 A 
ATOM     13  C   UNL     1       2.899  -1.407   3.082  0.00  0.00    +0.017 A 
ATOM     14  C   UNL     1       4.200  -1.067   2.786  0.00  0.00    +0.001 A 
ATOM     15  C   UNL     1       5.162  -2.051   2.629  0.00  0.00    +0.004 A 
ATOM     16  C   UNL     1       4.827  -3.384   2.769  0.00  0.00    +0.046 A 
ATOM     17  C   UNL     1       3.523  -3.744   3.074  0.00  0.00    +0.132 A 
BRANCH  17  18
ATOM     18  O   UNL     1       3.194  -5.052   3.217  0.00  0.00    -0.494 OA
ATOM     19  C   UNL     1       4.243  -6.008   3.047  0.00  0.00    +0.277 C 
ENDBRANCH  17  18
ENDBRANCH   2  12
BRANCH   1  20
ATOM     20  C   UNL     1      -1.237  -3.036   3.088  0.00  0.00    +0.131 C 
BRANCH  20  21
ATOM     21  C   UNL     1      -1.501  -4.341   2.335  0.00  0.00    +0.116 C 
ATOM     22  C   UNL     1      -2.743  -4.977   2.927  0.00  0.00    -0.003 C 
ATOM     23  C   UNL     1      -3.785  -5.220   2.082  0.00  0.00    -0.007 A 
ATOM     24  C   UNL     1      -5.021  -5.832   2.570  0.00  0.00    +0.009 A 
ATOM     25  C   UNL     1      -6.032  -6.056   1.691  0.00  0.00    +0.001 A 
ATOM     26  C   UNL     1      -5.912  -5.716   0.344  0.00  0.00    +0.005 A 
ATOM     27  C   UNL     1      -4.792  -5.146  -0.172  0.00  0.00    -0.029 A 
ATOM     28  C   UNL     1      -3.686  -4.871   0.654  0.00  0.00    +0.043 A 
ATOM     29  N   UNL     1      -2.592  -4.311   0.138  0.00  0.00    -0.284 N 
ATOM     30  C   UNL     1      -1.519  -4.028   0.856  0.00  0.00    +0.226 C 
ATOM     31  O   UNL     1      -0.549  -3.517   0.328  0.00  0.00    -0.275 OA
ATOM     32  C   UNL     1      -4.732  -4.806  -1.639  0.00  0.00    +0.045 C 
ATOM     33  H   UNL     1      -2.583  -4.102  -0.809  0.00  0.00    +0.155 HD
ENDBRANCH  20  21
ENDBRANCH   1  20
TORSDOF 5
