REMARK  Name = ZINC03145920
REMARK  10 active torsions:
REMARK  status: ('A' for Active; 'I' for Inactive)
REMARK    1  A    between atoms: C_1  and  C_2
REMARK    2  A    between atoms: C_7  and  N_8
REMARK    3  A    between atoms: N_8  and  C_9
REMARK    4  A    between atoms: C_9  and  C_10
REMARK    5  A    between atoms: N_12  and  N_13
REMARK    6  A    between atoms: C_14  and  C_15
REMARK    7  A    between atoms: C_20  and  O_21
REMARK    8  A    between atoms: O_21  and  C_22
REMARK    9  A    between atoms: C_22  and  C_24
REMARK   10  A    between atoms: C_27  and  N_30
REMARK                            x       y       z     vdW  Elec       q    Type
REMARK                         _______ _______ _______ _____ _____    ______ ____
ROOT
ATOM      1  C   UNL     1       1.258   1.902   0.036  0.00  0.00    +0.038 A 
ATOM      2  C   UNL     1       2.460   1.193   0.094  0.00  0.00    +0.028 A 
ATOM      3  C   UNL     1       3.661   1.868   0.022  0.00  0.00    +0.019 A 
ATOM      4  C   UNL     1       3.679   3.247  -0.108  0.00  0.00    +0.019 A 
ATOM      5  C   UNL     1       2.497   3.960  -0.168  0.00  0.00    +0.048 A 
ATOM      6  C   UNL     1       1.282   3.297  -0.102  0.00  0.00    +0.141 A 
ATOM      7 BR   UNL     1       5.288   0.908   0.101  0.00  0.00    -0.050 Br
ENDROOT
BRANCH   1   9
ATOM      8  N   UNL     1      -1.141   1.855   0.147  0.00  0.00    -0.188 NA
ATOM      9  C   UNL     1      -0.029   1.187   0.113  0.00  0.00    +0.142 C 
BRANCH   8  12
ATOM     10  C   UNL     1      -3.519   1.861   0.253  0.00  0.00    +0.249 C 
ATOM     11  O   UNL     1      -3.519   3.035  -0.051  0.00  0.00    -0.272 OA
ATOM     12  N   UNL     1      -2.357   1.182   0.322  0.00  0.00    -0.206 N 
ATOM     13  H   UNL     1      -2.364   0.099   0.515  0.00  0.00    +0.177 HD
BRANCH  10  14
ATOM     14  C   UNL     1      -4.820   1.162   0.554  0.00  0.00    +0.199 C 
BRANCH  14  15
ATOM     15  N   UNL     1      -5.928   2.109   0.411  0.00  0.00    -0.335 N 
ATOM     16  H   UNL     1      -5.728   3.151   0.123  0.00  0.00    +0.147 HD
BRANCH  15  23
ATOM     17  C   UNL     1      -8.020   4.014   0.111  0.00  0.00    +0.045 C 
ATOM     18  C   UNL     1      -8.292   2.585   0.506  0.00  0.00    -0.030 A 
ATOM     19  C   UNL     1      -9.589   2.166   0.734  0.00  0.00    +0.005 A 
ATOM     20  C   UNL     1      -9.839   0.855   1.096  0.00  0.00    +0.000 A 
ATOM     21  C   UNL     1      -8.794  -0.040   1.231  0.00  0.00    +0.002 A 
ATOM     22  C   UNL     1      -7.496   0.371   1.000  0.00  0.00    +0.023 A 
ATOM     23  C   UNL     1      -7.240   1.688   0.641  0.00  0.00    +0.030 A 
ENDBRANCH  15  23
ENDBRANCH  14  15
ENDBRANCH  10  14
ENDBRANCH   8  12
ENDBRANCH   1   9
BRANCH   6  24
ATOM     24  O   UNL     1       0.119   3.996  -0.165  0.00  0.00    -0.422 OA
BRANCH  24  25
ATOM     25  C   UNL     1      -0.412   4.406   1.003  0.00  0.00    +0.344 C 
ATOM     26  O   UNL     1       0.088   4.057   2.054  0.00  0.00    -0.245 OA
BRANCH  25  27
ATOM     27  C   UNL     1      -1.603   5.279   1.007  0.00  0.00    +0.060 A 
ATOM     28  C   UNL     1      -2.236   5.608  -0.194  0.00  0.00    +0.017 A 
ATOM     29  C   UNL     1      -3.350   6.420  -0.183  0.00  0.00    +0.033 A 
ATOM     30  C   UNL     1      -3.836   6.919   1.013  0.00  0.00    +0.126 A 
ATOM     31  C   UNL     1      -3.211   6.601   2.206  0.00  0.00    +0.033 A 
ATOM     32  C   UNL     1      -2.099   5.786   2.210  0.00  0.00    +0.017 A 
BRANCH  30  33
ATOM     33  N   UNL     1      -5.028   7.795   1.016  0.00  0.00    +0.056 N 
ATOM     34  O   UNL     1      -5.458   8.235   2.067  0.00  0.00    -0.126 OA
ATOM     35  O   UNL     1      -5.580   8.076  -0.033  0.00  0.00    -0.126 OA
ENDBRANCH  30  33
ENDBRANCH  25  27
ENDBRANCH  24  25
ENDBRANCH   6  24
TORSDOF 9
