REMARK  Name = ZINC00519615
REMARK  8 active torsions:
REMARK  status: ('A' for Active; 'I' for Inactive)
REMARK    1  A    between atoms: C_1  and  C_2
REMARK    2  A    between atoms: C_4  and  C_22
REMARK    3  A    between atoms: C_9  and  C_11
REMARK    4  A    between atoms: C_13  and  C_18
REMARK    5  A    between atoms: C_15  and  C_16
REMARK    6  A    between atoms: C_15  and  C_17
REMARK    7  A    between atoms: C_19  and  C_20
REMARK    8  A    between atoms: C_19  and  C_21
REMARK                            x       y       z     vdW  Elec       q    Type
REMARK                         _______ _______ _______ _____ _____    ______ ____
ROOT
ATOM      1  C   UNL     1       6.148   1.977   0.180  0.00  0.00    +0.066 C 
ATOM      2  C   UNL     1       5.599   2.399   1.518  0.00  0.00    +0.044 A 
ATOM      3  C   UNL     1       6.452   2.836   2.520  0.00  0.00    +0.046 A 
ATOM      4  C   UNL     1       5.905   3.214   3.737  0.00  0.00    +0.044 A 
ATOM      5  N   UNL     1       4.595   3.148   3.903  0.00  0.00    -0.219 NA
ATOM      6  C   UNL     1       3.808   2.727   2.925  0.00  0.00    +0.222 A 
ATOM      7  N   UNL     1       4.298   2.353   1.753  0.00  0.00    -0.219 NA
ATOM      8  N   UNL     1       2.436   2.670   3.136  0.00  0.00    -0.254 N 
ATOM      9  C   UNL     1       1.620   2.243   2.151  0.00  0.00    +0.224 C 
ATOM     10  O   UNL     1       2.084   1.909   1.082  0.00  0.00    -0.275 OA
ATOM     11  C   UNL     1       6.793   3.696   4.855  0.00  0.00    +0.066 C 
ATOM     12  H   UNL     1       2.065   2.937   3.991  0.00  0.00    +0.158 HD
ENDROOT
BRANCH   9  13
ATOM     13  C   UNL     1       0.132   2.181   2.379  0.00  0.00    +0.089 C 
ATOM     14  C   UNL     1      -0.774   2.755   1.288  0.00  0.00    +0.030 C 
ATOM     15  C   UNL     1      -0.681   1.240   1.488  0.00  0.00    -0.016 C 
ATOM     16  C   UNL     1       0.079   0.434   0.433  0.00  0.00    +0.012 C 
ATOM     17  C   UNL     1      -1.884   0.535   2.117  0.00  0.00    +0.012 C 
BRANCH  14  18
ATOM     18  C   UNL     1      -0.110   3.338   0.067  0.00  0.00    -0.023 C 
ATOM     19  C   UNL     1      -0.823   3.991  -0.817  0.00  0.00    -0.079 C 
ATOM     20  C   UNL     1      -2.307   4.160  -0.613  0.00  0.00    +0.038 C 
ATOM     21  C   UNL     1      -0.159   4.574  -2.038  0.00  0.00    +0.038 C 
ENDBRANCH  14  18
ENDBRANCH   9  13
TORSDOF 2
