REMARK  Name = ZINC06602473
REMARK  3 active torsions:
REMARK  status: ('A' for Active; 'I' for Inactive)
REMARK    1  A    between atoms: C_7  and  N_15
REMARK    2  A    between atoms: N_15  and  S_16
REMARK    3  A    between atoms: S_16  and  C_19
REMARK                            x       y       z     vdW  Elec       q    Type
REMARK                         _______ _______ _______ _____ _____    ______ ____
ROOT
ATOM      1  N   UNL     1       4.247  -1.174  -1.616  0.00  0.00    -0.178 NA
ATOM      2  H   UNL     1       3.735  -1.944  -1.908  0.00  0.00    +0.149 HD
ENDROOT
BRANCH   1   9
ATOM      3  C   UNL     1       7.378  -1.979  -4.228  0.00  0.00    +0.001 A 
ATOM      4  C   UNL     1       7.200  -1.641  -5.557  0.00  0.00    +0.004 A 
ATOM      5  C   UNL     1       6.167  -0.802  -5.923  0.00  0.00    +0.046 A 
ATOM      6  C   UNL     1       5.303  -0.296  -4.958  0.00  0.00    +0.133 A 
ATOM      7  C   UNL     1       5.484  -0.637  -3.627  0.00  0.00    +0.018 A 
ATOM      8  C   UNL     1       6.522  -1.477  -3.266  0.00  0.00    +0.009 A 
ATOM      9  C   UNL     1       4.564  -0.103  -2.564  0.00  0.00    +0.143 C 
ATOM     10  C   UNL     1       3.289   0.409  -3.178  0.00  0.00    +0.018 A 
ATOM     11  C   UNL     1       2.176   0.592  -2.377  0.00  0.00    +0.009 A 
ATOM     12  C   UNL     1       0.996   1.062  -2.923  0.00  0.00    +0.001 A 
ATOM     13  C   UNL     1       0.925   1.351  -4.273  0.00  0.00    +0.004 A 
ATOM     14  C   UNL     1       2.032   1.172  -5.076  0.00  0.00    +0.046 A 
ATOM     15  C   UNL     1       3.220   0.698  -4.531  0.00  0.00    +0.133 A 
ATOM     16  O   UNL     1       4.295   0.526  -5.337  0.00  0.00    -0.455 OA
ENDBRANCH   1   9
BRANCH   1  17
ATOM     17  S   UNL     1       4.764  -1.070  -0.046  0.00  0.00    +0.059 S 
ATOM     18  O   UNL     1       6.152  -0.769  -0.095  0.00  0.00    -0.153 OA
ATOM     19  O   UNL     1       4.255  -2.214   0.625  0.00  0.00    -0.153 OA
BRANCH  17  20
ATOM     20  C   UNL     1       3.970   0.330   0.672  0.00  0.00    +0.109 A 
ATOM     21  C   UNL     1       2.722   0.193   1.251  0.00  0.00    +0.032 A 
ATOM     22  C   UNL     1       2.096   1.289   1.814  0.00  0.00    +0.051 A 
ATOM     23  C   UNL     1       2.718   2.529   1.799  0.00  0.00    +0.162 A 
ATOM     24  C   UNL     1       3.973   2.665   1.220  0.00  0.00    +0.164 A 
ATOM     25  C   UNL     1       4.596   1.561   0.656  0.00  0.00    +0.078 A 
ATOM     26  O   UNL     1       4.605   3.870   1.202  0.00  0.00    -0.485 OA
ATOM     27  C   UNL     1       3.794   5.026   1.441  0.00  0.00    +0.270 C 
ATOM     28  C   UNL     1       2.897   4.740   2.653  0.00  0.00    +0.270 C 
ATOM     29  O   UNL     1       2.085   3.600   2.350  0.00  0.00    -0.485 OA
ENDBRANCH  17  20
ENDBRANCH   1  17
TORSDOF 3
