REMARK  Name = ZINC16615066
REMARK  10 active torsions:
REMARK  status: ('A' for Active; 'I' for Inactive)
REMARK    1  A    between atoms: C_1  and  C_2
REMARK    2  A    between atoms: C_6  and  N_9
REMARK    3  A    between atoms: C_7  and  C_8
REMARK    4  A    between atoms: C_13  and  C_15
REMARK    5  A    between atoms: C_15  and  O_16
REMARK    6  A    between atoms: O_16  and  C_17
REMARK    7  A    between atoms: C_17  and  C_19
REMARK    8  A    between atoms: C_23  and  S_25
REMARK    9  A    between atoms: S_25  and  N_28
REMARK   10  A    between atoms: N_28  and  C_29
REMARK                            x       y       z     vdW  Elec       q    Type
REMARK                         _______ _______ _______ _____ _____    ______ ____
ROOT
ATOM      1  C   UNL     1       4.034   4.047   2.272  0.00  0.00    +0.340 C 
ATOM      2  O   UNL     1       3.590   3.673   3.339  0.00  0.00    -0.245 OA
ENDROOT
BRANCH   1   3
ATOM      3  C   UNL     1       3.365   3.655   1.015  0.00  0.00    +0.061 A 
ATOM      4  C   UNL     1       3.873   4.082  -0.214  0.00  0.00    +0.015 A 
ATOM      5  C   UNL     1       3.243   3.713  -1.383  0.00  0.00    +0.003 A 
ATOM      6  C   UNL     1       2.109   2.920  -1.342  0.00  0.00    +0.029 A 
ATOM      7  C   UNL     1       1.600   2.493  -0.128  0.00  0.00    +0.109 A 
ATOM      8  C   UNL     1       2.218   2.859   1.050  0.00  0.00    +0.043 A 
BRANCH   7   9
ATOM      9  S   UNL     1       0.156   1.485  -0.087  0.00  0.00    +0.072 S 
ATOM     10  O   UNL     1      -0.492   1.652  -1.340  0.00  0.00    -0.150 OA
ATOM     11  O   UNL     1      -0.492   1.754   1.148  0.00  0.00    -0.150 OA
BRANCH   9  12
ATOM     12  N   UNL     1       0.661  -0.091  -0.022  0.00  0.00    -0.216 N 
ATOM     13  H   UNL     1       0.459  -0.696  -0.753  0.00  0.00    +0.174 HD
BRANCH  12  14
ATOM     14  C   UNL     1       1.379  -0.550   1.087  0.00  0.00    +0.048 A 
ATOM     15  C   UNL     1       2.745  -0.774   0.986  0.00  0.00    +0.027 A 
ATOM     16  C   UNL     1       3.453  -1.224   2.084  0.00  0.00    +0.040 A 
ATOM     17  C   UNL     1       2.799  -1.460   3.281  0.00  0.00    +0.124 A 
ATOM     18  C   UNL     1       1.436  -1.242   3.382  0.00  0.00    +0.040 A 
ATOM     19  C   UNL     1       0.725  -0.788   2.288  0.00  0.00    +0.027 A 
ATOM     20  F   UNL     1       3.493  -1.904   4.352  0.00  0.00    -0.205 F 
ENDBRANCH  12  14
ENDBRANCH   9  12
ENDBRANCH   7   9
ENDBRANCH   1   3
BRANCH   1  21
ATOM     21  O   UNL     1       5.138   4.819   2.235  0.00  0.00    -0.452 OA
BRANCH  21  22
ATOM     22  C   UNL     1       5.743   5.165   3.509  0.00  0.00    +0.328 C 
BRANCH  22  27
ATOM     23  N   UNL     1       9.495   7.684   5.147  0.00  0.00    -0.269 N 
ATOM     24  C   UNL     1       8.769   7.240   4.102  0.00  0.00    +0.310 C 
ATOM     25  O   UNL     1       9.093   7.533   2.968  0.00  0.00    -0.252 OA
ATOM     26  N   UNL     1       7.683   6.470   4.315  0.00  0.00    -0.237 N 
ATOM     27  C   UNL     1       6.957   6.026   3.271  0.00  0.00    +0.258 C 
ATOM     28  O   UNL     1       7.280   6.318   2.139  0.00  0.00    -0.272 OA
ATOM     29  H   UNL     1       9.193   7.518   6.053  0.00  0.00    +0.156 HD
ATOM     30  H   UNL     1       7.425   6.236   5.220  0.00  0.00    +0.159 HD
BRANCH  23  36
ATOM     31  C   UNL     1      12.894  10.865   6.729  0.00  0.00    +0.044 C 
ATOM     32  C   UNL     1      12.356   9.934   5.674  0.00  0.00    -0.046 A 
ATOM     33  C   UNL     1      13.039   9.771   4.482  0.00  0.00    +0.004 A 
ATOM     34  C   UNL     1      12.548   8.918   3.511  0.00  0.00    +0.002 A 
ATOM     35  C   UNL     1      11.373   8.225   3.728  0.00  0.00    +0.023 A 
ATOM     36  C   UNL     1      10.685   8.385   4.924  0.00  0.00    +0.038 A 
ATOM     37  C   UNL     1      11.178   9.247   5.895  0.00  0.00    -0.026 A 
ATOM     38  C   UNL     1      10.431   9.429   7.191  0.00  0.00    +0.046 C 
ENDBRANCH  23  36
ENDBRANCH  22  27
ENDBRANCH  21  22
ENDBRANCH   1  21
TORSDOF 8
