REMARK  Name = ZINC67162941
REMARK  3 active torsions:
REMARK  status: ('A' for Active; 'I' for Inactive)
REMARK    1  A    between atoms: C_3  and  C_21
REMARK    2  A    between atoms: C_5  and  N_7
REMARK    3  A    between atoms: N_23  and  C_24
REMARK                            x       y       z     vdW  Elec       q    Type
REMARK                         _______ _______ _______ _____ _____    ______ ____
ROOT
ATOM      1  C   UNL     1       0.002   1.401  -0.271  0.00  0.00    +0.003 A 
ATOM      2  C   UNL     1       1.166   2.088   0.007  0.00  0.00    +0.013 A 
ATOM      3  C   UNL     1       2.390   1.418   0.003  0.00  0.00    +0.039 A 
ATOM      4  C   UNL     1       2.432   0.053  -0.282  0.00  0.00    +0.038 A 
ATOM      5  C   UNL     1       1.258  -0.628  -0.560  0.00  0.00    +0.057 A 
ATOM      6  C   UNL     1       0.044   0.048  -0.554  0.00  0.00    +0.025 A 
ENDROOT
BRANCH   5   7
ATOM      7  N   UNL     1       1.294  -1.998  -0.847  0.00  0.00    -0.188 N 
ATOM      8  C   UNL     1       2.183  -2.470  -1.746  0.00  0.00    +0.240 C 
ATOM      9  O   UNL     1       2.919  -1.713  -2.343  0.00  0.00    -0.273 OA
ATOM     10  C   UNL     1       2.244  -3.966  -1.995  0.00  0.00    +0.093 C 
ATOM     11  C   UNL     1       1.084  -4.319  -2.934  0.00  0.00    +0.040 C 
ATOM     12  C   UNL     1       0.801  -5.788  -2.914  0.00  0.00    -0.030 C 
ATOM     13  C   UNL     1       1.201  -6.595  -1.986  0.00  0.00    -0.030 C 
ATOM     14  C   UNL     1       2.026  -6.167  -0.810  0.00  0.00    +0.040 C 
ATOM     15  C   UNL     1       2.032  -4.657  -0.642  0.00  0.00    +0.092 C 
ATOM     16  C   UNL     1       0.743  -4.170  -0.041  0.00  0.00    +0.234 C 
ATOM     17  O   UNL     1       0.019  -4.927   0.571  0.00  0.00    -0.274 OA
ATOM     18  N   UNL     1       0.411  -2.869  -0.194  0.00  0.00    -0.227 N 
ATOM     19  H   UNL     1      -0.437  -2.542   0.144  0.00  0.00    +0.173 HD
ENDBRANCH   5   7
BRANCH   3  20
ATOM     20  C   UNL     1       3.639   2.152   0.301  0.00  0.00    +0.245 C 
ATOM     21  O   UNL     1       4.704   1.566   0.297  0.00  0.00    -0.270 OA
ATOM     22  N   UNL     1       3.596   3.471   0.575  0.00  0.00    -0.300 N 
ATOM     23  H   UNL     1       2.746   3.938   0.578  0.00  0.00    +0.150 HD
BRANCH  22  24
ATOM     24  C   UNL     1       4.833   4.198   0.870  0.00  0.00    +0.159 C 
ATOM     25  C   UNL     1       4.497   5.539   1.528  0.00  0.00    +0.032 C 
ATOM     26  C   UNL     1       3.211   6.109   0.959  0.00  0.00    +0.004 C 
ATOM     27  C   UNL     1       3.312   6.515  -0.500  0.00  0.00    +0.019 C 
ATOM     28  C   UNL     1       3.507   5.289  -1.394  0.00  0.00    +0.104 C 
ATOM     29  N   UNL     1       4.945   4.985  -1.470  0.00  0.00    -0.314 N 
ATOM     30  C   UNL     1       5.585   4.465  -0.417  0.00  0.00    +0.233 C 
ATOM     31  O   UNL     1       6.769   4.212  -0.489  0.00  0.00    -0.274 OA
ATOM     32  H   UNL     1       5.432   5.160  -2.290  0.00  0.00    +0.149 HD
ENDBRANCH  22  24
ENDBRANCH   3  20
TORSDOF 3
