REMARK  Name = ZINC31934823
REMARK  7 active torsions:
REMARK  status: ('A' for Active; 'I' for Inactive)
REMARK    1  A    between atoms: C_1  and  C_2
REMARK    2  A    between atoms: C_2  and  CA_3
REMARK    3  A    between atoms: CA_3  and  C_5
REMARK    4  A    between atoms: CA_3  and  N_7
REMARK    5  A    between atoms: C_5  and  O_6
REMARK    6  A    between atoms: N_7  and  C_8
REMARK    7  A    between atoms: C_8  and  C_9
REMARK                            x       y       z     vdW  Elec       q    Type
REMARK                         _______ _______ _______ _____ _____    ______ ____
ROOT
ATOM      1  C   UNL     1      -1.760   5.809  -4.178  0.00  0.00    +0.094 A 
ATOM      2  N   UNL     1      -1.653   4.503  -4.524  0.00  0.00    -0.312 N 
ATOM      3  H   UNL     1      -1.787   4.200  -5.573  0.00  0.00    +0.170 HD
ATOM      4  C   UNL     1      -1.383   3.522  -3.631  0.00  0.00    +0.260 A 
ATOM      5  O   UNL     1      -1.290   2.352  -3.962  0.00  0.00    -0.267 OA
ATOM      6  C   UNL     1      -1.213   3.947  -2.271  0.00  0.00    +0.075 A 
ATOM      7  C   UNL     1      -0.921   3.104  -1.126  0.00  0.00    -0.023 A 
ATOM      8  C   UNL     1      -0.804   3.725   0.071  0.00  0.00    -0.004 A 
ATOM      9  S   UNL     1      -1.075   5.446  -0.270  0.00  0.00    -0.073 S 
ATOM     10  C   UNL     1      -1.344   5.329  -2.010  0.00  0.00    +0.116 A 
ATOM     11  N   UNL     1      -1.611   6.237  -2.944  0.00  0.00    -0.229 NA
ATOM     12  C   UNL     1      -0.509   3.093   1.397  0.00  0.00    +0.043 C 
ATOM     13  C   UNL     1      -0.726   1.578   1.270  0.00  0.00    +0.005 C 
ATOM     14  C   UNL     1      -0.013   1.086   0.008  0.00  0.00    +0.005 C 
ATOM     15  C   UNL     1      -0.749   1.591  -1.233  0.00  0.00    +0.037 C 
ENDROOT
BRANCH   1  16
ATOM     16  C   UNL     1      -2.063   6.816  -5.257  0.00  0.00    -0.007 C 
BRANCH  16  17
ATOM     17  N   UNL     1      -2.134   8.159  -4.667  0.00  0.00    +0.387 N 
ATOM     18  H1  UNL     1      -1.168   8.388  -4.193  0.00  0.00    -0.085 HD
ATOM     19  H2  UNL     1      -2.928   8.168  -3.904  0.00  0.00    -0.085 HD
BRANCH  17  20
ATOM     20  CA  UNL     1      -2.429   9.170  -5.691  0.00  0.00    -0.046 C 
BRANCH  20  22
ATOM     21  C   UNL     1      -0.375  10.482  -5.139  0.00  0.00    +0.002 C 
ATOM     22  C   UNL     1      -1.902  10.531  -5.232  0.00  0.00    -0.017 C 
ENDBRANCH  20  22
BRANCH  20  23
ATOM     23  C   UNL     1      -3.942   9.255  -5.904  0.00  0.00    +0.140 C 
BRANCH  23  24
ATOM     24  O   UNL     1      -4.565   9.734  -4.710  0.00  0.00    -0.397 OA
ATOM     25  H   UNL     1      -5.657   9.861  -4.673  0.00  0.00    +0.209 HD
ENDBRANCH  23  24
ENDBRANCH  20  23
ENDBRANCH  17  20
ENDBRANCH  16  17
ENDBRANCH   1  16
TORSDOF 6
