REMARK  Name = ZINC63830010
REMARK  10 active torsions:
REMARK  status: ('A' for Active; 'I' for Inactive)
REMARK    1  A    between atoms: C_1  and  C_2
REMARK    2  A    between atoms: N_8  and  C_9
REMARK    3  A    between atoms: C_9  and  C_10
REMARK    4  A    between atoms: N_12  and  C_13
REMARK    5  A    between atoms: C_13  and  C_14
REMARK    6  A    between atoms: C_14  and  C_16
REMARK    7  A    between atoms: C_14  and  C_25
REMARK    8  A    between atoms: C_19  and  N_22
REMARK    9  A    between atoms: N_22  and  C_23
REMARK   10  A    between atoms: N_22  and  C_24
REMARK                            x       y       z     vdW  Elec       q    Type
REMARK                         _______ _______ _______ _____ _____    ______ ____
ROOT
ATOM      1  C   UNL     1       6.073   2.328   2.242  0.00  0.00    +0.064 C 
ENDROOT
BRANCH   1   2
ATOM      2  C   UNL     1       6.581   1.289   3.208  0.00  0.00    -0.033 C 
ATOM      3  C   UNL     1       7.358   0.220   2.919  0.00  0.00    -0.000 A 
ATOM      4  C   UNL     1       7.940  -0.276   1.666  0.00  0.00    +0.010 A 
ATOM      5  C   UNL     1       8.691  -1.400   1.692  0.00  0.00    +0.001 A 
ATOM      6  C   UNL     1       8.927  -2.102   2.882  0.00  0.00    +0.002 A 
ATOM      7  C   UNL     1       8.426  -1.709   4.072  0.00  0.00    +0.026 A 
ATOM      8  C   UNL     1       7.622  -0.539   4.162  0.00  0.00    +0.043 A 
ATOM      9  N   UNL     1       7.031   0.038   5.180  0.00  0.00    -0.380 N 
ATOM     10  C   UNL     1       6.330   1.233   4.698  0.00  0.00    +0.145 C 
ATOM     11  H   UNL     1       7.057  -0.271   6.099  0.00  0.00    +0.160 HD
ENDBRANCH   1   2
BRANCH   1  12
ATOM     12  C   UNL     1       6.586   3.685   2.649  0.00  0.00    -0.039 A 
ATOM     13  C   UNL     1       6.271   4.197   3.895  0.00  0.00    +0.006 A 
ATOM     14  C   UNL     1       6.739   5.440   4.271  0.00  0.00    +0.023 A 
ATOM     15  C   UNL     1       7.528   6.177   3.397  0.00  0.00    +0.029 A 
ATOM     16  C   UNL     1       7.843   5.661   2.146  0.00  0.00    +0.023 A 
ATOM     17  C   UNL     1       7.376   4.414   1.778  0.00  0.00    +0.006 A 
BRANCH  15  18
ATOM     18  N   UNL     1       8.003   7.436   3.774  0.00  0.00    -0.336 N 
ATOM     19  C   UNL     1       7.670   7.979   5.093  0.00  0.00    +0.129 C 
ATOM     20  C   UNL     1       8.834   8.212   2.851  0.00  0.00    +0.129 C 
ENDBRANCH  15  18
ENDBRANCH   1  12
BRANCH   1  21
ATOM     21  C   UNL     1       4.543   2.335   2.258  0.00  0.00    +0.116 C 
BRANCH  21  24
ATOM     22  C   UNL     1       2.717   0.833   1.670  0.00  0.00    +0.230 C 
ATOM     23  O   UNL     1       1.936   1.693   2.022  0.00  0.00    -0.274 OA
ATOM     24  N   UNL     1       4.044   1.056   1.748  0.00  0.00    -0.313 N 
ATOM     25  H   UNL     1       4.668   0.369   1.467  0.00  0.00    +0.149 HD
BRANCH  22  26
ATOM     26  C   UNL     1       2.203  -0.483   1.146  0.00  0.00    +0.204 C 
BRANCH  26  33
ATOM     27  C   UNL     1      -0.019   1.526   0.010  0.00  0.00    +0.029 C 
ATOM     28  C   UNL     1       0.002  -0.004   0.002  0.00  0.00    +0.085 C 
ATOM     29  C   UNL     1      -1.457  -0.532   0.009  0.00  0.00    +0.101 C 
ATOM     30  S   UNL     1      -1.652  -0.803   1.821  0.00  0.00    -0.066 S 
ATOM     31  C   UNL     1       0.077  -0.907   2.251  0.00  0.00    +0.275 C 
ATOM     32  O   UNL     1       0.555  -1.287   3.303  0.00  0.00    -0.263 OA
ATOM     33  N   UNL     1       0.738  -0.476   1.161  0.00  0.00    -0.280 N 
ENDBRANCH  26  33
ENDBRANCH  22  26
ENDBRANCH  21  24
ENDBRANCH   1  21
TORSDOF 7
