REMARK  Name = ZINC35048029
REMARK  3 active torsions:
REMARK  status: ('A' for Active; 'I' for Inactive)
REMARK    1  A    between atoms: C_9  and  N_11
REMARK    2  A    between atoms: N_11  and  C_12
REMARK    3  A    between atoms: C_17  and  N_18
REMARK                            x       y       z     vdW  Elec       q    Type
REMARK                         _______ _______ _______ _____ _____    ______ ____
ROOT
ATOM      1  N   UNL     1       4.335  -0.076  -1.192  0.00  0.00    -0.335 N 
ATOM      2  H   UNL     1       4.333  -0.398  -2.107  0.00  0.00    +0.147 HD
ENDROOT
BRANCH   1  11
ATOM      3  C   UNL     1       0.120   2.641  -0.503  0.00  0.00    +0.000 A 
ATOM      4  C   UNL     1       1.419   3.104  -0.400  0.00  0.00    +0.000 A 
ATOM      5  C   UNL     1       2.467   2.207  -0.337  0.00  0.00    +0.006 A 
ATOM      6  C   UNL     1       2.222   0.845  -0.377  0.00  0.00    -0.024 A 
ATOM      7  C   UNL     1       0.924   0.382  -0.480  0.00  0.00    -0.042 A 
ATOM      8  C   UNL     1      -0.126   1.283  -0.543  0.00  0.00    +0.004 A 
ATOM      9  C   UNL     1       0.920  -1.131  -0.505  0.00  0.00    +0.037 C 
ATOM     10  C   UNL     1       2.371  -1.533  -0.847  0.00  0.00    +0.031 C 
ATOM     11  C   UNL     1       3.180  -0.326  -0.326  0.00  0.00    +0.101 C 
ENDBRANCH   1  11
BRANCH   1  12
ATOM     12  C   UNL     1       5.438   0.626  -0.700  0.00  0.00    +0.058 A 
ATOM     13  C   UNL     1       5.397   1.185   0.571  0.00  0.00    +0.026 A 
ATOM     14  C   UNL     1       6.489   1.878   1.054  0.00  0.00    +0.017 A 
ATOM     15  C   UNL     1       7.624   2.016   0.274  0.00  0.00    +0.020 A 
ATOM     16  C   UNL     1       7.667   1.461  -0.992  0.00  0.00    +0.050 A 
ATOM     17  C   UNL     1       6.580   0.761  -1.479  0.00  0.00    +0.148 A 
ATOM     18 BR   UNL     1       9.117   2.966   0.940  0.00  0.00    -0.050 Br
BRANCH  17  19
ATOM     19  N   UNL     1       6.630   0.161  -2.831  0.00  0.00    +0.058 N 
ATOM     20  O   UNL     1       6.114  -0.913  -3.035  0.00  0.00    -0.126 OA
ATOM     21  O   UNL     1       7.187   0.746  -3.731  0.00  0.00    -0.126 OA
ENDBRANCH  17  19
ENDBRANCH   1  12
TORSDOF 3
