REMARK  Name = ZINC07127109
REMARK  1 active torsions:
REMARK  status: ('A' for Active; 'I' for Inactive)
REMARK    1  A    between atoms: C_10  and  C_16
REMARK                            x       y       z     vdW  Elec       q    Type
REMARK                         _______ _______ _______ _____ _____    ______ ____
ROOT
ATOM      1  C   UNL     1      -1.581   4.262   4.863  0.00  0.00    +0.002 A 
ATOM      2  C   UNL     1      -0.806   4.714   3.809  0.00  0.00    +0.002 A 
ATOM      3  C   UNL     1      -0.811   4.090   2.572  0.00  0.00    +0.028 A 
ATOM      4  C   UNL     1      -1.633   2.979   2.425  0.00  0.00    +0.072 A 
ATOM      5  C   UNL     1      -2.432   2.513   3.502  0.00  0.00    +0.091 A 
ATOM      6  C   UNL     1      -2.409   3.160   4.743  0.00  0.00    +0.030 A 
ATOM      7  N   UNL     1      -3.118   1.440   3.064  0.00  0.00    -0.214 NA
ATOM      8  C   UNL     1      -2.812   1.207   1.809  0.00  0.00    +0.205 A 
ATOM      9  N   UNL     1      -1.881   2.140   1.381  0.00  0.00    -0.287 N 
ATOM     10  C   UNL     1      -1.333   2.112   0.020  0.00  0.00    +0.218 C 
ATOM     11  N   UNL     1      -2.313   1.400  -0.819  0.00  0.00    -0.337 N 
ATOM     12  C   UNL     1      -3.005   0.334  -0.308  0.00  0.00    +0.159 C 
ATOM     13  N   UNL     1      -3.286   0.249   0.980  0.00  0.00    -0.259 N 
ATOM     14  N   UNL     1      -3.413  -0.664  -1.150  0.00  0.00    -0.332 N 
ATOM     15  H   UNL     1      -3.969  -1.526  -0.752  0.00  0.00    +0.145 HD
ATOM     16  H   UNL     1      -3.890  -0.577   1.383  0.00  0.00    +0.158 HD
ATOM     17  H   UNL     1      -3.185  -0.605  -2.225  0.00  0.00    +0.145 HD
ATOM     18  H   UNL     1      -2.490   1.725  -1.855  0.00  0.00    +0.164 HD
ENDROOT
BRANCH  10  19
ATOM     19  C   UNL     1      -0.017   1.378   0.010  0.00  0.00    +0.000 A 
ATOM     20  C   UNL     1       1.169   2.089   0.002  0.00  0.00    +0.057 A 
ATOM     21  C   UNL     1       2.381   1.417  -0.013  0.00  0.00    +0.168 A 
ATOM     22  C   UNL     1       2.400   0.024  -0.021  0.00  0.00    +0.180 A 
ATOM     23  C   UNL     1       1.208  -0.682  -0.013  0.00  0.00    +0.064 A 
ATOM     24  C   UNL     1       0.002  -0.004   0.002  0.00  0.00    +0.026 A 
ATOM     25 BR   UNL     1       1.229  -2.573  -0.024  0.00  0.00    -0.046 Br
ATOM     26  O   UNL     1       3.700  -0.394  -0.035  0.00  0.00    -0.451 OA
ATOM     27  C   UNL     1       4.475   0.748   0.376  0.00  0.00    +0.466 C 
ATOM     28  O   UNL     1       3.668   1.871  -0.023  0.00  0.00    -0.453 OA
ENDBRANCH  10  19
TORSDOF 1
