REMARK  Name = ZINC06768464
REMARK  4 active torsions:
REMARK  status: ('A' for Active; 'I' for Inactive)
REMARK    1  A    between atoms: C_6  and  C_7
REMARK    2  A    between atoms: C_8  and  N_18
REMARK    3  A    between atoms: C_13  and  C_16
REMARK    4  A    between atoms: N_18  and  C_19
REMARK                            x       y       z     vdW  Elec       q    Type
REMARK                         _______ _______ _______ _____ _____    ______ ____
ROOT
ATOM      1  C   UNL     1      -1.266  -0.791   0.204  0.00  0.00    +0.088 A 
ATOM      2  C   UNL     1      -1.392  -2.106  -0.085  0.00  0.00    +0.147 A 
ATOM      3  N   UNL     1      -2.736  -2.390  -0.236  0.00  0.00    -0.199 N 
ATOM      4  C   UNL     1      -3.437  -1.245  -0.039  0.00  0.00    +0.154 A 
ATOM      5  N   UNL     1      -2.548  -0.241   0.241  0.00  0.00    -0.336 N 
ATOM      6  H   UNL     1      -2.769   0.685   0.429  0.00  0.00    +0.167 HD
ATOM      7  C   UNL     1      -4.790  -1.558  -0.197  0.00  0.00    +0.114 A 
ATOM      8  C   UNL     1      -4.861  -2.936  -0.495  0.00  0.00    +0.156 A 
ATOM      9  N   UNL     1      -3.647  -3.416  -0.516  0.00  0.00    -0.170 NA
ENDROOT
BRANCH   1  15
ATOM     10  C   UNL     1       0.967  -0.610   1.291  0.00  0.00    +0.013 A 
ATOM     11  C   UNL     1       2.147   0.069   1.510  0.00  0.00    +0.039 A 
ATOM     12  C   UNL     1       2.373   1.288   0.891  0.00  0.00    +0.123 A 
ATOM     13  C   UNL     1       1.417   1.831   0.048  0.00  0.00    +0.039 A 
ATOM     14  C   UNL     1       0.233   1.161  -0.178  0.00  0.00    +0.013 A 
ATOM     15  C   UNL     1      -0.001  -0.068   0.443  0.00  0.00    +0.002 A 
ATOM     16  F   UNL     1       3.531   1.950   1.110  0.00  0.00    -0.205 F 
ENDBRANCH   1  15
BRANCH   7  17
ATOM     17  C   UNL     1      -5.894  -0.654  -0.078  0.00  0.00    +0.104 C 
ATOM     18  N   UNL     1      -6.769   0.064   0.017  0.00  0.00    -0.191 NA
ENDBRANCH   7  17
BRANCH   2  19
ATOM     19  N   UNL     1      -0.345  -3.018  -0.210  0.00  0.00    -0.324 N 
ATOM     20  H   UNL     1       0.574  -2.711  -0.161  0.00  0.00    +0.148 HD
BRANCH  19  21
ATOM     21  C   UNL     1      -0.632  -4.440  -0.414  0.00  0.00    +0.072 C 
ATOM     22  C   UNL     1      -0.863  -5.113   0.940  0.00  0.00    +0.022 C 
ATOM     23  C   UNL     1      -1.164  -6.598   0.727  0.00  0.00    +0.002 C 
ATOM     24  C   UNL     1       0.021  -7.262   0.022  0.00  0.00    +0.000 C 
ATOM     25  C   UNL     1       0.252  -6.589  -1.332  0.00  0.00    +0.002 C 
ATOM     26  C   UNL     1       0.552  -5.104  -1.119  0.00  0.00    +0.022 C 
ENDBRANCH  19  21
ENDBRANCH   2  19
TORSDOF 4
