REMARK  Name = ZINC00876335
REMARK  10 active torsions:
REMARK  status: ('A' for Active; 'I' for Inactive)
REMARK    1  A    between atoms: C_1  and  O_2
REMARK    2  A    between atoms: O_2  and  C_3
REMARK    3  A    between atoms: C_6  and  O_31
REMARK    4  A    between atoms: C_7  and  N_9
REMARK    5  A    between atoms: C_11  and  C_22
REMARK    6  A    between atoms: C_17  and  O_20
REMARK    7  A    between atoms: O_20  and  C_21
REMARK    8  A    between atoms: N_24  and  C_25
REMARK    9  A    between atoms: C_25  and  C_26
REMARK   10  A    between atoms: O_31  and  C_32
REMARK                            x       y       z     vdW  Elec       q    Type
REMARK                         _______ _______ _______ _____ _____    ______ ____
ROOT
ATOM      1  N   UNL     1       1.396  -3.977  -2.289  0.00  0.00    -0.322 N 
ATOM      2  C   UNL     1       0.931  -4.700  -1.294  0.00  0.00    +0.212 A 
ATOM      3  C   UNL     1       1.046  -6.173  -1.304  0.00  0.00    +0.097 A 
ATOM      4  C   UNL     1       1.078  -6.813  -0.073  0.00  0.00    +0.030 A 
ATOM      5  C   UNL     1       0.995  -5.974   1.125  0.00  0.00    +0.022 A 
ATOM      6  C   UNL     1       1.284  -6.501   2.390  0.00  0.00    +0.012 A 
ATOM      7  C   UNL     1       1.206  -5.700   3.494  0.00  0.00    +0.004 A 
ATOM      8  C   UNL     1       0.841  -4.367   3.375  0.00  0.00    +0.049 A 
ATOM      9  C   UNL     1       0.548  -3.825   2.135  0.00  0.00    +0.163 A 
ATOM     10  C   UNL     1       0.620  -4.625   0.998  0.00  0.00    +0.179 A 
ATOM     11  O   UNL     1       0.336  -4.116  -0.222  0.00  0.00    -0.435 OA
ATOM     12  H   UNL     1       1.811  -4.411  -3.051  0.00  0.00    +0.169 HD
ENDROOT
BRANCH   1  17
ATOM     13  C   UNL     1      -0.033  -0.630  -1.945  0.00  0.00    +0.122 A 
ATOM     14  C   UNL     1       1.091   0.154  -2.171  0.00  0.00    +0.049 A 
ATOM     15  C   UNL     1       2.312  -0.438  -2.436  0.00  0.00    +0.051 A 
ATOM     16  C   UNL     1       2.423  -1.817  -2.477  0.00  0.00    +0.144 A 
ATOM     17  C   UNL     1       1.294  -2.614  -2.249  0.00  0.00    +0.088 A 
ATOM     18  C   UNL     1       0.065  -2.010  -1.978  0.00  0.00    +0.075 A 
BRANCH  13  20
ATOM     19  C   UNL     1      -1.259   1.389  -1.667  0.00  0.00    +0.277 C 
ATOM     20  O   UNL     1      -1.230  -0.040  -1.685  0.00  0.00    -0.495 OA
ENDBRANCH  13  20
BRANCH  16  21
ATOM     21  O   UNL     1       3.625  -2.397  -2.738  0.00  0.00    -0.493 OA
ATOM     22  C   UNL     1       4.733  -1.522  -2.961  0.00  0.00    +0.277 C 
ENDBRANCH  16  21
ENDBRANCH   1  17
BRANCH   3  23
ATOM     23  C   UNL     1       1.124  -6.928  -2.566  0.00  0.00    +0.250 C 
ATOM     24  O   UNL     1       1.157  -6.337  -3.628  0.00  0.00    -0.270 OA
ATOM     25  N   UNL     1       1.158  -8.276  -2.544  0.00  0.00    -0.304 N 
ATOM     26  H   UNL     1       1.193  -8.746  -1.696  0.00  0.00    +0.149 HD
BRANCH  25  27
ATOM     27  C   UNL     1       1.140  -9.030  -3.800  0.00  0.00    +0.179 C 
BRANCH  27  28
ATOM     28  C   UNL     1       1.185 -10.506  -3.500  0.00  0.00    +0.122 A 
ATOM     29  C   UNL     1       0.118 -11.304  -3.318  0.00  0.00    +0.046 A 
ATOM     30  C   UNL     1       0.617 -12.602  -3.063  0.00  0.00    +0.041 A 
ATOM     31  C   UNL     1       1.959 -12.520  -3.104  0.00  0.00    +0.195 A 
ATOM     32  O   UNL     1       2.297 -11.248  -3.375  0.00  0.00    -0.466 OA
ENDBRANCH  27  28
ENDBRANCH  25  27
ENDBRANCH   3  23
BRANCH   9  33
ATOM     33  O   UNL     1       0.190  -2.518   2.028  0.00  0.00    -0.491 OA
ATOM     34  C   UNL     1       0.137  -1.759   3.238  0.00  0.00    +0.277 C 
ENDBRANCH   9  33
TORSDOF 7
