REMARK  Name = ZINC39666602
REMARK  7 active torsions:
REMARK  status: ('A' for Active; 'I' for Inactive)
REMARK    1  A    between atoms: C_1  and  C_2
REMARK    2  A    between atoms: C_2  and  C_4
REMARK    3  A    between atoms: C_2  and  O_28
REMARK    4  A    between atoms: C_4  and  N_5
REMARK    5  A    between atoms: C_6  and  C_8
REMARK    6  A    between atoms: C_19  and  C_21
REMARK    7  A    between atoms: O_28  and  C_29
REMARK                            x       y       z     vdW  Elec       q    Type
REMARK                         _______ _______ _______ _____ _____    ______ ____
ROOT
ATOM      1  C   UNL     1       0.684  -5.482   1.447  0.00  0.00    +0.100 C 
ATOM      2  C   UNL     1      -0.814  -5.401   1.815  0.00  0.00    +0.121 C 
ATOM      3  N   UNL     1      -1.043  -6.559   2.711  0.00  0.00    -0.300 N 
ATOM      4  C   UNL     1       0.174  -6.619   3.555  0.00  0.00    +0.115 C 
ATOM      5  C   UNL     1       1.329  -6.282   2.591  0.00  0.00    -0.004 C 
ATOM      6  C   UNL     1       2.378  -5.432   3.303  0.00  0.00    -0.010 C 
ATOM      7  C   UNL     1       3.047  -6.268   4.398  0.00  0.00    -0.082 C 
ATOM      8  N   UNL     1       3.672  -7.453   3.800  0.00  0.00    +0.379 N 
ATOM      9  C   UNL     1       2.644  -8.311   3.198  0.00  0.00    -0.082 C 
ATOM     10  C   UNL     1       1.958  -7.562   2.052  0.00  0.00    -0.010 C 
ATOM     11  C   UNL     1      -2.115  -7.375   2.749  0.00  0.00    +0.219 C 
ATOM     12  O   UNL     1      -3.005  -7.245   1.935  0.00  0.00    -0.275 OA
ATOM     13  H   UNL     1       4.326  -7.164   3.087  0.00  0.00    -0.086 HD
ATOM     14  H   UNL     1       4.164  -7.969   4.514  0.00  0.00    -0.086 HD
ENDROOT
BRANCH  11  15
ATOM     15  C   UNL     1      -2.209  -8.448   3.802  0.00  0.00    +0.079 C 
ATOM     16  C   UNL     1      -3.154  -9.558   3.326  0.00  0.00    +0.017 C 
ATOM     17  C   UNL     1      -3.091 -10.712   4.329  0.00  0.00    +0.027 C 
ATOM     18  C   UNL     1      -3.262 -10.191   5.726  0.00  0.00    -0.031 C 
ATOM     19  C   UNL     1      -3.120  -8.949   6.060  0.00  0.00    -0.030 C 
ATOM     20  C   UNL     1      -2.769  -7.852   5.096  0.00  0.00    +0.039 C 
ENDBRANCH  11  15
BRANCH   1  22
ATOM     21  N   UNL     1       2.304  -3.854   0.527  0.00  0.00    -0.312 N 
ATOM     22  C   UNL     1       1.281  -4.101   1.370  0.00  0.00    +0.218 C 
ATOM     23  O   UNL     1       0.841  -3.210   2.066  0.00  0.00    -0.275 OA
ATOM     24  H   UNL     1       2.655  -4.567  -0.030  0.00  0.00    +0.149 HD
BRANCH  21  25
ATOM     25  C   UNL     1       2.884  -2.511   0.452  0.00  0.00    +0.148 C 
BRANCH  25  27
ATOM     26  C   UNL     1       4.626  -1.101  -0.651  0.00  0.00    +0.053 C 
ATOM     27  C   UNL     1       4.020  -2.503  -0.573  0.00  0.00    +0.187 C 
BRANCH  27  28
ATOM     28  O   UNL     1       5.027  -3.436  -0.175  0.00  0.00    -0.486 OA
BRANCH  28  29
ATOM     29  C   UNL     1       5.749  -4.024  -1.166  0.00  0.00    +0.139 A 
ATOM     30  C   UNL     1       5.560  -3.640  -2.485  0.00  0.00    +0.047 A 
ATOM     31  C   UNL     1       6.295  -4.238  -3.490  0.00  0.00    +0.004 A 
ATOM     32  C   UNL     1       7.219  -5.221  -3.182  0.00  0.00    +0.002 A 
ATOM     33  C   UNL     1       7.409  -5.606  -1.868  0.00  0.00    +0.023 A 
ATOM     34  C   UNL     1       6.681  -5.006  -0.858  0.00  0.00    +0.083 A 
ATOM     35 CL   UNL     1       6.925  -5.485   0.793  0.00  0.00    -0.080 Cl
ENDBRANCH  28  29
ENDBRANCH  27  28
ENDBRANCH  25  27
ENDBRANCH  21  25
ENDBRANCH   1  22
TORSDOF 6
