REMARK  Name = ZINC22473222
REMARK  10 active torsions:
REMARK  status: ('A' for Active; 'I' for Inactive)
REMARK    1  A    between atoms: C_4  and  C_7
REMARK    2  A    between atoms: C_7  and  N_8
REMARK    3  A    between atoms: N_8  and  C_9
REMARK    4  A    between atoms: C_9  and  C_10
REMARK    5  A    between atoms: C_10  and  C_11
REMARK    6  A    between atoms: C_11  and  N_12
REMARK    7  A    between atoms: C_15  and  O_16
REMARK    8  A    between atoms: C_24  and  C_26
REMARK    9  A    between atoms: C_27  and  C_28
REMARK   10  A    between atoms: C_32  and  N_34
REMARK                            x       y       z     vdW  Elec       q    Type
REMARK                         _______ _______ _______ _____ _____    ______ ____
ROOT
ATOM      1  N   UNL     1      -2.443   8.098   0.071  0.00  0.00    -0.294 N 
ATOM      2  C   UNL     1      -1.266   7.440   0.057  0.00  0.00    +0.240 C 
ATOM      3  O   UNL     1      -0.221   8.062   0.051  0.00  0.00    -0.271 OA
ENDROOT
BRANCH   2   4
ATOM      4  C   UNL     1      -1.247   5.976   0.048  0.00  0.00    +0.068 C 
ATOM      5  C   UNL     1      -0.070   5.317   0.033  0.00  0.00    +0.013 C 
BRANCH   5   6
ATOM      6  C   UNL     1      -0.050   3.846   0.024  0.00  0.00    -0.023 A 
ATOM      7  C   UNL     1      -1.250   3.126   0.031  0.00  0.00    +0.008 A 
ATOM      8  C   UNL     1      -1.223   1.748   0.017  0.00  0.00    +0.003 A 
ATOM      9  C   UNL     1      -0.013   1.076   0.008  0.00  0.00    +0.033 A 
ATOM     10  C   UNL     1       1.178   1.780   0.000  0.00  0.00    +0.127 A 
ATOM     11  C   UNL     1       1.168   3.159   0.008  0.00  0.00    +0.040 A 
BRANCH  10  12
ATOM     12  N   UNL     1       2.467   1.052  -0.016  0.00  0.00    +0.056 N 
ATOM     13  O   UNL     1       2.478  -0.166  -0.022  0.00  0.00    -0.126 OA
ATOM     14  O   UNL     1       3.516   1.671  -0.022  0.00  0.00    -0.126 OA
ENDBRANCH  10  12
ENDBRANCH   5   6
ENDBRANCH   2   4
BRANCH   1  15
ATOM     15  C   UNL     1      -3.701   7.348   0.078  0.00  0.00    +0.143 C 
BRANCH  15  19
ATOM     16  C   UNL     1      -4.888   6.595   4.112  0.00  0.00    +0.000 A 
ATOM     17  C   UNL     1      -5.309   7.745   3.471  0.00  0.00    +0.000 A 
ATOM     18  C   UNL     1      -4.924   7.989   2.166  0.00  0.00    +0.005 A 
ATOM     19  C   UNL     1      -4.120   7.082   1.501  0.00  0.00    -0.030 A 
ATOM     20  C   UNL     1      -3.704   5.929   2.140  0.00  0.00    +0.005 A 
ATOM     21  C   UNL     1      -4.083   5.688   3.448  0.00  0.00    +0.000 A 
ENDBRANCH  15  19
ENDBRANCH   1  15
BRANCH   1  22
ATOM     22  C   UNL     1      -2.462   9.562   0.080  0.00  0.00    +0.110 C 
BRANCH  22  23
ATOM     23  C   UNL     1      -2.483  10.081  -1.359  0.00  0.00    +0.040 C 
BRANCH  23  24
ATOM     24  C   UNL     1      -2.503  11.611  -1.350  0.00  0.00    +0.114 C 
BRANCH  24  25
ATOM     25  N   UNL     1      -2.523  12.107  -2.728  0.00  0.00    -0.384 N 
ATOM     26  C   UNL     1      -2.543  13.463  -2.971  0.00  0.00    +0.053 A 
ATOM     27  C   UNL     1      -2.546  14.366  -1.939  0.00  0.00    +0.113 A 
ATOM     28  C   UNL     1      -2.567  15.739  -2.219  0.00  0.00    +0.286 A 
ATOM     29  O   UNL     1      -2.586  16.206  -3.477  0.00  0.00    -0.425 OA
ATOM     30  C   UNL     1      -2.584  15.377  -4.543  0.00  0.00    +0.141 A 
ATOM     31  C   UNL     1      -2.557  13.987  -4.347  0.00  0.00    +0.041 A 
ATOM     32  C   UNL     1      -2.549  13.126  -5.446  0.00  0.00    +0.013 A 
ATOM     33  C   UNL     1      -2.561  13.649  -6.720  0.00  0.00    +0.001 A 
ATOM     34  C   UNL     1      -2.582  15.022  -6.913  0.00  0.00    +0.004 A 
ATOM     35  C   UNL     1      -2.603  15.883  -5.836  0.00  0.00    +0.047 A 
ATOM     36  H   UNL     1      -2.521  11.398  -3.568  0.00  0.00    +0.160 HD
BRANCH  28  37
ATOM     37  O   UNL     1      -2.570  16.531  -1.292  0.00  0.00    -0.480 OA
ATOM     38  H   UNL     1      -2.586  17.612  -1.494  0.00  0.00    +0.295 HD
ENDBRANCH  28  37
ENDBRANCH  24  25
ENDBRANCH  23  24
ENDBRANCH  22  23
ENDBRANCH   1  22
TORSDOF 10
