REMARK  Name = ZINC20181662
REMARK  11 active torsions:
REMARK  status: ('A' for Active; 'I' for Inactive)
REMARK    1  A    between atoms: C_1  and  C_2
REMARK    2  A    between atoms: C_2  and  C_3
REMARK    3  A    between atoms: C_6  and  C_9
REMARK    4  A    between atoms: N_13  and  C_21
REMARK    5  A    between atoms: C_21  and  C_22
REMARK    6  A    between atoms: N_24  and  C_25
REMARK    7  A    between atoms: C_25  and  C_26
REMARK    8  A    between atoms: C_26  and  C_27
REMARK    9  A    between atoms: C_27  and  N_28
REMARK   10  A    between atoms: C_30  and  C_37
REMARK   11  A    between atoms: C_33  and  C_36
REMARK                            x       y       z     vdW  Elec       q    Type
REMARK                         _______ _______ _______ _____ _____    ______ ____
ROOT
ATOM      1  C   UNL     1       2.670  -1.942  -9.441  0.00  0.00    +0.028 C 
ATOM      2  C   UNL     1       2.014  -1.382  -8.396  0.00  0.00    +0.076 C 
ATOM      3  C   UNL     1       0.537  -1.399  -8.300  0.00  0.00    +0.258 C 
ATOM      4  O   UNL     1      -0.133  -1.445  -9.314  0.00  0.00    -0.269 OA
ATOM      5  N   UNL     1      -0.063  -1.368  -7.104  0.00  0.00    -0.257 N 
ATOM      6  C   UNL     1       0.558  -1.402  -5.862  0.00  0.00    +0.051 A 
ATOM      7  C   UNL     1      -0.195  -1.784  -4.752  0.00  0.00    +0.024 A 
ATOM      8  C   UNL     1       0.382  -1.837  -3.500  0.00  0.00    +0.002 A 
ATOM      9  C   UNL     1       1.715  -1.510  -3.326  0.00  0.00    +0.001 A 
ATOM     10  C   UNL     1       2.475  -1.128  -4.415  0.00  0.00    +0.017 A 
ATOM     11  C   UNL     1       1.902  -1.073  -5.675  0.00  0.00    +0.034 A 
ATOM     12  S   UNL     1       2.874  -0.582  -7.067  0.00  0.00    -0.082 S 
ENDROOT
BRANCH   1  16
ATOM     13  C   UNL     1       0.549  -4.290 -12.264  0.00  0.00    -0.048 A 
ATOM     14  C   UNL     1       0.268  -4.416 -10.915  0.00  0.00    +0.004 A 
ATOM     15  C   UNL     1       0.957  -3.660  -9.990  0.00  0.00    +0.008 A 
ATOM     16  C   UNL     1       1.935  -2.756 -10.420  0.00  0.00    -0.024 A 
ATOM     17  C   UNL     1       2.209  -2.631 -11.786  0.00  0.00    +0.008 A 
ATOM     18  C   UNL     1       1.515  -3.399 -12.698  0.00  0.00    +0.004 A 
BRANCH  13  20
ATOM     19  C   UNL     1       0.541  -6.440 -13.501  0.00  0.00    +0.009 C 
ATOM     20  C   UNL     1      -0.205  -5.124 -13.268  0.00  0.00    +0.032 C 
ENDBRANCH  13  20
ENDBRANCH   1  16
BRANCH   5  21
ATOM     21  C   UNL     1      -1.525  -1.283  -7.106  0.00  0.00    +0.209 C 
BRANCH  21  22
ATOM     22  C   UNL     1      -2.109  -2.671  -7.180  0.00  0.00    +0.231 C 
ATOM     23  O   UNL     1      -1.375  -3.635  -7.227  0.00  0.00    -0.274 OA
ATOM     24  N   UNL     1      -3.446  -2.840  -7.195  0.00  0.00    -0.314 N 
ATOM     25  H   UNL     1      -4.111  -1.965  -7.153  0.00  0.00    +0.149 HD
BRANCH  24  26
ATOM     26  C   UNL     1      -4.013  -4.189  -7.268  0.00  0.00    +0.102 C 
BRANCH  26  27
ATOM     27  C   UNL     1      -5.540  -4.100  -7.270  0.00  0.00    +0.000 C 
BRANCH  27  28
ATOM     28  C   UNL     1      -6.132  -5.509  -7.346  0.00  0.00    -0.077 C 
BRANCH  28  29
ATOM     29  N   UNL     1      -7.599  -5.424  -7.348  0.00  0.00    +0.380 N 
ATOM     30  C   UNL     1      -8.201  -6.728  -7.657  0.00  0.00    -0.076 C 
ATOM     31  C   UNL     1      -9.717  -6.571  -7.794  0.00  0.00    -0.031 C 
ATOM     32  C   UNL     1     -10.289  -6.021  -6.484  0.00  0.00    +0.003 C 
ATOM     33  C   UNL     1      -9.611  -4.687  -6.161  0.00  0.00    -0.031 C 
ATOM     34  C   UNL     1      -8.098  -4.898  -6.071  0.00  0.00    -0.076 C 
ATOM     35  C   UNL     1     -10.133  -4.160  -4.823  0.00  0.00    +0.005 C 
ATOM     36  C   UNL     1     -10.346  -7.933  -8.095  0.00  0.00    +0.005 C 
ATOM     37  H   UNL     1      -7.897  -4.721  -8.140  0.00  0.00    -0.082 HD
ENDBRANCH  28  29
ENDBRANCH  27  28
ENDBRANCH  26  27
ENDBRANCH  24  26
ENDBRANCH  21  22
ENDBRANCH   5  21
TORSDOF 8
