REMARK  Name = ZINC59476465
REMARK  7 active torsions:
REMARK  status: ('A' for Active; 'I' for Inactive)
REMARK    1  A    between atoms: C_1  and  C_2
REMARK    2  A    between atoms: C_2  and  C_3
REMARK    3  A    between atoms: C_7  and  N_12
REMARK    4  A    between atoms: C_13  and  C_14
REMARK    5  A    between atoms: C_16  and  C_22
REMARK    6  A    between atoms: C_19  and  O_20
REMARK    7  A    between atoms: C_22  and  C_23
REMARK                            x       y       z     vdW  Elec       q    Type
REMARK                         _______ _______ _______ _____ _____    ______ ____
ROOT
ATOM      1  C   UNL     1       5.774  -3.781  -6.647  0.00  0.00    +0.036 A 
ATOM      2  C   UNL     1       5.782  -4.923  -7.455  0.00  0.00    +0.017 A 
ATOM      3  C   UNL     1       6.940  -5.300  -8.101  0.00  0.00    -0.041 A 
ATOM      4  C   UNL     1       8.098  -4.553  -7.953  0.00  0.00    +0.022 A 
ATOM      5  C   UNL     1       8.104  -3.424  -7.157  0.00  0.00    +0.056 A 
ATOM      6  C   UNL     1       6.947  -3.025  -6.505  0.00  0.00    +0.138 A 
ATOM      7  I   UNL     1       9.864  -2.306  -6.943  0.00  0.00    -0.040 I 
ENDROOT
BRANCH   1   9
ATOM      8  N   UNL     1       4.538  -2.305  -5.208  0.00  0.00    -0.255 NA
ATOM      9  C   UNL     1       4.543  -3.373  -5.956  0.00  0.00    +0.123 C 
BRANCH   8  14
ATOM     10  C   UNL     1       0.707  -0.490  -1.238  0.00  0.00    +0.196 A 
ATOM     11  N   UNL     1       1.982  -0.725  -1.323  0.00  0.00    -0.213 NA
ATOM     12  C   UNL     1       2.267  -1.149  -2.584  0.00  0.00    +0.112 A 
ATOM     13  C   UNL     1       3.441  -1.534  -3.229  0.00  0.00    +0.059 A 
ATOM     14  C   UNL     1       3.392  -1.925  -4.564  0.00  0.00    +0.066 A 
ATOM     15  C   UNL     1       2.170  -1.930  -5.250  0.00  0.00    +0.031 A 
ATOM     16  C   UNL     1       1.020  -1.552  -4.617  0.00  0.00    +0.050 A 
ATOM     17  C   UNL     1       1.051  -1.159  -3.286  0.00  0.00    +0.155 A 
ATOM     18  O   UNL     1       0.107  -0.748  -2.410  0.00  0.00    -0.440 OA
BRANCH  10  20
ATOM     19  C   UNL     1      -0.019   1.526   0.010  0.00  0.00    +0.013 C 
ATOM     20  C   UNL     1       0.002  -0.004   0.002  0.00  0.00    +0.093 C 
ENDBRANCH  10  20
ENDBRANCH   8  14
ENDBRANCH   1   9
BRANCH   6  21
ATOM     21  O   UNL     1       6.951  -1.912  -5.729  0.00  0.00    -0.505 OA
ATOM     22  H   UNL     1       7.183  -2.078  -4.805  0.00  0.00    +0.292 HD
ENDBRANCH   6  21
BRANCH   3  23
ATOM     23  C   UNL     1       6.947  -6.530  -8.970  0.00  0.00    +0.071 C 
BRANCH  23  24
ATOM     24  C   UNL     1       6.582  -6.150 -10.382  0.00  0.00    -0.025 A 
ATOM     25  C   UNL     1       5.271  -6.252 -10.809  0.00  0.00    +0.005 A 
ATOM     26  C   UNL     1       4.936  -5.903 -12.103  0.00  0.00    +0.000 A 
ATOM     27  C   UNL     1       5.912  -5.451 -12.973  0.00  0.00    +0.001 A 
ATOM     28  C   UNL     1       7.223  -5.349 -12.547  0.00  0.00    +0.020 A 
ATOM     29  C   UNL     1       7.558  -5.693 -11.250  0.00  0.00    +0.044 A 
ATOM     30 CL   UNL     1       9.203  -5.558 -10.713  0.00  0.00    -0.083 Cl
ENDBRANCH  23  24
ENDBRANCH   3  23
TORSDOF 6
