REMARK  Name = ZINC63908337
REMARK  6 active torsions:
REMARK  status: ('A' for Active; 'I' for Inactive)
REMARK    1  A    between atoms: C_1  and  O_2
REMARK    2  A    between atoms: O_2  and  C_3
REMARK    3  A    between atoms: C_6  and  C_10
REMARK    4  A    between atoms: C_16  and  C_18
REMARK    5  A    between atoms: C_18  and  C_19
REMARK    6  A    between atoms: C_19  and  C_20
REMARK                            x       y       z     vdW  Elec       q    Type
REMARK                         _______ _______ _______ _____ _____    ______ ____
ROOT
ATOM      1  C   UNL     1       2.578  -2.541   4.296  0.00  0.00    +0.080 A 
ATOM      2  C   UNL     1       2.646  -3.905   4.352  0.00  0.00    +0.076 A 
ATOM      3  S   UNL     1       3.546  -4.130   5.881  0.00  0.00    -0.060 S 
ATOM      4  C   UNL     1       3.737  -2.399   6.284  0.00  0.00    +0.165 A 
ATOM      5  N   UNL     1       3.131  -1.823   5.262  0.00  0.00    -0.225 NA
ATOM      6  N   UNL     1       4.363  -1.815   7.378  0.00  0.00    -0.265 N 
ATOM      7  C   UNL     1       4.935  -2.590   8.320  0.00  0.00    +0.219 C 
ATOM      8  O   UNL     1       4.904  -3.798   8.213  0.00  0.00    -0.275 OA
ATOM      9  H   UNL     1       4.388  -0.849   7.464  0.00  0.00    +0.157 HD
ENDROOT
BRANCH   1  13
ATOM     10  C   UNL     1       0.626  -0.619   1.042  0.00  0.00    +0.134 A 
ATOM     11  C   UNL     1       1.202   0.141   2.050  0.00  0.00    +0.047 A 
ATOM     12  C   UNL     1       1.835  -0.479   3.107  0.00  0.00    +0.013 A 
ATOM     13  C   UNL     1       1.897  -1.871   3.162  0.00  0.00    +0.002 A 
ATOM     14  C   UNL     1       1.318  -2.631   2.147  0.00  0.00    +0.029 A 
ATOM     15  C   UNL     1       0.681  -2.005   1.095  0.00  0.00    +0.060 A 
ATOM     16 BR   UNL     1      -0.112  -3.036  -0.278  0.00  0.00    -0.046 Br
BRANCH  10  18
ATOM     17  C   UNL     1      -0.017   1.425   0.010  0.00  0.00    +0.277 C 
ATOM     18  O   UNL     1       0.002  -0.004   0.002  0.00  0.00    -0.494 OA
ENDBRANCH  10  18
ENDBRANCH   1  13
BRANCH   7  19
ATOM     19  C   UNL     1       5.613  -1.957   9.508  0.00  0.00    +0.100 C 
BRANCH  19  20
ATOM     20  C   UNL     1       6.175  -3.051  10.418  0.00  0.00    +0.042 C 
BRANCH  20  21
ATOM     21  C   UNL     1       6.854  -2.417  11.605  0.00  0.00    -0.041 C 
ATOM     22  C   UNL     1       6.314  -2.190  12.824  0.00  0.00    -0.001 A 
ATOM     23  C   UNL     1       4.985  -2.454  13.388  0.00  0.00    +0.010 A 
ATOM     24  C   UNL     1       4.736  -2.106  14.671  0.00  0.00    +0.001 A 
ATOM     25  C   UNL     1       5.713  -1.500  15.473  0.00  0.00    +0.002 A 
ATOM     26  C   UNL     1       6.956  -1.226  15.026  0.00  0.00    +0.026 A 
ATOM     27  C   UNL     1       7.328  -1.550  13.692  0.00  0.00    +0.043 A 
ATOM     28  N   UNL     1       8.451  -1.388  13.035  0.00  0.00    -0.380 N 
ATOM     29  C   UNL     1       8.277  -1.913  11.676  0.00  0.00    +0.144 C 
ATOM     30  H   UNL     1       9.262  -0.991  13.389  0.00  0.00    +0.160 HD
ENDBRANCH  20  21
ENDBRANCH  19  20
ENDBRANCH   7  19
TORSDOF 5
