REMARK  Name = ZINC58279740
REMARK  7 active torsions:
REMARK  status: ('A' for Active; 'I' for Inactive)
REMARK    1  A    between atoms: C_1  and  C_2
REMARK    2  A    between atoms: C_4  and  C_29
REMARK    3  A    between atoms: C_6  and  C_8
REMARK    4  A    between atoms: C_8  and  C_12
REMARK    5  A    between atoms: N_14  and  C_15
REMARK    6  A    between atoms: C_19  and  C_21
REMARK    7  A    between atoms: C_21  and  C_28
REMARK                            x       y       z     vdW  Elec       q    Type
REMARK                         _______ _______ _______ _____ _____    ______ ____
ROOT
ATOM      1  C   UNL     1      -1.336  -3.533   2.055  0.00  0.00    +0.228 C 
ATOM      2  O   UNL     1      -2.377  -3.181   2.566  0.00  0.00    -0.275 OA
ATOM      3  N   UNL     1      -1.188  -4.804   1.631  0.00  0.00    -0.285 N 
ATOM      4  H   UNL     1      -0.328  -5.109   1.303  0.00  0.00    +0.155 HD
ENDROOT
BRANCH   3   5
ATOM      5  C   UNL     1      -2.277  -5.683   1.664  0.00  0.00    +0.034 A 
ATOM      6  C   UNL     1      -3.164  -5.651   2.732  0.00  0.00    +0.023 A 
ATOM      7  C   UNL     1      -4.237  -6.520   2.762  0.00  0.00    +0.002 A 
ATOM      8  C   UNL     1      -4.428  -7.421   1.731  0.00  0.00    +0.006 A 
ATOM      9  C   UNL     1      -3.546  -7.456   0.667  0.00  0.00    -0.014 A 
ATOM     10  C   UNL     1      -2.474  -6.585   0.627  0.00  0.00    +0.029 A 
BRANCH   9  11
ATOM     11  C   UNL     1      -3.757  -8.440  -0.455  0.00  0.00    +0.135 C 
ATOM     12  C   UNL     1      -4.081  -7.715  -1.746  0.00  0.00    +0.248 C 
ATOM     13  O   UNL     1      -3.377  -6.926  -2.339  0.00  0.00    -0.273 OA
ATOM     14  N   UNL     1      -5.312  -8.133  -2.100  0.00  0.00    -0.238 N 
ATOM     15  C   UNL     1      -5.807  -9.011  -1.220  0.00  0.00    +0.307 C 
ATOM     16  O   UNL     1      -6.902  -9.528  -1.325  0.00  0.00    -0.252 OA
ATOM     17  N   UNL     1      -4.957  -9.258  -0.207  0.00  0.00    -0.282 N 
ATOM     18  C   UNL     1      -2.525  -9.330  -0.627  0.00  0.00    +0.047 C 
ATOM     19  H   UNL     1      -5.782  -7.833  -2.894  0.00  0.00    +0.159 HD
ATOM     20  H   UNL     1      -5.106  -9.858   0.540  0.00  0.00    +0.152 HD
ENDBRANCH   9  11
ENDBRANCH   3   5
BRANCH   1  21
ATOM     21  C   UNL     1      -0.206  -2.549   1.893  0.00  0.00    +0.072 C 
ATOM     22  C   UNL     1       0.977  -2.805   2.841  0.00  0.00    +0.021 C 
ATOM     23  C   UNL     1       0.260  -1.896   3.853  0.00  0.00    +0.003 C 
ATOM     24  C   UNL     1      -0.425  -1.229   2.649  0.00  0.00    +0.021 C 
BRANCH  21  30
ATOM     25  C   UNL     1       3.076  -3.291  -1.813  0.00  0.00    +0.044 C 
ATOM     26  C   UNL     1       1.774  -2.714  -1.318  0.00  0.00    -0.050 A 
ATOM     27  C   UNL     1       0.956  -2.012  -2.183  0.00  0.00    +0.006 A 
ATOM     28  C   UNL     1      -0.238  -1.483  -1.729  0.00  0.00    -0.050 A 
ATOM     29  C   UNL     1      -0.614  -1.657  -0.410  0.00  0.00    +0.008 A 
ATOM     30  C   UNL     1       0.204  -2.360   0.455  0.00  0.00    -0.032 A 
ATOM     31  C   UNL     1       1.396  -2.893  -0.000  0.00  0.00    +0.008 A 
ATOM     32  C   UNL     1      -1.129  -0.716  -2.672  0.00  0.00    +0.044 C 
ENDBRANCH  21  30
ENDBRANCH   1  21
TORSDOF 4
