REMARK  Name = ZINC64622812
REMARK  6 active torsions:
REMARK  status: ('A' for Active; 'I' for Inactive)
REMARK    1  A    between atoms: C_1  and  C_2
REMARK    2  A    between atoms: C_2  and  O_3
REMARK    3  A    between atoms: O_3  and  C_4
REMARK    4  A    between atoms: C_4  and  C_6
REMARK    5  A    between atoms: C_11  and  N_12
REMARK    6  A    between atoms: C_28  and  C_30
REMARK                            x       y       z     vdW  Elec       q    Type
REMARK                         _______ _______ _______ _____ _____    ______ ____
ROOT
ATOM      1  N   UNL     1      -1.510  -4.716   0.067  0.00  0.00    -0.269 N 
ATOM      2  C   UNL     1      -1.890  -5.969  -0.253  0.00  0.00    +0.307 C 
ATOM      3  O   UNL     1      -3.051  -6.201  -0.530  0.00  0.00    -0.252 OA
ATOM      4  N   UNL     1      -0.982  -6.965  -0.267  0.00  0.00    -0.276 N 
ATOM      5  C   UNL     1       0.434  -6.659  -0.042  0.00  0.00    +0.114 C 
ATOM      6  C   UNL     1       0.947  -7.465   1.166  0.00  0.00    +0.052 C 
ATOM      7  C   UNL     1       0.441  -8.875   0.991  0.00  0.00    -0.035 C 
ATOM      8  C   UNL     1       1.071 -10.043   1.015  0.00  0.00    -0.001 A 
ATOM      9  C   UNL     1       2.465 -10.399   1.326  0.00  0.00    +0.010 A 
ATOM     10  C   UNL     1       2.783 -11.717   1.232  0.00  0.00    +0.001 A 
ATOM     11  C   UNL     1       1.864 -12.705   0.864  0.00  0.00    +0.002 A 
ATOM     12  C   UNL     1       0.561 -12.470   0.568  0.00  0.00    +0.026 A 
ATOM     13  C   UNL     1       0.105 -11.121   0.640  0.00  0.00    +0.043 A 
ATOM     14  N   UNL     1      -1.077 -10.621   0.436  0.00  0.00    -0.375 N 
ATOM     15  C   UNL     1      -1.025  -9.185   0.713  0.00  0.00    +0.131 C 
ATOM     16  C   UNL     1      -1.423  -8.349  -0.502  0.00  0.00    +0.137 C 
ATOM     17  H   UNL     1      -0.572  -4.515   0.208  0.00  0.00    +0.156 HD
ATOM     18  H   UNL     1      -1.861 -11.116   0.148  0.00  0.00    +0.160 HD
ENDROOT
BRANCH  16  19
ATOM     19  C   UNL     1      -0.753  -8.896  -1.736  0.00  0.00    +0.010 A 
ATOM     20  C   UNL     1       0.626  -8.889  -1.834  0.00  0.00    +0.008 A 
ATOM     21  C   UNL     1       1.241  -9.391  -2.965  0.00  0.00    +0.000 A 
ATOM     22  C   UNL     1       0.479  -9.901  -4.000  0.00  0.00    +0.003 A 
ATOM     23  C   UNL     1      -0.900  -9.910  -3.904  0.00  0.00    +0.039 A 
ATOM     24  C   UNL     1      -1.517  -9.412  -2.768  0.00  0.00    +0.128 A 
ATOM     25  F   UNL     1      -2.865  -9.424  -2.671  0.00  0.00    -0.205 F 
ENDBRANCH  16  19
BRANCH   1  31
ATOM     26  C   UNL     1      -2.160  -2.395  -0.181  0.00  0.00    +0.080 A 
ATOM     27  C   UNL     1      -3.130  -1.397  -0.051  0.00  0.00    +0.017 A 
ATOM     28  C   UNL     1      -4.374  -1.709   0.451  0.00  0.00    +0.001 A 
ATOM     29  C   UNL     1      -4.670  -3.009   0.829  0.00  0.00    +0.002 A 
ATOM     30  C   UNL     1      -3.723  -4.006   0.707  0.00  0.00    +0.024 A 
ATOM     31  C   UNL     1      -2.466  -3.712   0.197  0.00  0.00    +0.049 A 
BRANCH  26  32
ATOM     32  C   UNL     1      -0.827  -2.068  -0.718  0.00  0.00    +0.341 C 
ATOM     33  O   UNL     1       0.039  -2.920  -0.754  0.00  0.00    -0.245 OA
BRANCH  32  34
ATOM     34  O   UNL     1      -0.569  -0.825  -1.169  0.00  0.00    -0.461 OA
BRANCH  34  36
ATOM     35  C   UNL     1       0.849   0.876  -2.137  0.00  0.00    +0.048 C 
ATOM     36  C   UNL     1       0.745  -0.578  -1.675  0.00  0.00    +0.229 C 
ENDBRANCH  34  36
ENDBRANCH  32  34
ENDBRANCH  26  32
ENDBRANCH   1  31
TORSDOF 5
