REMARK  Name = ZINC20214534
REMARK  12 active torsions:
REMARK  status: ('A' for Active; 'I' for Inactive)
REMARK    1  A    between atoms: C_1  and  C_2
REMARK    2  A    between atoms: C_2  and  O_3
REMARK    3  A    between atoms: O_3  and  C_4
REMARK    4  A    between atoms: C_4  and  C_6
REMARK    5  A    between atoms: C_7  and  C_24
REMARK    6  A    between atoms: C_12  and  C_14
REMARK    7  A    between atoms: C_17  and  O_20
REMARK    8  A    between atoms: O_20  and  C_21
REMARK    9  A    between atoms: C_21  and  C_22
REMARK   10  A    between atoms: C_21  and  C_23
REMARK   11  A    between atoms: C_24  and  N_25
REMARK   12  A    between atoms: C_28  and  N_31
REMARK                            x       y       z     vdW  Elec       q    Type
REMARK                         _______ _______ _______ _____ _____    ______ ____
ROOT
ATOM      1  C   UNL     1      -3.006   3.959   1.393  0.00  0.00    +0.079 C 
ATOM      2  C   UNL     1      -4.310   3.664   1.584  0.00  0.00    +0.038 C 
ATOM      3  N   UNL     1      -5.075   3.164   0.570  0.00  0.00    -0.271 N 
ATOM      4  C   UNL     1      -4.612   2.929  -0.664  0.00  0.00    +0.304 C 
ATOM      5  O   UNL     1      -5.370   2.482  -1.502  0.00  0.00    -0.252 OA
ATOM      6  N   UNL     1      -3.331   3.173  -1.008  0.00  0.00    -0.288 N 
ATOM      7  C   UNL     1      -2.422   3.715   0.016  0.00  0.00    +0.144 C 
ATOM      8  H   UNL     1      -6.136   2.931   0.745  0.00  0.00    +0.156 HD
ATOM      9  H   UNL     1      -2.960   2.977  -2.024  0.00  0.00    +0.151 HD
ENDROOT
BRANCH   7  10
ATOM     10  C   UNL     1      -1.267   2.759   0.164  0.00  0.00    -0.022 A 
ATOM     11  C   UNL     1      -1.505   1.402   0.282  0.00  0.00    +0.009 A 
ATOM     12  C   UNL     1      -0.448   0.524   0.423  0.00  0.00    +0.046 A 
ATOM     13  C   UNL     1       0.854   1.003   0.436  0.00  0.00    +0.121 A 
ATOM     14  C   UNL     1       1.091   2.365   0.312  0.00  0.00    +0.046 A 
ATOM     15  C   UNL     1       0.030   3.239   0.177  0.00  0.00    +0.009 A 
BRANCH  13  16
ATOM     16  O   UNL     1       1.896   0.141   0.568  0.00  0.00    -0.489 OA
BRANCH  16  17
ATOM     17  C   UNL     1       1.588  -1.254   0.567  0.00  0.00    +0.167 C 
ATOM     18  C   UNL     1       2.791  -2.042   0.044  0.00  0.00    +0.051 C 
ATOM     19  C   UNL     1       1.262  -1.706   1.992  0.00  0.00    +0.051 C 
ENDBRANCH  16  17
ENDBRANCH  13  16
ENDBRANCH   7  10
BRANCH   1  20
ATOM     20  C   UNL     1      -2.212   4.477   2.443  0.00  0.00    +0.339 C 
ATOM     21  O   UNL     1      -2.666   4.553   3.569  0.00  0.00    -0.245 OA
BRANCH  20  22
ATOM     22  O   UNL     1      -0.950   4.887   2.196  0.00  0.00    -0.462 OA
BRANCH  22  24
ATOM     23  C   UNL     1       1.191   5.810   2.831  0.00  0.00    +0.048 C 
ATOM     24  C   UNL     1      -0.205   5.399   3.303  0.00  0.00    +0.229 C 
ENDBRANCH  22  24
ENDBRANCH  20  22
ENDBRANCH   1  20
BRANCH   2  25
ATOM     25  C   UNL     1      -4.931   3.893   2.938  0.00  0.00    +0.135 C 
BRANCH  25  26
ATOM     26  N   UNL     1      -4.667   2.732   3.799  0.00  0.00    -0.297 NA
ATOM     27  C   UNL     1      -5.351   1.535   3.293  0.00  0.00    +0.083 C 
ATOM     28  C   UNL     1      -4.939   0.320   4.127  0.00  0.00    +0.000 C 
ATOM     29  C   UNL     1      -5.312   0.562   5.592  0.00  0.00    -0.066 C 
ATOM     30  C   UNL     1      -4.626   1.840   6.081  0.00  0.00    +0.000 C 
ATOM     31  C   UNL     1      -5.047   3.012   5.190  0.00  0.00    +0.083 C 
BRANCH  29  32
ATOM     32  N   UNL     1      -4.867  -0.576   6.408  0.00  0.00    +0.382 N 
ATOM     33  C   UNL     1      -3.416  -0.768   6.296  0.00  0.00    -0.078 C 
ATOM     34  C   UNL     1      -2.969  -1.864   7.267  0.00  0.00    -0.019 C 
ATOM     35  C   UNL     1      -3.702  -3.166   6.932  0.00  0.00    -0.004 C 
ATOM     36  C   UNL     1      -5.212  -2.926   7.008  0.00  0.00    -0.019 C 
ATOM     37  C   UNL     1      -5.594  -1.800   6.045  0.00  0.00    -0.078 C 
ATOM     38  H   UNL     1      -5.096  -0.350   7.460  0.00  0.00    -0.081 HD
ENDBRANCH  29  32
ENDBRANCH  25  26
ENDBRANCH   2  25
TORSDOF 9
