REMARK  Name = ZINC01791581
REMARK  17 active torsions:
REMARK  status: ('A' for Active; 'I' for Inactive)
REMARK    1  A    between atoms: C_1  and  C_2
REMARK    2  A    between atoms: C_2  and  C_3
REMARK    3  A    between atoms: C_3  and  C_4
REMARK    4  A    between atoms: C_7  and  O_10
REMARK    5  A    between atoms: O_10  and  C_11
REMARK    6  A    between atoms: C_17  and  O_35
REMARK    7  A    between atoms: C_18  and  C_26
REMARK    8  A    between atoms: C_21  and  C_22
REMARK    9  A    between atoms: C_26  and  N_70
REMARK   10  A    between atoms: C_27  and  C_28
REMARK   11  A    between atoms: C_27  and  N_70
REMARK   12  A    between atoms: C_28  and  C_29
REMARK   13  A    between atoms: C_28  and  C_30
REMARK   14  A    between atoms: C_31  and  C_32
REMARK   15  A    between atoms: C_31  and  N_70
REMARK   16  A    between atoms: C_32  and  C_33
REMARK   17  A    between atoms: C_32  and  C_34
REMARK                            x       y       z     vdW  Elec       q    Type
REMARK                         _______ _______ _______ _____ _____    ______ ____
ROOT
ATOM      1  C   UNL     1       0.375   0.605   2.683  0.00  0.00    +0.222 A 
ATOM      2  C   UNL     1       1.619  -0.077   2.564  0.00  0.00    +0.235 A 
ATOM      3  O   UNL     1       2.637   0.364   3.071  0.00  0.00    -0.283 OA
ATOM      4  C   UNL     1       1.626  -1.338   1.803  0.00  0.00    +0.068 A 
ATOM      5  C   UNL     1       2.797  -2.078   1.631  0.00  0.00    +0.019 A 
ATOM      6  C   UNL     1       2.764  -3.242   0.919  0.00  0.00    +0.046 A 
ATOM      7  C   UNL     1       1.569  -3.695   0.363  0.00  0.00    +0.122 A 
ATOM      8  C   UNL     1       0.399  -2.973   0.524  0.00  0.00    +0.020 A 
ATOM      9  C   UNL     1       0.416  -1.787   1.246  0.00  0.00    +0.144 A 
ATOM     10  O   UNL     1      -0.709  -1.064   1.418  0.00  0.00    -0.447 OA
ATOM     11  C   UNL     1      -0.727   0.083   2.108  0.00  0.00    +0.254 A 
ENDROOT
BRANCH  11  12
ATOM     12  C   UNL     1      -2.031   0.826   2.242  0.00  0.00    +0.454 C 
ATOM     13  F   UNL     1      -2.168   1.724   1.178  0.00  0.00    -0.163 F 
ATOM     14  F   UNL     1      -3.091  -0.086   2.220  0.00  0.00    -0.163 F 
ATOM     15  F   UNL     1      -2.046   1.529   3.451  0.00  0.00    -0.163 F 
ENDBRANCH  11  12
BRANCH   7  16
ATOM     16  O   UNL     1       1.552  -4.855  -0.343  0.00  0.00    -0.506 OA
ATOM     17  H   UNL     1       1.722  -4.743  -1.288  0.00  0.00    +0.292 HD
ENDBRANCH   7  16
BRANCH   1  18
ATOM     18  O   UNL     1       0.299   1.776   3.373  0.00  0.00    -0.448 OA
BRANCH  18  22
ATOM     19  C   UNL     1      -0.530   1.594   7.410  0.00  0.00    -0.047 A 
ATOM     20  C   UNL     1      -0.339   2.820   6.799  0.00  0.00    +0.007 A 
ATOM     21  C   UNL     1      -0.061   2.883   5.448  0.00  0.00    +0.046 A 
ATOM     22  C   UNL     1       0.026   1.716   4.703  0.00  0.00    +0.129 A 
ATOM     23  C   UNL     1      -0.172   0.487   5.317  0.00  0.00    +0.046 A 
ATOM     24  C   UNL     1      -0.443   0.429   6.670  0.00  0.00    +0.007 A 
BRANCH  19  25
ATOM     25  C   UNL     1      -0.833   1.527   8.885  0.00  0.00    +0.035 C 
BRANCH  25  27
ATOM     26  C   UNL     1      -2.654   1.514  10.595  0.00  0.00    +0.004 C 
ATOM     27  C   UNL     1      -2.347   1.582   9.098  0.00  0.00    +0.001 C 
ENDBRANCH  25  27
ENDBRANCH  19  25
ENDBRANCH  18  22
ENDBRANCH   1  18
BRANCH   8  28
ATOM     28  C   UNL     1      -0.887  -3.472  -0.082  0.00  0.00    -0.036 C 
BRANCH  28  29
ATOM     29  N   UNL     1      -0.865  -3.201  -1.535  0.00  0.00    +0.383 N 
ATOM     30  H   UNL     1       0.036  -3.510  -1.917  0.00  0.00    -0.081 HD
BRANCH  29  31
ATOM     31  C   UNL     1      -1.952  -3.946  -2.204  0.00  0.00    -0.075 C 
BRANCH  31  32
ATOM     32  C   UNL     1      -1.688  -3.952  -3.711  0.00  0.00    -0.034 C 
ATOM     33  C   UNL     1      -0.424  -4.764  -4.004  0.00  0.00    +0.005 C 
ATOM     34  C   UNL     1      -2.879  -4.584  -4.435  0.00  0.00    +0.005 C 
ENDBRANCH  31  32
ENDBRANCH  29  31
BRANCH  29  35
ATOM     35  C   UNL     1      -1.019  -1.752  -1.781  0.00  0.00    -0.075 C 
BRANCH  35  36
ATOM     36  C   UNL     1       0.367  -1.105  -1.768  0.00  0.00    -0.034 C 
ATOM     37  C   UNL     1       1.195  -1.650  -2.934  0.00  0.00    +0.005 C 
ATOM     38  C   UNL     1       0.224   0.411  -1.910  0.00  0.00    +0.005 C 
ENDBRANCH  35  36
ENDBRANCH  29  35
ENDBRANCH  28  29
ENDBRANCH   8  28
TORSDOF 12
