REMARK  Name = ZINC36371651
REMARK  11 active torsions:
REMARK  status: ('A' for Active; 'I' for Inactive)
REMARK    1  A    between atoms: C_1  and  C_2
REMARK    2  A    between atoms: C_2  and  C_4
REMARK    3  A    between atoms: C_2  and  C_10
REMARK    4  A    between atoms: C_4  and  C_5
REMARK    5  A    between atoms: C_5  and  C_6
REMARK    6  A    between atoms: C_6  and  C_7
REMARK    7  A    between atoms: C_7  and  C_8
REMARK    8  A    between atoms: C_7  and  C_9
REMARK    9  A    between atoms: C_16  and  C_35
REMARK   10  A    between atoms: C_27  and  C_34
REMARK   11  A    between atoms: C_29  and  O_30
REMARK                            x       y       z     vdW  Elec       q    Type
REMARK                         _______ _______ _______ _____ _____    ______ ____
ROOT
ATOM      1  C   UNL     1       0.599  -0.557  -1.336  0.00  0.00    -0.002 C 
ATOM      2  C   UNL     1       0.389  -2.080  -1.538  0.00  0.00    +0.004 C 
ATOM      3  C   UNL     1      -0.214  -2.253  -2.964  0.00  0.00    +0.004 C 
ATOM      4  C   UNL     1       0.154  -0.916  -3.628  0.00  0.00    -0.001 C 
ATOM      5  C   UNL     1      -0.192   0.081  -2.501  0.00  0.00    -0.026 C 
ATOM      6  C   UNL     1       0.234   1.473  -2.876  0.00  0.00    +0.007 C 
ATOM      7  C   UNL     1      -0.189   1.837  -4.304  0.00  0.00    +0.005 C 
ATOM      8  C   UNL     1      -1.119   0.812  -4.924  0.00  0.00    +0.002 C 
ATOM      9  C   UNL     1      -0.502  -0.587  -4.930  0.00  0.00    -0.003 C 
ATOM     10  C   UNL     1      -1.565  -1.600  -5.353  0.00  0.00    +0.004 C 
ATOM     11  C   UNL     1      -2.051  -1.247  -6.765  0.00  0.00    +0.005 C 
ATOM     12  C   UNL     1      -1.313  -0.015  -7.274  0.00  0.00    +0.007 C 
ATOM     13  C   UNL     1      -1.516   1.183  -6.354  0.00  0.00    -0.004 C 
ATOM     14  C   UNL     1      -0.754   2.367  -6.864  0.00  0.00    +0.029 C 
ATOM     15  C   UNL     1      -0.482   2.515  -8.161  0.00  0.00    +0.156 C 
ATOM     16  C   UNL     1      -0.930   1.529  -9.153  0.00  0.00    +0.197 C 
ATOM     17  O   UNL     1      -0.649   1.668 -10.329  0.00  0.00    -0.289 OA
ATOM     18  C   UNL     1      -1.752   0.341  -8.697  0.00  0.00    +0.087 C 
ATOM     19  C   UNL     1      -3.001   1.561  -6.327  0.00  0.00    +0.016 C 
ATOM     20  C   UNL     1      -1.665   0.038  -2.094  0.00  0.00    +0.012 C 
ENDROOT
BRANCH   1  22
ATOM     21  C   UNL     1       0.207   1.400   0.163  0.00  0.00    +0.008 C 
ATOM     22  C   UNL     1       0.004  -0.107  -0.004  0.00  0.00    -0.010 C 
BRANCH  22  23
ATOM     23  C   UNL     1       0.699  -0.846   1.141  0.00  0.00    +0.003 C 
BRANCH  23  24
ATOM     24  C   UNL     1       0.020  -0.490   2.465  0.00  0.00    +0.001 C 
BRANCH  24  25
ATOM     25  C   UNL     1       0.716  -1.228   3.610  0.00  0.00    +0.003 C 
BRANCH  25  26
ATOM     26  C   UNL     1       0.037  -0.872   4.934  0.00  0.00    -0.017 C 
ATOM     27  C   UNL     1      -1.400  -1.397   4.928  0.00  0.00    +0.007 C 
ATOM     28  C   UNL     1       0.808  -1.510   6.091  0.00  0.00    +0.007 C 
ENDBRANCH  25  26
ENDBRANCH  24  25
ENDBRANCH  23  24
ENDBRANCH  22  23
ENDBRANCH   1  22
BRANCH  15  29
ATOM     29  O   UNL     1       0.221   3.606  -8.572  0.00  0.00    -0.504 OA
ATOM     30  H   UNL     1       0.376   3.638  -9.526  0.00  0.00    +0.292 HD
ENDBRANCH  15  29
TORSDOF 6
