REMARK  Name = ZINC35705871
REMARK  9 active torsions:
REMARK  status: ('A' for Active; 'I' for Inactive)
REMARK    1  A    between atoms: C_5  and  C_7
REMARK    2  A    between atoms: C_7  and  N_8
REMARK    3  A    between atoms: N_8  and  C_9
REMARK    4  A    between atoms: N_8  and  C_19
REMARK    5  A    between atoms: C_9  and  C_10
REMARK    6  A    between atoms: C_19  and  C_20
REMARK    7  A    between atoms: C_22  and  C_25
REMARK    8  A    between atoms: N_27  and  C_28
REMARK    9  A    between atoms: C_28  and  C_29
REMARK                            x       y       z     vdW  Elec       q    Type
REMARK                         _______ _______ _______ _____ _____    ______ ____
ROOT
ATOM      1  N   UNL     1       1.613  -2.659   1.311  0.00  0.00    +0.391 N 
ATOM      2  H   UNL     1       2.421  -2.122   1.587  0.00  0.00    -0.080 HD
ENDROOT
BRANCH   1   3
ATOM      3  C   UNL     1       1.194  -2.257  -0.038  0.00  0.00    -0.040 C 
BRANCH   3   8
ATOM      4  C   UNL     1      -0.499   1.116  -0.119  0.00  0.00    +0.000 A 
ATOM      5  C   UNL     1       0.588   1.971  -0.141  0.00  0.00    +0.001 A 
ATOM      6  C   UNL     1       1.871   1.458  -0.130  0.00  0.00    +0.020 A 
ATOM      7  C   UNL     1       2.068   0.089  -0.096  0.00  0.00    +0.042 A 
ATOM      8  C   UNL     1       0.981  -0.766  -0.074  0.00  0.00    -0.046 A 
ATOM      9  C   UNL     1      -0.302  -0.252  -0.086  0.00  0.00    +0.003 A 
ATOM     10 CL   UNL     1       3.680  -0.557  -0.082  0.00  0.00    -0.083 Cl
ENDBRANCH   3   8
ENDBRANCH   1   3
BRANCH   1  11
ATOM     11  C   UNL     1       0.516  -2.415   2.257  0.00  0.00    -0.042 C 
BRANCH  11  12
ATOM     12  C   UNL     1       0.992  -2.692   3.660  0.00  0.00    -0.060 A 
ATOM     13  C   UNL     1       0.760  -3.927   4.237  0.00  0.00    +0.005 A 
ATOM     14  C   UNL     1       1.195  -4.185   5.523  0.00  0.00    +0.050 A 
ATOM     15  C   UNL     1       1.865  -3.206   6.239  0.00  0.00    +0.166 A 
ATOM     16  C   UNL     1       2.098  -1.962   5.658  0.00  0.00    +0.166 A 
ATOM     17  C   UNL     1       1.665  -1.712   4.366  0.00  0.00    +0.051 A 
ATOM     18  O   UNL     1       2.768  -1.180   6.555  0.00  0.00    -0.453 OA
ATOM     19  C   UNL     1       2.582  -1.817   7.833  0.00  0.00    +0.466 C 
ATOM     20  O   UNL     1       2.388  -3.204   7.499  0.00  0.00    -0.453 OA
ENDBRANCH  11  12
ENDBRANCH   1  11
BRANCH   1  21
ATOM     21  C   UNL     1       1.952  -4.089   1.313  0.00  0.00    +0.020 C 
BRANCH  21  22
ATOM     22  C   UNL     1       3.155  -4.321   0.436  0.00  0.00    +0.179 A 
ATOM     23  N   UNL     1       4.392  -4.290   0.833  0.00  0.00    -0.210 NA
ATOM     24  C   UNL     1       5.195  -4.546  -0.235  0.00  0.00    +0.163 A 
ATOM     25  C   UNL     1       4.381  -4.736  -1.310  0.00  0.00    +0.230 A 
ATOM     26  O   UNL     1       3.119  -4.598  -0.875  0.00  0.00    -0.449 OA
BRANCH  24  27
ATOM     27  C   UNL     1       6.668  -4.606  -0.230  0.00  0.00    +0.266 C 
ATOM     28  O   UNL     1       7.270  -4.846  -1.259  0.00  0.00    -0.268 OA
ATOM     29  N   UNL     1       7.347  -4.396   0.915  0.00  0.00    -0.303 N 
ATOM     30  H   UNL     1       6.866  -4.205   1.736  0.00  0.00    +0.150 HD
BRANCH  29  31
ATOM     31  C   UNL     1       8.810  -4.455   0.920  0.00  0.00    +0.179 C 
BRANCH  31  32
ATOM     32  C   UNL     1       9.319  -4.186   2.313  0.00  0.00    +0.122 A 
ATOM     33  C   UNL     1       9.546  -5.114   3.261  0.00  0.00    +0.046 A 
ATOM     34  C   UNL     1      10.014  -4.425   4.404  0.00  0.00    +0.041 A 
ATOM     35  C   UNL     1      10.045  -3.119   4.086  0.00  0.00    +0.195 A 
ATOM     36  O   UNL     1       9.629  -2.980   2.817  0.00  0.00    -0.466 OA
ENDBRANCH  31  32
ENDBRANCH  29  31
ENDBRANCH  24  27
ENDBRANCH  21  22
ENDBRANCH   1  21
TORSDOF 9
