REMARK  Name = ZINC33229165
REMARK  3 active torsions:
REMARK  status: ('A' for Active; 'I' for Inactive)
REMARK    1  A    between atoms: C_1  and  C_2
REMARK    2  A    between atoms: C_8  and  C_10
REMARK    3  A    between atoms: C_12  and  N_17
REMARK                            x       y       z     vdW  Elec       q    Type
REMARK                         _______ _______ _______ _____ _____    ______ ____
ROOT
ATOM      1  C   UNL     1      -0.018   1.503   0.010  0.00  0.00    +0.066 C 
ATOM      2  C   UNL     1       0.002  -0.004   0.002  0.00  0.00    +0.047 A 
ATOM      3  C   UNL     1       0.006  -0.706  -1.158  0.00  0.00    +0.071 A 
ATOM      4  S   UNL     1       0.032  -2.379  -0.535  0.00  0.00    -0.060 S 
ATOM      5  C   UNL     1       0.036  -2.015   1.108  0.00  0.00    +0.165 A 
ATOM      6  N   UNL     1       0.023  -0.700   1.124  0.00  0.00    -0.230 NA
ATOM      7  N   UNL     1       0.053  -2.891   2.186  0.00  0.00    -0.261 N 
ATOM      8  C   UNL     1       0.070  -4.222   1.973  0.00  0.00    +0.251 C 
ATOM      9  O   UNL     1       0.071  -4.655   0.837  0.00  0.00    -0.270 OA
ATOM     10  H   UNL     1       0.052  -2.545   3.092  0.00  0.00    +0.157 HD
ENDROOT
BRANCH   8  11
ATOM     11  C   UNL     1       0.088  -5.153   3.119  0.00  0.00    +0.052 A 
ATOM     12  C   UNL     1       0.082  -4.659   4.425  0.00  0.00    +0.046 A 
ATOM     13  C   UNL     1       0.098  -5.534   5.491  0.00  0.00    +0.127 A 
ATOM     14  C   UNL     1       0.121  -6.900   5.269  0.00  0.00    +0.034 A 
ATOM     15  C   UNL     1       0.128  -7.397   3.978  0.00  0.00    +0.017 A 
ATOM     16  C   UNL     1       0.106  -6.533   2.902  0.00  0.00    +0.026 A 
ATOM     17  I   UNL     1       0.107  -7.288   0.948  0.00  0.00    -0.043 I 
BRANCH  13  18
ATOM     18  N   UNL     1       0.092  -5.011   6.876  0.00  0.00    +0.056 N 
ATOM     19  O   UNL     1       0.072  -3.818   7.072  0.00  0.00    -0.126 OA
ATOM     20  O   UNL     1       0.107  -5.777   7.811  0.00  0.00    -0.126 OA
ENDBRANCH  13  18
ENDBRANCH   8  11
TORSDOF 2
