REMARK  Name = ZINC39965348
REMARK  11 active torsions:
REMARK  status: ('A' for Active; 'I' for Inactive)
REMARK    1  A    between atoms: C_1  and  C_2
REMARK    2  A    between atoms: C_2  and  O_3
REMARK    3  A    between atoms: O_3  and  C_4
REMARK    4  A    between atoms: C_4  and  C_6
REMARK    5  A    between atoms: C_8  and  C_31
REMARK    6  A    between atoms: C_10  and  N_11
REMARK    7  A    between atoms: C_12  and  C_14
REMARK    8  A    between atoms: C_14  and  S_15
REMARK    9  A    between atoms: S_15  and  C_16
REMARK   10  A    between atoms: C_19  and  C_22
REMARK   11  A    between atoms: N_20  and  C_21
REMARK                            x       y       z     vdW  Elec       q    Type
REMARK                         _______ _______ _______ _____ _____    ______ ____
ROOT
ATOM      1  C   UNL     1       0.807  -7.168  -1.480  0.00  0.00    +0.173 C 
ENDROOT
BRANCH   1   3
ATOM      2  N   UNL     1       1.083  -4.781  -2.068  0.00  0.00    -0.279 N 
ATOM      3  C   UNL     1       1.203  -6.072  -2.436  0.00  0.00    +0.228 C 
ATOM      4  O   UNL     1       1.629  -6.352  -3.536  0.00  0.00    -0.275 OA
ATOM      5  H   UNL     1       0.742  -4.557  -1.188  0.00  0.00    +0.155 HD
BRANCH   2  10
ATOM      6  C   UNL     1       1.393  -2.401  -2.743  0.00  0.00    +0.088 A 
ATOM      7  C   UNL     1       1.844  -1.568  -3.834  0.00  0.00    +0.027 A 
ATOM      8  C   UNL     1       2.264  -2.218  -4.934  0.00  0.00    -0.011 A 
ATOM      9  S   UNL     1       2.052  -3.932  -4.504  0.00  0.00    -0.078 S 
ATOM     10  C   UNL     1       1.447  -3.773  -2.947  0.00  0.00    +0.086 A 
ATOM     11  C   UNL     1       2.787  -1.635  -6.222  0.00  0.00    +0.051 C 
BRANCH   6  12
ATOM     12  C   UNL     1       0.909  -1.829  -1.485  0.00  0.00    +0.342 C 
ATOM     13  O   UNL     1       0.541  -2.560  -0.585  0.00  0.00    -0.245 OA
BRANCH  12  14
ATOM     14  O   UNL     1       0.872  -0.490  -1.324  0.00  0.00    -0.461 OA
BRANCH  14  16
ATOM     15  C   UNL     1       0.419   1.529  -0.075  0.00  0.00    +0.048 C 
ATOM     16  C   UNL     1       0.388  -0.001  -0.071  0.00  0.00    +0.229 C 
ENDBRANCH  14  16
ENDBRANCH  12  14
ENDBRANCH   6  12
ENDBRANCH   2  10
ENDBRANCH   1   3
BRANCH   1  17
ATOM     17  S   UNL     1       1.083  -8.781  -2.261  0.00  0.00    -0.077 S 
BRANCH  17  18
ATOM     18  C   UNL     1       0.579  -9.941  -1.034  0.00  0.00    +0.192 A 
ATOM     19  N   UNL     1       0.110  -9.658   0.160  0.00  0.00    -0.122 NA
ATOM     20  N   UNL     1      -0.159 -10.741   0.797  0.00  0.00    -0.128 NA
ATOM     21  C   UNL     1       0.123 -11.783   0.049  0.00  0.00    +0.165 A 
ATOM     22  N   UNL     1       0.598 -11.302  -1.149  0.00  0.00    -0.305 N 
ATOM     23  C   UNL     1       1.037 -12.087  -2.306  0.00  0.00    +0.153 C 
BRANCH  21  24
ATOM     24  C   UNL     1      -0.046 -13.203   0.421  0.00  0.00    +0.023 A 
ATOM     25  C   UNL     1      -0.879 -13.554   1.485  0.00  0.00    +0.015 A 
ATOM     26  C   UNL     1      -1.036 -14.880   1.830  0.00  0.00    +0.050 A 
ATOM     27  C   UNL     1      -0.367 -15.869   1.124  0.00  0.00    +0.166 A 
ATOM     28  C   UNL     1       0.467 -15.525   0.061  0.00  0.00    +0.167 A 
ATOM     29  C   UNL     1       0.624 -14.198  -0.293  0.00  0.00    +0.061 A 
ATOM     30  O   UNL     1       1.001 -16.669  -0.461  0.00  0.00    -0.453 OA
ATOM     31  C   UNL     1       0.808 -17.678   0.547  0.00  0.00    +0.466 C 
ATOM     32  O   UNL     1      -0.355 -17.227   1.266  0.00  0.00    -0.453 OA
ENDBRANCH  21  24
ENDBRANCH  17  18
ENDBRANCH   1  17
TORSDOF 8
