REMARK  Name = ZINC15859444
REMARK  10 active torsions:
REMARK  status: ('A' for Active; 'I' for Inactive)
REMARK    1  A    between atoms: C_1  and  C_2
REMARK    2  A    between atoms: C_7  and  C_9
REMARK    3  A    between atoms: C_7  and  C_19
REMARK    4  A    between atoms: C_7  and  N_65
REMARK    5  A    between atoms: C_11  and  O_17
REMARK    6  A    between atoms: C_14  and  O_15
REMARK    7  A    between atoms: O_15  and  C_16
REMARK    8  A    between atoms: O_17  and  C_18
REMARK    9  A    between atoms: C_20  and  N_28
REMARK   10  A    between atoms: C_29  and  C_31
REMARK                            x       y       z     vdW  Elec       q    Type
REMARK                         _______ _______ _______ _____ _____    ______ ____
ROOT
ATOM      1  C   UNL     1      -2.186   5.264   3.200  0.00  0.00    +0.035 C 
ENDROOT
BRANCH   1   2
ATOM      2  C   UNL     1      -3.654   5.580   3.326  0.00  0.00    +0.118 A 
ATOM      3  C   UNL     1      -4.171   6.818   3.426  0.00  0.00    +0.082 A 
ATOM      4  C   UNL     1      -5.628   6.644   3.524  0.00  0.00    +0.042 A 
ATOM      5  C   UNL     1      -6.707   7.519   3.645  0.00  0.00    +0.013 A 
ATOM      6  C   UNL     1      -7.978   7.021   3.720  0.00  0.00    +0.001 A 
ATOM      7  C   UNL     1      -8.200   5.652   3.676  0.00  0.00    +0.004 A 
ATOM      8  C   UNL     1      -7.146   4.772   3.556  0.00  0.00    +0.047 A 
ATOM      9  C   UNL     1      -5.846   5.257   3.479  0.00  0.00    +0.137 A 
ATOM     10  O   UNL     1      -4.641   4.664   3.361  0.00  0.00    -0.459 OA
BRANCH   3  11
ATOM     11  N   UNL     1      -3.463   8.031   3.433  0.00  0.00    -0.278 N 
ATOM     12  C   UNL     1      -4.000   9.129   2.865  0.00  0.00    +0.255 C 
ATOM     13  O   UNL     1      -5.138   9.095   2.432  0.00  0.00    -0.269 OA
ATOM     14  H   UNL     1      -2.587   8.079   3.847  0.00  0.00    +0.155 HD
BRANCH  12  15
ATOM     15  C   UNL     1      -3.216  10.363   2.769  0.00  0.00    +0.074 A 
ATOM     16  C   UNL     1      -3.577  11.588   2.229  0.00  0.00    +0.021 A 
ATOM     17  C   UNL     1      -2.639  12.589   2.269  0.00  0.00    +0.008 A 
ATOM     18  C   UNL     1      -1.425  12.339   2.825  0.00  0.00    +0.046 A 
ATOM     19  S   UNL     1      -1.551  10.683   3.324  0.00  0.00    -0.092 S 
ENDBRANCH  12  15
ENDBRANCH   3  11
ENDBRANCH   1   2
BRANCH   1  26
ATOM     20  C   UNL     1      -0.228   1.646   7.168  0.00  0.00    +0.007 C 
ATOM     21  C   UNL     1      -0.457   2.890   6.307  0.00  0.00    -0.018 C 
ATOM     22  C   UNL     1      -1.920   3.327   6.418  0.00  0.00    -0.015 C 
ATOM     23  C   UNL     1      -2.158   4.534   5.508  0.00  0.00    -0.077 C 
ATOM     24  C   UNL     1      -0.427   3.796   3.981  0.00  0.00    -0.077 C 
ATOM     25  C   UNL     1      -0.138   2.567   4.845  0.00  0.00    -0.015 C 
ATOM     26  N   UNL     1      -1.856   4.150   4.113  0.00  0.00    +0.389 N 
ATOM     27  H   UNL     1      -2.426   3.334   3.862  0.00  0.00    -0.080 HD
ENDBRANCH   1  26
BRANCH   1  28
ATOM     28  C   UNL     1      -1.883   4.844   1.785  0.00  0.00    -0.009 A 
ATOM     29  C   UNL     1      -1.932   3.508   1.436  0.00  0.00    +0.051 A 
ATOM     30  C   UNL     1      -1.647   3.120   0.136  0.00  0.00    +0.121 A 
ATOM     31  C   UNL     1      -1.322   4.074  -0.817  0.00  0.00    +0.049 A 
ATOM     32  C   UNL     1      -1.278   5.410  -0.470  0.00  0.00    +0.049 A 
ATOM     33  C   UNL     1      -1.558   5.798   0.833  0.00  0.00    +0.122 A 
BRANCH  33  34
ATOM     34  O   UNL     1      -1.515   7.113   1.175  0.00  0.00    -0.495 OA
ATOM     35  C   UNL     1      -1.173   8.041   0.143  0.00  0.00    +0.277 C 
ENDBRANCH  33  34
BRANCH  30  36
ATOM     36  O   UNL     1      -1.690   1.805  -0.206  0.00  0.00    -0.495 OA
ATOM     37  C   UNL     1      -1.390   1.478  -1.565  0.00  0.00    +0.277 C 
ENDBRANCH  30  36
ENDBRANCH   1  28
TORSDOF 7
