REMARK  Name = ZINC01026722
REMARK  6 active torsions:
REMARK  status: ('A' for Active; 'I' for Inactive)
REMARK    1  A    between atoms: C_1  and  C_2
REMARK    2  A    between atoms: N_4  and  C_5
REMARK    3  A    between atoms: C_8  and  C_11
REMARK    4  A    between atoms: C_16  and  C_21
REMARK    5  A    between atoms: C_24  and  O_27
REMARK    6  A    between atoms: O_27  and  C_28
REMARK                            x       y       z     vdW  Elec       q    Type
REMARK                         _______ _______ _______ _____ _____    ______ ____
ROOT
ATOM      1  C   UNL     1       1.611   3.580   0.097  0.00  0.00    +0.136 C 
ATOM      2  C   UNL     1       1.430   4.102  -1.308  0.00  0.00    +0.036 C 
ATOM      3  C   UNL     1       2.385   4.651  -2.075  0.00  0.00    +0.017 C 
ATOM      4  C   UNL     1       2.070   5.100  -3.493  0.00  0.00    +0.059 C 
ATOM      5  C   UNL     1       0.629   5.601  -3.571  0.00  0.00    +0.032 C 
ATOM      6  C   UNL     1      -0.290   4.443  -3.165  0.00  0.00    +0.088 C 
ATOM      7  C   UNL     1       0.109   3.971  -1.799  0.00  0.00    +0.163 C 
ATOM      8  O   UNL     1      -0.732   3.458  -1.088  0.00  0.00    -0.292 OA
ATOM      9  N   UNL     1       3.673   4.843  -1.693  0.00  0.00    -0.316 N 
ATOM     10  C   UNL     1       4.464   3.887  -1.065  0.00  0.00    +0.052 A 
ATOM     11  C   UNL     1       5.627   3.400  -1.637  0.00  0.00    +0.025 A 
ATOM     12  C   UNL     1       6.426   2.531  -0.913  0.00  0.00    +0.002 A 
ATOM     13  C   UNL     1       6.066   2.154   0.367  0.00  0.00    +0.002 A 
ATOM     14  C   UNL     1       4.893   2.624   0.932  0.00  0.00    +0.025 A 
ATOM     15  C   UNL     1       4.082   3.480   0.204  0.00  0.00    +0.049 A 
ATOM     16  N   UNL     1       2.870   3.944   0.713  0.00  0.00    -0.331 N 
ATOM     17  H   UNL     1       4.071   5.710  -1.871  0.00  0.00    +0.152 HD
ATOM     18  H   UNL     1       2.870   4.521   1.493  0.00  0.00    +0.147 HD
ENDROOT
BRANCH   1  22
ATOM     19  C   UNL     1       1.329  -0.684   0.008  0.00  0.00    +0.033 A 
ATOM     20  C   UNL     1       0.370   0.063   0.678  0.00  0.00    +0.023 A 
ATOM     21  C   UNL     1       0.464   1.441   0.705  0.00  0.00    +0.007 A 
ATOM     22  C   UNL     1       1.512   2.077   0.066  0.00  0.00    -0.023 A 
ATOM     23  C   UNL     1       2.470   1.336  -0.602  0.00  0.00    +0.007 A 
ATOM     24  C   UNL     1       2.381  -0.042  -0.633  0.00  0.00    +0.023 A 
BRANCH  19  28
ATOM     25  C   UNL     1      -0.073  -4.176   0.047  0.00  0.00    +0.109 C 
ATOM     26  C   UNL     1       0.028  -2.675  -0.038  0.00  0.00    +0.214 C 
ATOM     27  O   UNL     1      -0.978  -2.003  -0.122  0.00  0.00    -0.276 OA
ATOM     28  N   UNL     1       1.237  -2.079  -0.021  0.00  0.00    -0.286 N 
ATOM     29  H   UNL     1       2.044  -2.619  -0.028  0.00  0.00    +0.155 HD
ENDBRANCH  19  28
ENDBRANCH   1  22
BRANCH   5  30
ATOM     30  C   UNL     1       0.314   6.035  -4.979  0.00  0.00    -0.043 A 
ATOM     31  C   UNL     1       0.410   5.127  -6.018  0.00  0.00    +0.007 A 
ATOM     32  C   UNL     1       0.117   5.521  -7.309  0.00  0.00    +0.046 A 
ATOM     33  C   UNL     1      -0.263   6.831  -7.565  0.00  0.00    +0.120 A 
ATOM     34  C   UNL     1      -0.352   7.741  -6.521  0.00  0.00    +0.046 A 
ATOM     35  C   UNL     1      -0.064   7.340  -5.231  0.00  0.00    +0.007 A 
BRANCH  33  36
ATOM     36  O   UNL     1      -0.546   7.222  -8.835  0.00  0.00    -0.495 OA
ATOM     37  C   UNL     1      -0.433   6.232  -9.859  0.00  0.00    +0.277 C 
ENDBRANCH  33  36
ENDBRANCH   5  30
TORSDOF 4
