REMARK  Name = ZINC10672921
REMARK  6 active torsions:
REMARK  status: ('A' for Active; 'I' for Inactive)
REMARK    1  A    between atoms: C_6  and  C_7
REMARK    2  A    between atoms: N_11  and  C_15
REMARK    3  A    between atoms: C_15  and  C_16
REMARK    4  A    between atoms: C_16  and  N_17
REMARK    5  A    between atoms: C_18  and  C_20
REMARK    6  A    between atoms: C_25  and  N_26
REMARK                            x       y       z     vdW  Elec       q    Type
REMARK                         _______ _______ _______ _____ _____    ______ ____
ROOT
ATOM      1  C   UNL     1      11.487   2.742  -1.491  0.00  0.00    +0.028 C 
ATOM      2  C   UNL     1      10.575   2.984  -0.515  0.00  0.00    +0.077 C 
ATOM      3  C   UNL     1       9.321   3.761  -0.570  0.00  0.00    +0.258 C 
ATOM      4  O   UNL     1       8.953   4.310  -1.592  0.00  0.00    -0.269 OA
ATOM      5  N   UNL     1       8.618   3.831   0.548  0.00  0.00    -0.254 N 
ATOM      6  C   UNL     1       9.032   3.226   1.680  0.00  0.00    +0.121 C 
ATOM      7  S   UNL     1       8.273   3.207   3.214  0.00  0.00    -0.027 S 
ATOM      8  S   UNL     1      10.563   2.448   1.191  0.00  0.00    -0.061 S 
ENDROOT
BRANCH   1  14
ATOM      9  C   UNL     1      12.198   3.704  -3.670  0.00  0.00    +0.012 A 
ATOM     10  C   UNL     1      11.924   4.066  -4.971  0.00  0.00    +0.050 A 
ATOM     11  C   UNL     1      10.657   3.862  -5.500  0.00  0.00    +0.166 A 
ATOM     12  C   UNL     1       9.653   3.289  -4.717  0.00  0.00    +0.167 A 
ATOM     13  C   UNL     1       9.921   2.919  -3.414  0.00  0.00    +0.057 A 
ATOM     14  C   UNL     1      11.198   3.129  -2.878  0.00  0.00    -0.020 A 
ATOM     15  O   UNL     1       8.515   3.200  -5.465  0.00  0.00    -0.453 OA
ATOM     16  C   UNL     1       8.713   4.094  -6.575  0.00  0.00    +0.466 C 
ATOM     17  O   UNL     1      10.143   4.129  -6.736  0.00  0.00    -0.453 OA
ENDBRANCH   1  14
BRANCH   5  18
ATOM     18  C   UNL     1       7.363   4.587   0.559  0.00  0.00    +0.133 C 
BRANCH  18  19
ATOM     19  C   UNL     1       6.205   3.660   0.183  0.00  0.00    +0.124 C 
BRANCH  19  20
ATOM     20  N   UNL     1       4.951   4.417   0.194  0.00  0.00    -0.310 N 
ATOM     21  C   UNL     1       3.790   3.802  -0.108  0.00  0.00    +0.246 C 
ATOM     22  O   UNL     1       3.785   2.619  -0.390  0.00  0.00    -0.270 OA
ATOM     23  H   UNL     1       4.955   5.361   0.418  0.00  0.00    +0.149 HD
BRANCH  21  24
ATOM     24  C   UNL     1       2.525   4.565  -0.098  0.00  0.00    +0.067 A 
ATOM     25  C   UNL     1       2.542   5.948   0.089  0.00  0.00    +0.017 A 
ATOM     26  C   UNL     1       1.359   6.655   0.098  0.00  0.00    +0.021 A 
ATOM     27  C   UNL     1       0.153   5.995  -0.079  0.00  0.00    +0.043 A 
ATOM     28  C   UNL     1       0.130   4.623  -0.270  0.00  0.00    +0.053 A 
ATOM     29  C   UNL     1       1.307   3.905  -0.275  0.00  0.00    +0.140 A 
ATOM     30 CL   UNL     1      -1.333   6.892  -0.067  0.00  0.00    -0.083 Cl
BRANCH  29  31
ATOM     31  N   UNL     1       1.281   2.439  -0.475  0.00  0.00    +0.057 N 
ATOM     32  O   UNL     1       0.685   1.964  -1.425  0.00  0.00    -0.126 OA
ATOM     33  O   UNL     1       1.854   1.707   0.312  0.00  0.00    -0.126 OA
ENDBRANCH  29  31
ENDBRANCH  21  24
ENDBRANCH  19  20
ENDBRANCH  18  19
ENDBRANCH   5  18
TORSDOF 6
