REMARK  Name = ZINC36007137
REMARK  13 active torsions:
REMARK  status: ('A' for Active; 'I' for Inactive)
REMARK    1  A    between atoms: C_1  and  C_2
REMARK    2  A    between atoms: C_2  and  C_3
REMARK    3  A    between atoms: C_3  and  N_4
REMARK    4  A    between atoms: C_5  and  C_7
REMARK    5  A    between atoms: C_7  and  N_8
REMARK    6  A    between atoms: N_8  and  C_9
REMARK    7  A    between atoms: N_8  and  C_10
REMARK    8  A    between atoms: C_10  and  C_11
REMARK    9  A    between atoms: N_13  and  C_14
REMARK   10  A    between atoms: C_17  and  S_20
REMARK   11  A    between atoms: S_20  and  N_23
REMARK   12  A    between atoms: C_25  and  C_32
REMARK   13  A    between atoms: C_28  and  C_31
REMARK                            x       y       z     vdW  Elec       q    Type
REMARK                         _______ _______ _______ _____ _____    ______ ____
ROOT
ATOM      1  C   UNL     1       3.178  -8.314   6.265  0.00  0.00    +0.033 A 
ATOM      2  C   UNL     1       3.605  -7.360   7.179  0.00  0.00    +0.025 A 
ATOM      3  C   UNL     1       4.105  -7.754   8.404  0.00  0.00    +0.030 A 
ATOM      4  C   UNL     1       4.179  -9.098   8.722  0.00  0.00    +0.106 A 
ATOM      5  C   UNL     1       3.755 -10.051   7.814  0.00  0.00    +0.030 A 
ATOM      6  C   UNL     1       3.248  -9.662   6.589  0.00  0.00    +0.025 A 
ENDROOT
BRANCH   1   9
ATOM      7  C   UNL     1       1.666  -8.611   4.452  0.00  0.00    +0.201 C 
ATOM      8  O   UNL     1       1.257  -9.626   4.974  0.00  0.00    -0.278 OA
ATOM      9  N   UNL     1       2.671  -7.917   5.022  0.00  0.00    -0.287 N 
ATOM     10  H   UNL     1       3.043  -7.143   4.571  0.00  0.00    +0.155 HD
BRANCH   7  11
ATOM     11  C   UNL     1       1.050  -8.124   3.165  0.00  0.00    +0.019 C 
BRANCH  11  12
ATOM     12  N   UNL     1      -0.016  -9.047   2.753  0.00  0.00    +0.389 N 
ATOM     13  C   UNL     1      -1.102  -9.013   3.741  0.00  0.00    -0.095 C 
ATOM     14  H   UNL     1       0.355  -9.984   2.693  0.00  0.00    -0.081 HD
BRANCH  12  15
ATOM     15  C   UNL     1      -0.535  -8.640   1.440  0.00  0.00    +0.019 C 
BRANCH  15  17
ATOM     16  N   UNL     1      -2.152  -9.489  -0.228  0.00  0.00    -0.317 N 
ATOM     17  C   UNL     1      -1.541  -9.655   0.961  0.00  0.00    +0.196 C 
ATOM     18  O   UNL     1      -1.800 -10.622   1.646  0.00  0.00    -0.278 OA
ATOM     19  H   UNL     1      -1.945  -8.715  -0.776  0.00  0.00    +0.149 HD
BRANCH  16  20
ATOM     20  C   UNL     1      -3.131 -10.475  -0.693  0.00  0.00    +0.104 C 
BRANCH  20  22
ATOM     21  C   UNL     1      -4.692 -11.082  -2.546  0.00  0.00    +0.005 C 
ATOM     22  C   UNL     1      -3.671 -10.052  -2.061  0.00  0.00    +0.015 C 
ENDBRANCH  20  22
ENDBRANCH  16  20
ENDBRANCH  15  17
ENDBRANCH  12  15
ENDBRANCH  11  12
ENDBRANCH   7  11
ENDBRANCH   1   9
BRANCH   4  23
ATOM     23  S   UNL     1       4.817  -9.598  10.287  0.00  0.00    +0.061 S 
ATOM     24  O   UNL     1       5.289 -10.928  10.127  0.00  0.00    -0.153 OA
ATOM     25  O   UNL     1       5.653  -8.542  10.740  0.00  0.00    -0.153 OA
BRANCH  23  26
ATOM     26  N   UNL     1       3.538  -9.672  11.336  0.00  0.00    -0.176 NA
ATOM     27  C   UNL     1       3.141  -8.492  12.117  0.00  0.00    +0.112 C 
ATOM     28  C   UNL     1       1.651  -8.226  11.884  0.00  0.00    +0.002 C 
ATOM     29  C   UNL     1       0.853  -9.491  12.207  0.00  0.00    +0.009 C 
ATOM     30  C   UNL     1       1.292 -10.625  11.277  0.00  0.00    +0.002 C 
ATOM     31  C   UNL     1       2.775 -10.917  11.499  0.00  0.00    +0.112 C 
ATOM     32  C   UNL     1       0.471 -11.880  11.579  0.00  0.00    +0.009 C 
ATOM     33  C   UNL     1       1.423  -7.838  10.421  0.00  0.00    +0.009 C 
ENDBRANCH  23  26
ENDBRANCH   4  23
TORSDOF 9
