REMARK  Name = ZINC00781233
REMARK  14 active torsions:
REMARK  status: ('A' for Active; 'I' for Inactive)
REMARK    1  A    between atoms: C_1  and  C_2
REMARK    2  A    between atoms: C_3  and  C_32
REMARK    3  A    between atoms: C_4  and  C_20
REMARK    4  A    between atoms: C_10  and  C_15
REMARK    5  A    between atoms: C_22  and  O_30
REMARK    6  A    between atoms: C_23  and  O_28
REMARK    7  A    between atoms: C_24  and  O_26
REMARK    8  A    between atoms: O_26  and  C_27
REMARK    9  A    between atoms: O_28  and  C_29
REMARK   10  A    between atoms: O_30  and  C_31
REMARK   11  A    between atoms: C_32  and  O_34
REMARK   12  A    between atoms: O_34  and  C_35
REMARK   13  A    between atoms: C_35  and  C_36
REMARK   14  A    between atoms: C_35  and  C_37
REMARK                            x       y       z     vdW  Elec       q    Type
REMARK                         _______ _______ _______ _____ _____    ______ ____
ROOT
ATOM      1  C   UNL     1      -1.368   1.919  -0.492  0.00  0.00    +0.061 C 
ATOM      2  C   UNL     1      -0.033   1.270  -0.234  0.00  0.00    +0.016 C 
ATOM      3  C   UNL     1       0.030  -0.049   0.019  0.00  0.00    +0.065 C 
ATOM      4  C   UNL     1       1.342  -0.733   0.265  0.00  0.00    +0.092 C 
ATOM      5  C   UNL     1       2.418   0.266   0.610  0.00  0.00    +0.024 C 
ATOM      6  C   UNL     1       2.254   1.577   0.334  0.00  0.00    +0.016 C 
ATOM      7  N   UNL     1       1.107   2.024  -0.265  0.00  0.00    -0.321 N 
ATOM      8  C   UNL     1       3.325   2.583   0.677  0.00  0.00    +0.060 C 
ATOM      9  C   UNL     1       4.700   1.916   0.605  0.00  0.00    +0.039 C 
ATOM     10  C   UNL     1       4.716   0.730   1.575  0.00  0.00    +0.088 C 
ATOM     11  C   UNL     1       3.592  -0.206   1.222  0.00  0.00    +0.162 C 
ATOM     12  O   UNL     1       3.700  -1.390   1.472  0.00  0.00    -0.292 OA
ATOM     13  H   UNL     1       1.107   2.999  -0.773  0.00  0.00    +0.152 HD
ENDROOT
BRANCH   4  14
ATOM     14  C   UNL     1       1.747  -1.488  -0.975  0.00  0.00    -0.028 A 
ATOM     15  C   UNL     1       1.930  -0.810  -2.165  0.00  0.00    +0.054 A 
ATOM     16  C   UNL     1       2.308  -1.499  -3.307  0.00  0.00    +0.165 A 
ATOM     17  C   UNL     1       2.491  -2.876  -3.257  0.00  0.00    +0.204 A 
ATOM     18  C   UNL     1       2.300  -3.555  -2.059  0.00  0.00    +0.165 A 
ATOM     19  C   UNL     1       1.929  -2.857  -0.920  0.00  0.00    +0.054 A 
BRANCH  18  20
ATOM     20  O   UNL     1       2.479  -4.902  -2.004  0.00  0.00    -0.491 OA
ATOM     21  C   UNL     1       2.266  -5.534  -0.740  0.00  0.00    +0.277 C 
ENDBRANCH  18  20
BRANCH  17  22
ATOM     22  O   UNL     1       2.856  -3.558  -4.377  0.00  0.00    -0.488 OA
ATOM     23  C   UNL     1       1.803  -4.056  -5.205  0.00  0.00    +0.277 C 
ENDBRANCH  17  22
BRANCH  16  24
ATOM     24  O   UNL     1       2.494  -0.831  -4.477  0.00  0.00    -0.491 OA
ATOM     25  C   UNL     1       2.288   0.584  -4.455  0.00  0.00    +0.277 C 
ENDBRANCH  16  24
ENDBRANCH   4  14
BRANCH   9  26
ATOM     26  C   UNL     1       5.765   2.907   0.999  0.00  0.00    -0.006 A 
ATOM     27  C   UNL     1       6.818   3.360   0.276  0.00  0.00    +0.011 A 
ATOM     28  C   UNL     1       7.677   4.280   0.847  0.00  0.00    +0.008 A 
ATOM     29  C   UNL     1       7.441   4.702   2.114  0.00  0.00    +0.045 A 
ATOM     30  S   UNL     1       5.963   3.794   2.535  0.00  0.00    -0.101 S 
ENDBRANCH   9  26
BRANCH   3  31
ATOM     31  C   UNL     1      -1.165  -0.806   0.054  0.00  0.00    +0.338 C 
ATOM     32  O   UNL     1      -2.242  -0.246  -0.021  0.00  0.00    -0.245 OA
BRANCH  31  33
ATOM     33  O   UNL     1      -1.109  -2.150   0.172  0.00  0.00    -0.459 OA
BRANCH  33  34
ATOM     34  C   UNL     1      -2.354  -2.850   0.201  0.00  0.00    +0.171 C 
ATOM     35  C   UNL     1      -2.762  -3.224  -1.225  0.00  0.00    +0.052 C 
ATOM     36  C   UNL     1      -2.203  -4.122   1.038  0.00  0.00    +0.052 C 
ENDBRANCH  33  34
ENDBRANCH  31  33
ENDBRANCH   3  31
TORSDOF 8
