REMARK  Name = ZINC35646227
REMARK  13 active torsions:
REMARK  status: ('A' for Active; 'I' for Inactive)
REMARK    1  A    between atoms: C_1  and  C_2
REMARK    2  A    between atoms: C_2  and  O_3
REMARK    3  A    between atoms: O_3  and  C_4
REMARK    4  A    between atoms: C_4  and  C_6
REMARK    5  A    between atoms: C_7  and  C_24
REMARK    6  A    between atoms: N_8  and  C_23
REMARK    7  A    between atoms: C_12  and  C_14
REMARK    8  A    between atoms: C_17  and  C_20
REMARK    9  A    between atoms: C_20  and  C_21
REMARK   10  A    between atoms: C_20  and  C_22
REMARK   11  A    between atoms: C_24  and  N_25
REMARK   12  A    between atoms: C_29  and  C_32
REMARK   13  A    between atoms: C_33  and  C_35
REMARK                            x       y       z     vdW  Elec       q    Type
REMARK                         _______ _______ _______ _____ _____    ______ ____
ROOT
ATOM      1  C   UNL     1       1.660  -2.462  -2.638  0.00  0.00    +0.080 C 
ATOM      2  C   UNL     1       1.818  -3.788  -2.838  0.00  0.00    +0.041 C 
ATOM      3  N   UNL     1       2.296  -4.270  -4.023  0.00  0.00    -0.260 N 
ATOM      4  C   UNL     1       2.639  -3.491  -5.057  0.00  0.00    +0.307 C 
ATOM      5  O   UNL     1       3.056  -4.013  -6.073  0.00  0.00    -0.252 OA
ATOM      6  N   UNL     1       2.538  -2.148  -5.008  0.00  0.00    -0.288 N 
ATOM      7  C   UNL     1       2.026  -1.528  -3.775  0.00  0.00    +0.144 C 
ATOM      8  C   UNL     1       2.442  -5.720  -4.172  0.00  0.00    +0.139 C 
ATOM      9  H   UNL     1       2.792  -1.603  -5.769  0.00  0.00    +0.151 HD
ENDROOT
BRANCH   7  10
ATOM     10  C   UNL     1       3.076  -0.572  -3.271  0.00  0.00    -0.022 A 
ATOM     11  C   UNL     1       4.397  -0.971  -3.201  0.00  0.00    +0.006 A 
ATOM     12  C   UNL     1       5.361  -0.093  -2.739  0.00  0.00    +0.004 A 
ATOM     13  C   UNL     1       5.002   1.183  -2.347  0.00  0.00    -0.045 A 
ATOM     14  C   UNL     1       3.680   1.582  -2.418  0.00  0.00    +0.004 A 
ATOM     15  C   UNL     1       2.718   0.706  -2.884  0.00  0.00    +0.006 A 
BRANCH  13  16
ATOM     16  C   UNL     1       6.052   2.139  -1.842  0.00  0.00    +0.013 C 
ATOM     17  C   UNL     1       6.088   3.377  -2.740  0.00  0.00    +0.012 C 
ATOM     18  C   UNL     1       5.714   2.557  -0.410  0.00  0.00    +0.012 C 
ENDBRANCH  13  16
ENDBRANCH   7  10
BRANCH   1  19
ATOM     19  C   UNL     1       1.165  -1.961  -1.411  0.00  0.00    +0.339 C 
ATOM     20  O   UNL     1       0.017  -1.564  -1.335  0.00  0.00    -0.245 OA
BRANCH  19  21
ATOM     21  O   UNL     1       1.965  -1.925  -0.325  0.00  0.00    -0.462 OA
BRANCH  21  23
ATOM     22  C   UNL     1       2.448  -1.444   1.994  0.00  0.00    +0.048 C 
ATOM     23  C   UNL     1       1.399  -1.407   0.880  0.00  0.00    +0.229 C 
ENDBRANCH  21  23
ENDBRANCH  19  21
ENDBRANCH   1  19
BRANCH   2  24
ATOM     24  C   UNL     1       1.462  -4.752  -1.736  0.00  0.00    +0.136 C 
BRANCH  24  25
ATOM     25  N   UNL     1       0.347  -5.603  -2.172  0.00  0.00    -0.294 NA
ATOM     26  C   UNL     1      -0.876  -4.812  -2.363  0.00  0.00    +0.104 C 
ATOM     27  C   UNL     1      -1.960  -5.697  -2.987  0.00  0.00    +0.124 C 
ATOM     28  N   UNL     1      -2.121  -6.898  -2.153  0.00  0.00    -0.290 N 
ATOM     29  C   UNL     1      -0.917  -7.668  -1.804  0.00  0.00    +0.087 C 
ATOM     30  C   UNL     1       0.126  -6.706  -1.226  0.00  0.00    +0.107 C 
ATOM     31  C   UNL     1      -1.273  -8.732  -0.764  0.00  0.00    +0.029 C 
ATOM     32  C   UNL     1      -3.338  -7.282  -1.721  0.00  0.00    +0.282 C 
ATOM     33  O   UNL     1      -3.442  -8.214  -0.945  0.00  0.00    -0.267 OA
BRANCH  32  34
ATOM     34  C   UNL     1      -4.538  -6.579  -2.187  0.00  0.00    +0.189 A 
ATOM     35  C   UNL     1      -5.810  -6.776  -1.733  0.00  0.00    +0.054 A 
ATOM     36  C   UNL     1      -6.635  -5.896  -2.450  0.00  0.00    +0.042 A 
ATOM     37  C   UNL     1      -5.840  -5.208  -3.300  0.00  0.00    +0.196 A 
ATOM     38  O   UNL     1      -4.576  -5.619  -3.135  0.00  0.00    -0.458 OA
ENDBRANCH  32  34
ENDBRANCH  24  25
ENDBRANCH   2  24
TORSDOF 8
