REMARK  Name = ZINC20271647
REMARK  6 active torsions:
REMARK  status: ('A' for Active; 'I' for Inactive)
REMARK    1  A    between atoms: C_4  and  C_7
REMARK    2  A    between atoms: C_15  and  C_17
REMARK    3  A    between atoms: C_21  and  C_26
REMARK    4  A    between atoms: C_26  and  O_38
REMARK    5  A    between atoms: N_29  and  C_32
REMARK    6  A    between atoms: C_32  and  C_33
REMARK                            x       y       z     vdW  Elec       q    Type
REMARK                         _______ _______ _______ _____ _____    ______ ____
ROOT
ATOM      1  C   UNL     1      -3.674  -3.376  -0.117  0.00  0.00    +0.191 A 
ATOM      2  C   UNL     1      -4.986  -3.582   0.168  0.00  0.00    +0.063 A 
ATOM      3  C   UNL     1      -5.597  -4.072  -1.067  0.00  0.00    +0.021 A 
ATOM      4  C   UNL     1      -6.890  -4.458  -1.427  0.00  0.00    +0.018 A 
ATOM      5  C   UNL     1      -7.139  -4.887  -2.700  0.00  0.00    -0.015 A 
ATOM      6  C   UNL     1      -6.116  -4.941  -3.637  0.00  0.00    +0.010 A 
ATOM      7  C   UNL     1      -4.834  -4.565  -3.302  0.00  0.00    +0.047 A 
ATOM      8  C   UNL     1      -4.556  -4.125  -2.012  0.00  0.00    +0.136 A 
ATOM      9  O   UNL     1      -3.431  -3.702  -1.404  0.00  0.00    -0.450 OA
ENDROOT
BRANCH   1  17
ATOM     10  C   UNL     1       0.785  -4.368  -0.557  0.00  0.00    +0.021 C 
ATOM     11  C   UNL     1       0.829  -4.123   0.948  0.00  0.00    +0.010 C 
ATOM     12  C   UNL     1       0.941  -2.641   1.211  0.00  0.00    +0.020 C 
ATOM     13  C   UNL     1      -0.460  -2.025   1.374  0.00  0.00    +0.108 C 
ATOM     14  N   UNL     1      -1.427  -2.578   0.406  0.00  0.00    -0.295 N 
ATOM     15  C   UNL     1      -1.097  -2.812  -0.982  0.00  0.00    +0.109 C 
ATOM     16  C   UNL     1      -0.555  -4.253  -1.152  0.00  0.00    +0.027 C 
ATOM     17  C   UNL     1      -2.670  -2.878   0.834  0.00  0.00    +0.282 C 
ATOM     18  O   UNL     1      -2.960  -2.737   2.006  0.00  0.00    -0.267 OA
BRANCH  10  22
ATOM     19  C   UNL     1       2.283  -8.292  -1.336  0.00  0.00    +0.000 A 
ATOM     20  C   UNL     1       2.912  -7.190  -1.886  0.00  0.00    +0.000 A 
ATOM     21  C   UNL     1       2.427  -5.920  -1.634  0.00  0.00    +0.004 A 
ATOM     22  C   UNL     1       1.314  -5.752  -0.832  0.00  0.00    -0.044 A 
ATOM     23  C   UNL     1       0.689  -6.853  -0.277  0.00  0.00    +0.004 A 
ATOM     24  C   UNL     1       1.171  -8.123  -0.533  0.00  0.00    +0.000 A 
ENDBRANCH  10  22
ENDBRANCH   1  17
BRANCH   5  25
ATOM     25  C   UNL     1      -8.534  -5.304  -3.090  0.00  0.00    +0.088 C 
ATOM     26  C   UNL     1      -8.713  -6.802  -2.826  0.00  0.00    +0.021 C 
ATOM     27  C   UNL     1     -10.109  -7.232  -3.282  0.00  0.00    -0.075 C 
ATOM     28  N   UNL     1     -10.270  -6.944  -4.713  0.00  0.00    +0.383 N 
ATOM     29  C   UNL     1     -10.150  -5.506  -4.982  0.00  0.00    -0.075 C 
ATOM     30  C   UNL     1      -8.754  -5.025  -4.579  0.00  0.00    +0.021 C 
ATOM     31  H   UNL     1      -9.457  -7.455  -5.251  0.00  0.00    -0.081 HD
BRANCH  25  32
ATOM     32  O   UNL     1      -9.486  -4.567  -2.320  0.00  0.00    -0.384 OA
ATOM     33  H   UNL     1     -10.562  -4.737  -2.467  0.00  0.00    +0.211 HD
ENDBRANCH  25  32
BRANCH  28  34
ATOM     34  C   UNL     1     -11.547  -7.470  -5.215  0.00  0.00    -0.040 C 
BRANCH  34  35
ATOM     35  C   UNL     1     -11.745  -8.876  -4.711  0.00  0.00    -0.026 A 
ATOM     36  C   UNL     1     -12.383  -9.258  -3.509  0.00  0.00    +0.043 A 
ATOM     37  C   UNL     1     -12.339 -10.601  -3.454  0.00  0.00    +0.195 A 
ATOM     38  O   UNL     1     -11.711 -11.050  -4.552  0.00  0.00    -0.471 OA
ATOM     39  C   UNL     1     -11.352 -10.009  -5.321  0.00  0.00    +0.196 A 
ENDBRANCH  34  35
ENDBRANCH  28  34
ENDBRANCH   5  25
TORSDOF 6
