REMARK  Name = ZINC08773095
REMARK  4 active torsions:
REMARK  status: ('A' for Active; 'I' for Inactive)
REMARK    1  A    between atoms: C_1  and  C_2
REMARK    2  A    between atoms: C_2  and  C_3
REMARK    3  A    between atoms: C_23  and  C_31
REMARK    4  A    between atoms: C_31  and  C_33
REMARK                            x       y       z     vdW  Elec       q    Type
REMARK                         _______ _______ _______ _____ _____    ______ ____
ROOT
ATOM      1  C   UNL     1      -1.453  -0.716   0.125  0.00  0.00    -0.026 A 
ATOM      2  C   UNL     1      -2.077  -1.095   1.296  0.00  0.00    +0.005 A 
ATOM      3  C   UNL     1      -3.380  -1.558   1.276  0.00  0.00    +0.001 A 
ATOM      4  C   UNL     1      -4.062  -1.642   0.074  0.00  0.00    +0.004 A 
ATOM      5  C   UNL     1      -3.443  -1.265  -1.096  0.00  0.00    -0.026 A 
ATOM      6  C   UNL     1      -2.134  -0.792  -1.087  0.00  0.00    +0.039 A 
ATOM      7  N   UNL     1      -1.729  -0.469  -2.384  0.00  0.00    -0.286 N 
ATOM      8  C   UNL     1      -2.699  -0.692  -3.290  0.00  0.00    +0.212 C 
ATOM      9  O   UNL     1      -2.628  -0.503  -4.486  0.00  0.00    -0.277 OA
ATOM     10  C   UNL     1      -3.887  -1.234  -2.534  0.00  0.00    +0.060 C 
ATOM     11  C   UNL     1      -5.103  -0.335  -2.722  0.00  0.00    +0.085 C 
ATOM     12  C   UNL     1      -4.811   0.826  -3.631  0.00  0.00    -0.011 A 
ATOM     13  C   UNL     1      -4.373   0.922  -4.934  0.00  0.00    +0.006 A 
ATOM     14  C   UNL     1      -4.194   2.166  -5.513  0.00  0.00    +0.000 A 
ATOM     15  C   UNL     1      -4.456   3.310  -4.782  0.00  0.00    +0.002 A 
ATOM     16  C   UNL     1      -4.894   3.218  -3.478  0.00  0.00    +0.023 A 
ATOM     17  C   UNL     1      -5.077   1.970  -2.886  0.00  0.00    +0.038 A 
ATOM     18  N   UNL     1      -5.504   1.622  -1.603  0.00  0.00    -0.285 N 
ATOM     19  C   UNL     1      -5.546   0.288  -1.425  0.00  0.00    +0.228 C 
ATOM     20  O   UNL     1      -5.877  -0.299  -0.416  0.00  0.00    -0.275 OA
ATOM     21  C   UNL     1      -6.204  -1.235  -3.307  0.00  0.00    +0.066 C 
ATOM     22  C   UNL     1      -5.740  -2.657  -2.909  0.00  0.00    -0.055 C 
ATOM     23  N   UNL     1      -4.250  -2.583  -3.001  0.00  0.00    +0.395 N 
ATOM     24  C   UNL     1      -3.958  -2.684  -4.451  0.00  0.00    -0.076 C 
ATOM     25  C   UNL     1      -4.991  -3.686  -5.005  0.00  0.00    -0.020 C 
ATOM     26  C   UNL     1      -6.177  -3.652  -3.998  0.00  0.00    -0.016 C 
ATOM     27  H   UNL     1      -0.851  -0.123  -2.606  0.00  0.00    +0.155 HD
ATOM     28  H   UNL     1      -5.743   2.267  -0.918  0.00  0.00    +0.155 HD
ATOM     29  H   UNL     1      -3.799  -3.305  -2.459  0.00  0.00    -0.079 HD
ENDROOT
BRANCH   1  31
ATOM     30  C   UNL     1      -0.036   1.316   0.231  0.00  0.00    +0.009 C 
ATOM     31  C   UNL     1      -0.034  -0.212   0.159  0.00  0.00    +0.033 C 
ENDBRANCH   1  31
BRANCH  21  32
ATOM     32  C   UNL     1      -7.540  -0.914  -2.687  0.00  0.00    +0.166 C 
ATOM     33  O   UNL     1      -7.920  -1.528  -1.713  0.00  0.00    -0.292 OA
BRANCH  32  34
ATOM     34  C   UNL     1      -8.383   0.144  -3.265  0.00  0.00    +0.018 A 
ATOM     35  C   UNL     1      -7.997   0.768  -4.467  0.00  0.00    +0.012 A 
ATOM     36  C   UNL     1      -8.758   1.746  -5.018  0.00  0.00    +0.009 A 
ATOM     37  C   UNL     1      -9.951   2.150  -4.389  0.00  0.00    -0.018 A 
ATOM     38  C   UNL     1     -10.755   3.161  -4.942  0.00  0.00    +0.008 A 
ATOM     39  C   UNL     1     -11.903   3.531  -4.312  0.00  0.00    +0.001 A 
ATOM     40  C   UNL     1     -12.298   2.922  -3.122  0.00  0.00    +0.001 A 
ATOM     41  C   UNL     1     -11.545   1.940  -2.556  0.00  0.00    +0.008 A 
ATOM     42  C   UNL     1     -10.352   1.530  -3.178  0.00  0.00    -0.017 A 
ATOM     43  C   UNL     1      -9.557   0.516  -2.624  0.00  0.00    +0.020 A 
ENDBRANCH  32  34
ENDBRANCH  21  32
TORSDOF 3
