REMARK  Name = ZINC09505197
REMARK  6 active torsions:
REMARK  status: ('A' for Active; 'I' for Inactive)
REMARK    1  A    between atoms: C_1  and  C_2
REMARK    2  A    between atoms: C_5  and  C_8
REMARK    3  A    between atoms: C_18  and  C_19
REMARK    4  A    between atoms: N_21  and  C_22
REMARK    5  A    between atoms: C_26  and  C_29
REMARK    6  A    between atoms: C_27  and  C_28
REMARK                            x       y       z     vdW  Elec       q    Type
REMARK                         _______ _______ _______ _____ _____    ______ ____
ROOT
ATOM      1  C   UNL     1      -5.949  -1.486   0.328  0.00  0.00    +0.284 C 
ATOM      2  O   UNL     1      -5.765  -2.686   0.414  0.00  0.00    -0.266 OA
ATOM      3  N   UNL     1      -4.897  -0.649   0.230  0.00  0.00    -0.279 N 
ATOM      4  H   UNL     1      -5.038   0.311   0.245  0.00  0.00    +0.155 HD
ENDROOT
BRANCH   1  15
ATOM      5  C   UNL     1      -8.375  -1.826   0.427  0.00  0.00    +0.038 A 
ATOM      6  C   UNL     1      -9.746  -1.287   0.436  0.00  0.00    +0.000 A 
ATOM      7  C   UNL     1     -10.862  -2.112   0.535  0.00  0.00    +0.009 A 
ATOM      8  C   UNL     1     -12.123  -1.552   0.533  0.00  0.00    +0.001 A 
ATOM      9  C   UNL     1     -12.287  -0.179   0.434  0.00  0.00    +0.001 A 
ATOM     10  C   UNL     1     -11.193   0.656   0.334  0.00  0.00    +0.015 A 
ATOM     11  C   UNL     1      -9.912   0.112   0.334  0.00  0.00    +0.067 A 
ATOM     12  C   UNL     1      -8.710   0.953   0.231  0.00  0.00    +0.345 A 
ATOM     13  O   UNL     1      -8.817   2.162   0.142  0.00  0.00    -0.245 OA
ATOM     14  O   UNL     1      -7.495   0.382   0.235  0.00  0.00    -0.416 OA
ATOM     15  C   UNL     1      -7.316  -0.950   0.331  0.00  0.00    +0.202 A 
BRANCH   5  20
ATOM     16  C   UNL     1      -7.459  -7.495   0.808  0.00  0.00    +0.044 C 
ATOM     17  C   UNL     1      -7.698  -6.010   0.708  0.00  0.00    -0.050 A 
ATOM     18  C   UNL     1      -7.274  -5.174   1.725  0.00  0.00    +0.004 A 
ATOM     19  C   UNL     1      -7.491  -3.814   1.640  0.00  0.00    +0.009 A 
ATOM     20  C   UNL     1      -8.139  -3.283   0.525  0.00  0.00    -0.014 A 
ATOM     21  C   UNL     1      -8.570  -4.132  -0.496  0.00  0.00    +0.009 A 
ATOM     22  C   UNL     1      -8.342  -5.490  -0.401  0.00  0.00    +0.004 A 
ENDBRANCH   5  20
ENDBRANCH   1  15
BRANCH   3  23
ATOM     23  C   UNL     1      -3.603  -1.164   0.106  0.00  0.00    +0.037 A 
ATOM     24  C   UNL     1      -3.389  -2.346  -0.593  0.00  0.00    +0.023 A 
ATOM     25  C   UNL     1      -2.112  -2.859  -0.718  0.00  0.00    +0.003 A 
ATOM     26  C   UNL     1      -1.040  -2.201  -0.148  0.00  0.00    +0.013 A 
ATOM     27  C   UNL     1      -1.244  -1.014   0.556  0.00  0.00    +0.042 A 
ATOM     28  C   UNL     1      -2.534  -0.498   0.686  0.00  0.00    -0.017 A 
ATOM     29  C   UNL     1      -2.764   0.780   1.451  0.00  0.00    +0.046 C 
BRANCH  27  30
ATOM     30  C   UNL     1      -0.098  -0.308   1.167  0.00  0.00    +0.230 A 
ATOM     31  N   UNL     1       0.154   0.971   1.033  0.00  0.00    -0.189 NA
ATOM     32  C   UNL     1       1.281   1.270   1.727  0.00  0.00    +0.199 A 
ATOM     33  C   UNL     1       1.719   0.070   2.313  0.00  0.00    +0.174 A 
ATOM     34  O   UNL     1       0.839  -0.884   1.943  0.00  0.00    -0.434 OA
ATOM     35  C   UNL     1       2.866   0.075   3.093  0.00  0.00    +0.051 A 
ATOM     36  C   UNL     1       3.539   1.274   3.263  0.00  0.00    +0.023 A 
ATOM     37  C   UNL     1       3.053   2.421   2.657  0.00  0.00    +0.113 A 
ATOM     38  N   UNL     1       1.962   2.396   1.921  0.00  0.00    -0.233 NA
ENDBRANCH  27  30
ENDBRANCH   3  23
TORSDOF 4
