REMARK  Name = ZINC39205301
REMARK  9 active torsions:
REMARK  status: ('A' for Active; 'I' for Inactive)
REMARK    1  A    between atoms: C_1  and  C_2
REMARK    2  A    between atoms: C_2  and  O_3
REMARK    3  A    between atoms: O_3  and  C_4
REMARK    4  A    between atoms: C_4  and  C_6
REMARK    5  A    between atoms: C_7  and  C_39
REMARK    6  A    between atoms: C_14  and  C_15
REMARK    7  A    between atoms: C_25  and  C_27
REMARK    8  A    between atoms: C_30  and  O_37
REMARK    9  A    between atoms: O_37  and  C_38
REMARK                            x       y       z     vdW  Elec       q    Type
REMARK                         _______ _______ _______ _____ _____    ______ ____
ROOT
ATOM      1  C   UNL     1       2.535  -2.354  -2.174  0.00  0.00    +0.085 C 
ATOM      2  C   UNL     1       2.846  -3.618  -2.589  0.00  0.00    +0.053 C 
ATOM      3  N   UNL     1       3.248  -3.839  -3.835  0.00  0.00    -0.228 NA
ATOM      4  C   UNL     1       3.382  -2.917  -4.752  0.00  0.00    +0.178 A 
ATOM      5  N   UNL     1       3.122  -1.582  -4.544  0.00  0.00    -0.275 N 
ATOM      6  C   UNL     1       3.296  -0.726  -5.560  0.00  0.00    +0.268 A 
ATOM      7  O   UNL     1       3.079   0.462  -5.425  0.00  0.00    -0.266 OA
ATOM      8  C   UNL     1       3.761  -1.275  -6.851  0.00  0.00    +0.080 A 
ATOM      9  C   UNL     1       4.018  -0.624  -8.041  0.00  0.00    +0.026 C 
ATOM     10  S   UNL     1       3.901  -3.011  -6.454  0.00  0.00    -0.046 S 
ATOM     11  C   UNL     1       2.656  -1.228  -3.174  0.00  0.00    +0.162 C 
ATOM     12  C   UNL     1       2.733  -4.770  -1.624  0.00  0.00    +0.066 C 
ENDROOT
BRANCH   9  13
ATOM     13  C   UNL     1       4.164   0.765  -8.059  0.00  0.00    -0.018 C 
ATOM     14  C   UNL     1       4.551   1.559  -9.138  0.00  0.00    +0.003 A 
ATOM     15  C   UNL     1       4.899   1.253 -10.472  0.00  0.00    +0.010 A 
ATOM     16  C   UNL     1       5.243   2.252 -11.323  0.00  0.00    +0.001 A 
ATOM     17  C   UNL     1       5.264   3.590 -10.915  0.00  0.00    +0.002 A 
ATOM     18  C   UNL     1       4.942   3.957  -9.653  0.00  0.00    +0.026 A 
ATOM     19  C   UNL     1       4.571   2.967  -8.702  0.00  0.00    +0.043 A 
ATOM     20  N   UNL     1       4.221   3.062  -7.439  0.00  0.00    -0.380 N 
ATOM     21  C   UNL     1       3.929   1.725  -6.913  0.00  0.00    +0.149 C 
ATOM     22  H   UNL     1       4.162   3.889  -6.934  0.00  0.00    +0.160 HD
ENDBRANCH   9  13
BRANCH  11  23
ATOM     23  C   UNL     1       3.616  -0.211  -2.612  0.00  0.00    -0.012 A 
ATOM     24  C   UNL     1       4.944  -0.291  -2.903  0.00  0.00    +0.010 A 
ATOM     25  C   UNL     1       5.848   0.638  -2.395  0.00  0.00    +0.046 A 
ATOM     26  C   UNL     1       5.428   1.658  -1.588  0.00  0.00    +0.128 A 
ATOM     27  C   UNL     1       4.060   1.771  -1.266  0.00  0.00    +0.024 A 
ATOM     28  C   UNL     1       3.143   0.827  -1.790  0.00  0.00    -0.009 A 
ATOM     29  C   UNL     1       1.779   0.942  -1.474  0.00  0.00    +0.009 A 
ATOM     30  C   UNL     1       1.357   1.960  -0.675  0.00  0.00    +0.001 A 
ATOM     31  C   UNL     1       2.258   2.892  -0.164  0.00  0.00    +0.001 A 
ATOM     32  C   UNL     1       3.589   2.804  -0.441  0.00  0.00    +0.012 A 
BRANCH  26  33
ATOM     33  O   UNL     1       6.322   2.555  -1.099  0.00  0.00    -0.495 OA
ATOM     34  C   UNL     1       7.691   2.375  -1.469  0.00  0.00    +0.277 C 
ENDBRANCH  26  33
ENDBRANCH  11  23
BRANCH   1  35
ATOM     35  C   UNL     1       2.108  -2.110  -0.856  0.00  0.00    +0.339 C 
ATOM     36  O   UNL     1       0.920  -1.999  -0.611  0.00  0.00    -0.245 OA
BRANCH  35  37
ATOM     37  O   UNL     1       3.015  -1.998   0.138  0.00  0.00    -0.462 OA
BRANCH  37  39
ATOM     38  C   UNL     1       3.671  -1.642   2.437  0.00  0.00    +0.048 C 
ATOM     39  C   UNL     1       2.509  -1.866   1.468  0.00  0.00    +0.229 C 
ENDBRANCH  37  39
ENDBRANCH  35  37
ENDBRANCH   1  35
TORSDOF 6
