REMARK  Name = ZINC05546082
REMARK  3 active torsions:
REMARK  status: ('A' for Active; 'I' for Inactive)
REMARK    1  A    between atoms: C_1  and  O_2
REMARK    2  A    between atoms: O_2  and  C_3
REMARK    3  A    between atoms: C_24  and  C_26
REMARK                            x       y       z     vdW  Elec       q    Type
REMARK                         _______ _______ _______ _____ _____    ______ ____
ROOT
ATOM      1  C   UNL     1       0.512   4.371  -3.435  0.00  0.00    +0.162 A 
ATOM      2  C   UNL     1       1.667   3.787  -3.920  0.00  0.00    +0.049 A 
ATOM      3  C   UNL     1       2.023   2.515  -3.511  0.00  0.00    +0.004 A 
ATOM      4  C   UNL     1       1.216   1.829  -2.624  0.00  0.00    +0.009 A 
ATOM      5  C   UNL     1       0.056   2.406  -2.140  0.00  0.00    +0.020 A 
ATOM      6  C   UNL     1      -0.305   3.685  -2.531  0.00  0.00    +0.171 A 
ATOM      7  O   UNL     1      -1.416   4.328  -2.082  0.00  0.00    -0.450 OA
ATOM      8  C   UNL     1      -2.414   3.604  -1.368  0.00  0.00    +0.298 C 
ATOM      9  C   UNL     1      -3.261   4.503  -0.529  0.00  0.00    +0.046 A 
ATOM     10  C   UNL     1      -2.948   5.353   0.510  0.00  0.00    +0.011 A 
ATOM     11  C   UNL     1      -3.997   6.062   1.085  0.00  0.00    +0.001 A 
ATOM     12  C   UNL     1      -5.293   5.920   0.633  0.00  0.00    +0.002 A 
ATOM     13  C   UNL     1      -5.617   5.068  -0.411  0.00  0.00    +0.024 A 
ATOM     14  C   UNL     1      -4.573   4.350  -0.997  0.00  0.00    +0.043 A 
ATOM     15  N   UNL     1      -4.609   3.442  -2.040  0.00  0.00    -0.280 N 
ATOM     16  C   UNL     1      -3.384   2.950  -2.326  0.00  0.00    +0.287 C 
ATOM     17  O   UNL     1      -3.113   2.140  -3.187  0.00  0.00    -0.269 OA
ATOM     18  N   UNL     1      -1.733   2.594  -0.559  0.00  0.00    -0.195 N 
ATOM     19  C   UNL     1      -0.810   1.621  -1.189  0.00  0.00    +0.137 C 
ATOM     20  C   UNL     1      -0.013   1.086   0.008  0.00  0.00    +0.086 C 
ATOM     21  C   UNL     1      -0.777   1.602   1.210  0.00  0.00    +0.068 C 
ATOM     22  N   UNL     1      -1.713   2.405   0.811  0.00  0.00    -0.184 NA
ATOM     23  H   UNL     1      -5.418   3.188  -2.511  0.00  0.00    +0.155 HD
ENDROOT
BRANCH  21  24
ATOM     24  C   UNL     1      -0.499   1.244   2.614  0.00  0.00    -0.002 A 
ATOM     25  C   UNL     1       0.537   0.358   2.920  0.00  0.00    +0.010 A 
ATOM     26  C   UNL     1       0.794   0.031   4.235  0.00  0.00    +0.001 A 
ATOM     27  C   UNL     1       0.023   0.570   5.249  0.00  0.00    +0.000 A 
ATOM     28  C   UNL     1      -1.008   1.444   4.953  0.00  0.00    +0.001 A 
ATOM     29  C   UNL     1      -1.274   1.784   3.643  0.00  0.00    +0.010 A 
ENDBRANCH  21  24
BRANCH   1  31
ATOM     30  C   UNL     1       1.044   6.270  -4.765  0.00  0.00    +0.277 C 
ATOM     31  O   UNL     1       0.167   5.623  -3.841  0.00  0.00    -0.491 OA
ENDBRANCH   1  31
TORSDOF 2
