REMARK  Name = ZINC39580261
REMARK  14 active torsions:
REMARK  status: ('A' for Active; 'I' for Inactive)
REMARK    1  A    between atoms: C_1  and  C_2
REMARK    2  A    between atoms: C_4  and  C_14
REMARK    3  A    between atoms: C_5  and  C_13
REMARK    4  A    between atoms: N_6  and  C_7
REMARK    5  A    between atoms: C_7  and  C_8
REMARK    6  A    between atoms: C_14  and  C_16
REMARK    7  A    between atoms: C_16  and  C_18
REMARK    8  A    between atoms: C_16  and  O_19
REMARK    9  A    between atoms: O_19  and  C_20
REMARK   10  A    between atoms: C_20  and  C_22
REMARK   11  A    between atoms: C_22  and  N_23
REMARK   12  A    between atoms: C_28  and  C_35
REMARK   13  A    between atoms: C_31  and  C_33
REMARK   14  A    between atoms: C_31  and  C_34
REMARK                            x       y       z     vdW  Elec       q    Type
REMARK                         _______ _______ _______ _____ _____    ______ ____
ROOT
ATOM      1  C   UNL     1       1.031  -4.499  -4.707  0.00  0.00    +0.326 C 
ATOM      2  O   UNL     1       1.267  -3.441  -5.240  0.00  0.00    -0.249 OA
ENDROOT
BRANCH   1   3
ATOM      3  O   UNL     1       0.399  -4.527  -3.523  0.00  0.00    -0.452 OA
BRANCH   3   4
ATOM      4  C   UNL     1       0.035  -3.269  -2.951  0.00  0.00    +0.244 C 
ATOM      5  C   UNL     1      -1.365  -2.879  -3.427  0.00  0.00    +0.061 C 
BRANCH   4   6
ATOM      6  C   UNL     1       0.043  -3.379  -1.448  0.00  0.00    +0.205 C 
ATOM      7  O   UNL     1       0.060  -4.471  -0.920  0.00  0.00    -0.288 OA
BRANCH   6  11
ATOM      8  C   UNL     1      -0.018   1.503   0.010  0.00  0.00    +0.063 C 
ATOM      9  C   UNL     1       0.002  -0.004   0.002  0.00  0.00    +0.017 A 
ATOM     10  C   UNL     1       0.008  -0.777  -1.097  0.00  0.00    +0.034 A 
ATOM     11  C   UNL     1       0.030  -2.167  -0.625  0.00  0.00    +0.042 A 
ATOM     12  C   UNL     1       0.035  -2.098   0.755  0.00  0.00    +0.027 A 
ATOM     13  N   UNL     1       0.023  -0.801   1.110  0.00  0.00    -0.340 N 
ATOM     14  C   UNL     1       0.056  -3.273   1.700  0.00  0.00    +0.064 C 
BRANCH  13  15
ATOM     15  C   UNL     1       0.029  -0.312   2.491  0.00  0.00    +0.196 C 
BRANCH  15  16
ATOM     16  C   UNL     1      -1.390  -0.165   2.978  0.00  0.00    +0.124 A 
ATOM     17  C   UNL     1      -2.110  -1.115   3.600  0.00  0.00    +0.046 A 
ATOM     18  C   UNL     1      -3.377  -0.553   3.877  0.00  0.00    +0.041 A 
ATOM     19  C   UNL     1      -3.356   0.707   3.407  0.00  0.00    +0.195 A 
ATOM     20  O   UNL     1      -2.147   0.939   2.868  0.00  0.00    -0.466 OA
ENDBRANCH  15  16
ENDBRANCH  13  15
ENDBRANCH   6  11
ENDBRANCH   4   6
ENDBRANCH   3   4
ENDBRANCH   1   3
BRANCH   1  21
ATOM     21  C   UNL     1       1.446  -5.786  -5.371  0.00  0.00    +0.238 C 
BRANCH  21  22
ATOM     22  N   UNL     1       2.111  -5.489  -6.640  0.00  0.00    -0.213 N 
ATOM     23  C   UNL     1       1.478  -5.405  -7.831  0.00  0.00    +0.247 C 
ATOM     24  O   UNL     1       0.333  -5.728  -8.060  0.00  0.00    -0.273 OA
ATOM     25  C   UNL     1       2.498  -4.838  -8.789  0.00  0.00    +0.113 C 
ATOM     26  C   UNL     1       2.584  -5.680 -10.052  0.00  0.00    +0.038 C 
ATOM     27  C   UNL     1       1.345  -5.454 -10.918  0.00  0.00    -0.011 C 
ATOM     28  C   UNL     1       1.302  -3.985 -11.335  0.00  0.00    +0.009 C 
ATOM     29  C   UNL     1       1.194  -3.074 -10.118  0.00  0.00    -0.032 C 
ATOM     30  C   UNL     1       2.254  -3.369  -9.071  0.00  0.00    +0.041 C 
ATOM     31  C   UNL     1       1.389  -1.620 -10.599  0.00  0.00    +0.011 C 
ATOM     32  C   UNL     1      -0.209  -3.173  -9.511  0.00  0.00    +0.011 C 
ATOM     33  C   UNL     1       1.434  -6.334 -12.170  0.00  0.00    +0.007 C 
ATOM     34  N   UNL     1       3.767  -4.972  -8.038  0.00  0.00    -0.285 N 
ATOM     35  C   UNL     1       3.427  -5.289  -6.776  0.00  0.00    +0.310 C 
ATOM     36  O   UNL     1       4.223  -5.385  -5.863  0.00  0.00    -0.252 OA
ATOM     37  H   UNL     1       4.656  -4.851  -8.398  0.00  0.00    +0.151 HD
ENDBRANCH  21  22
ENDBRANCH   1  21
TORSDOF 8
