REMARK  Name = ZINC35992201
REMARK  11 active torsions:
REMARK  status: ('A' for Active; 'I' for Inactive)
REMARK    1  A    between atoms: C_1  and  C_2
REMARK    2  A    between atoms: C_2  and  N_3
REMARK    3  A    between atoms: C_4  and  C_23
REMARK    4  A    between atoms: C_5  and  C_18
REMARK    5  A    between atoms: C_6  and  C_11
REMARK    6  A    between atoms: C_18  and  O_20
REMARK    7  A    between atoms: O_20  and  C_21
REMARK    8  A    between atoms: C_21  and  C_22
REMARK    9  A    between atoms: C_23  and  N_24
REMARK   10  A    between atoms: C_28  and  C_31
REMARK   11  A    between atoms: C_32  and  C_34
REMARK                            x       y       z     vdW  Elec       q    Type
REMARK                         _______ _______ _______ _____ _____    ______ ____
ROOT
ATOM      1  N   UNL     1      -1.187  -0.428  -0.192  0.00  0.00    -0.258 N 
ATOM      2  C   UNL     1      -2.067  -0.413   0.852  0.00  0.00    +0.041 C 
ATOM      3  C   UNL     1      -3.364  -0.743   0.675  0.00  0.00    +0.080 C 
ATOM      4  C   UNL     1      -3.809  -1.130  -0.721  0.00  0.00    +0.144 C 
ATOM      5  N   UNL     1      -2.782  -1.114  -1.777  0.00  0.00    -0.288 N 
ATOM      6  C   UNL     1      -1.526  -0.756  -1.444  0.00  0.00    +0.307 C 
ATOM      7  O   UNL     1      -0.672  -0.736  -2.309  0.00  0.00    -0.252 OA
ATOM      8  H   UNL     1      -3.006  -1.351  -2.690  0.00  0.00    +0.151 HD
ENDROOT
BRANCH   4   9
ATOM      9  C   UNL     1      -4.386  -2.520  -0.656  0.00  0.00    -0.020 A 
ATOM     10  C   UNL     1      -3.545  -3.617  -0.631  0.00  0.00    +0.006 A 
ATOM     11  C   UNL     1      -4.072  -4.893  -0.572  0.00  0.00    +0.003 A 
ATOM     12  C   UNL     1      -5.442  -5.074  -0.538  0.00  0.00    +0.038 A 
ATOM     13  C   UNL     1      -6.286  -3.977  -0.563  0.00  0.00    +0.124 A 
ATOM     14  C   UNL     1      -5.756  -2.698  -0.616  0.00  0.00    +0.044 A 
ATOM     15  F   UNL     1      -7.625  -4.152  -0.530  0.00  0.00    -0.205 F 
ENDBRANCH   4   9
BRANCH   1  17
ATOM     16  C   UNL     1       0.378   1.450  -0.112  0.00  0.00    +0.025 C 
ATOM     17  C   UNL     1       0.206  -0.059   0.073  0.00  0.00    +0.111 C 
ENDBRANCH   1  17
BRANCH   3  18
ATOM     18  C   UNL     1      -4.277  -0.728   1.755  0.00  0.00    +0.339 C 
ATOM     19  O   UNL     1      -4.548  -1.762   2.337  0.00  0.00    -0.245 OA
BRANCH  18  20
ATOM     20  O   UNL     1      -4.848   0.432   2.141  0.00  0.00    -0.462 OA
BRANCH  20  21
ATOM     21  C   UNL     1      -5.760   0.373   3.240  0.00  0.00    +0.229 C 
ATOM     22  C   UNL     1      -6.301   1.774   3.529  0.00  0.00    +0.048 C 
ENDBRANCH  20  21
ENDBRANCH  18  20
ENDBRANCH   3  18
BRANCH   2  23
ATOM     23  C   UNL     1      -1.583  -0.022   2.225  0.00  0.00    +0.136 C 
BRANCH  23  24
ATOM     24  N   UNL     1      -0.649  -1.041   2.723  0.00  0.00    -0.294 NA
ATOM     25  C   UNL     1      -1.335  -2.322   2.939  0.00  0.00    +0.104 C 
ATOM     26  C   UNL     1      -0.301  -3.400   3.282  0.00  0.00    +0.123 C 
ATOM     27  N   UNL     1       0.506  -2.928   4.418  0.00  0.00    -0.296 N 
ATOM     28  C   UNL     1       1.114  -1.591   4.332  0.00  0.00    +0.087 C 
ATOM     29  C   UNL     1       0.024  -0.585   3.947  0.00  0.00    +0.107 C 
ATOM     30  C   UNL     1       1.714  -1.212   5.686  0.00  0.00    +0.029 C 
ATOM     31  C   UNL     1       0.684  -3.700   5.508  0.00  0.00    +0.219 C 
ATOM     32  O   UNL     1       1.281  -3.263   6.469  0.00  0.00    -0.275 OA
BRANCH  31  33
ATOM     33  C   UNL     1       0.142  -5.106   5.532  0.00  0.00    +0.075 C 
ATOM     34  C   UNL     1      -1.021  -5.398   6.482  0.00  0.00    +0.013 C 
ATOM     35  C   UNL     1       0.377  -5.931   6.799  0.00  0.00    +0.013 C 
ENDBRANCH  31  33
ENDBRANCH  23  24
ENDBRANCH   2  23
TORSDOF 8
