REMARK  Name = ZINC30310683
REMARK  6 active torsions:
REMARK  status: ('A' for Active; 'I' for Inactive)
REMARK    1  A    between atoms: C_4  and  N_7
REMARK    2  A    between atoms: C_8  and  C_17
REMARK    3  A    between atoms: C_10  and  C_12
REMARK    4  A    between atoms: N_19  and  C_20
REMARK    5  A    between atoms: C_20  and  C_21
REMARK    6  A    between atoms: C_26  and  N_27
REMARK                            x       y       z     vdW  Elec       q    Type
REMARK                         _______ _______ _______ _____ _____    ______ ____
ROOT
ATOM      1  C   UNL     1      -2.109   1.894   0.257  0.00  0.00    +0.263 C 
ATOM      2  O   UNL     1      -2.334   0.810   0.762  0.00  0.00    -0.269 OA
ATOM      3  N   UNL     1      -3.085   2.821   0.189  0.00  0.00    -0.306 N 
ATOM      4  H   UNL     1      -2.899   3.779  -0.320  0.00  0.00    +0.149 HD
ENDROOT
BRANCH   1   6
ATOM      5  N   UNL     1      -0.419   3.293  -1.015  0.00  0.00    -0.227 N 
ATOM      6  C   UNL     1      -0.772   2.192  -0.280  0.00  0.00    +0.130 A 
ATOM      7  C   UNL     1       0.357   1.417  -0.135  0.00  0.00    +0.066 A 
ATOM      8  C   UNL     1       1.407   2.067  -0.806  0.00  0.00    +0.129 A 
ATOM      9  N   UNL     1       0.941   3.185  -1.329  0.00  0.00    -0.163 NA
BRANCH   5  13
ATOM     10  C   UNL     1      -2.950   6.409  -2.132  0.00  0.00    +0.000 A 
ATOM     11  C   UNL     1      -1.793   6.680  -1.425  0.00  0.00    +0.002 A 
ATOM     12  C   UNL     1      -0.952   5.649  -1.053  0.00  0.00    +0.028 A 
ATOM     13  C   UNL     1      -1.269   4.340  -1.390  0.00  0.00    +0.066 A 
ATOM     14  C   UNL     1      -2.430   4.072  -2.105  0.00  0.00    +0.028 A 
ATOM     15  C   UNL     1      -3.269   5.106  -2.469  0.00  0.00    +0.002 A 
ENDBRANCH   5  13
BRANCH   8  16
ATOM     16  C   UNL     1       2.800   1.579  -0.908  0.00  0.00    +0.155 A 
ATOM     17  C   UNL     1       3.817   2.202  -1.560  0.00  0.00    +0.051 A 
ATOM     18  C   UNL     1       4.959   1.392  -1.399  0.00  0.00    +0.042 A 
ATOM     19  C   UNL     1       4.585   0.323  -0.670  0.00  0.00    +0.196 A 
ATOM     20  O   UNL     1       3.279   0.439  -0.376  0.00  0.00    -0.461 OA
ENDBRANCH   8  16
ENDBRANCH   1   6
BRANCH   3  21
ATOM     21  C   UNL     1      -4.393   2.554   0.793  0.00  0.00    +0.143 C 
BRANCH  21  22
ATOM     22  C   UNL     1      -5.249   3.790   0.703  0.00  0.00    +0.008 A 
ATOM     23  C   UNL     1      -6.255   3.879  -0.243  0.00  0.00    +0.010 A 
ATOM     24  C   UNL     1      -7.021   5.037  -0.289  0.00  0.00    +0.018 A 
ATOM     25  C   UNL     1      -6.758   6.057   0.602  0.00  0.00    +0.084 A 
ATOM     26  N   UNL     1      -5.792   5.945   1.494  0.00  0.00    -0.349 N 
ATOM     27  C   UNL     1      -5.043   4.855   1.573  0.00  0.00    +0.104 A 
ATOM     28  H   UNL     1      -5.592   6.769   2.195  0.00  0.00    +0.167 HD
BRANCH  27  29
ATOM     29  N   UNL     1      -4.040   4.777   2.532  0.00  0.00    -0.312 N 
ATOM     30  C   UNL     1      -4.609   4.686   3.884  0.00  0.00    +0.134 C 
ATOM     31  C   UNL     1      -3.473   4.542   4.901  0.00  0.00    +0.178 C 
ATOM     32  O   UNL     1      -2.575   5.647   4.765  0.00  0.00    -0.377 OA
ATOM     33  C   UNL     1      -2.002   5.766   3.460  0.00  0.00    +0.178 C 
ATOM     34  C   UNL     1      -3.123   5.922   2.429  0.00  0.00    +0.134 C 
ENDBRANCH  27  29
ENDBRANCH  21  22
ENDBRANCH   3  21
TORSDOF 6
