REMARK  Name = ZINC09276857
REMARK  10 active torsions:
REMARK  status: ('A' for Active; 'I' for Inactive)
REMARK    1  A    between atoms: C_1  and  C_2
REMARK    2  A    between atoms: C_4  and  C_33
REMARK    3  A    between atoms: C_6  and  N_8
REMARK    4  A    between atoms: C_9  and  C_11
REMARK    5  A    between atoms: C_11  and  S_12
REMARK    6  A    between atoms: S_12  and  C_13
REMARK    7  A    between atoms: N_19  and  C_20
REMARK    8  A    between atoms: C_22  and  C_27
REMARK    9  A    between atoms: C_24  and  C_26
REMARK   10  A    between atoms: C_29  and  C_32
REMARK                            x       y       z     vdW  Elec       q    Type
REMARK                         _______ _______ _______ _____ _____    ______ ____
ROOT
ATOM      1  C   UNL     1      -1.050   3.518   0.170  0.00  0.00    +0.177 A 
ATOM      2  N   UNL     1      -1.039   2.227   0.391  0.00  0.00    -0.227 NA
ATOM      3  C   UNL     1      -0.051   1.423  -0.058  0.00  0.00    +0.064 A 
ATOM      4  C   UNL     1       0.962   2.023  -0.777  0.00  0.00    +0.094 A 
ATOM      5  C   UNL     1       0.966   3.405  -1.010  0.00  0.00    +0.273 A 
ATOM      6  O   UNL     1       1.872   3.929  -1.637  0.00  0.00    -0.266 OA
ATOM      7  N   UNL     1      -0.056   4.145  -0.524  0.00  0.00    -0.255 N 
ATOM      8  S   UNL     1       2.088   0.732  -1.251  0.00  0.00    -0.115 S 
ATOM      9  C   UNL     1       1.022  -0.719  -0.870  0.00  0.00    +0.054 C 
ATOM     10  C   UNL     1       0.061  -0.067   0.151  0.00  0.00    +0.071 C 
ATOM     11  C   UNL     1       1.827  -1.854  -0.233  0.00  0.00    +0.020 C 
ENDROOT
BRANCH   7  12
ATOM     12  C   UNL     1      -0.095   5.530  -0.731  0.00  0.00    +0.052 A 
ATOM     13  C   UNL     1       0.454   6.389   0.212  0.00  0.00    +0.029 A 
ATOM     14  C   UNL     1       0.420   7.754   0.003  0.00  0.00    -0.048 A 
ATOM     15  C   UNL     1      -0.171   8.266  -1.138  0.00  0.00    +0.006 A 
ATOM     16  C   UNL     1      -0.724   7.413  -2.075  0.00  0.00    -0.048 A 
ATOM     17  C   UNL     1      -0.688   6.047  -1.875  0.00  0.00    +0.029 A 
ATOM     18  C   UNL     1      -1.367   7.975  -3.317  0.00  0.00    +0.044 C 
ATOM     19  C   UNL     1       1.021   8.687   1.022  0.00  0.00    +0.044 C 
ENDBRANCH   7  12
BRANCH   1  20
ATOM     20  S   UNL     1      -2.390   4.478   0.794  0.00  0.00    -0.078 S 
BRANCH  20  21
ATOM     21  C   UNL     1      -3.363   3.177   1.592  0.00  0.00    +0.173 C 
BRANCH  21  23
ATOM     22  N   UNL     1      -5.475   2.997   2.867  0.00  0.00    -0.285 N 
ATOM     23  C   UNL     1      -4.595   3.782   2.214  0.00  0.00    +0.227 C 
ATOM     24  O   UNL     1      -4.796   4.975   2.126  0.00  0.00    -0.275 OA
ATOM     25  H   UNL     1      -5.282   2.055   2.995  0.00  0.00    +0.155 HD
BRANCH  22  31
ATOM     26  C   UNL     1     -10.265   2.499   3.856  0.00  0.00    +0.044 C 
ATOM     27  C   UNL     1      -9.002   3.322   3.852  0.00  0.00    -0.048 A 
ATOM     28  C   UNL     1      -9.020   4.617   4.337  0.00  0.00    +0.006 A 
ATOM     29  C   UNL     1      -7.864   5.375   4.335  0.00  0.00    -0.048 A 
ATOM     30  C   UNL     1      -6.687   4.841   3.849  0.00  0.00    +0.026 A 
ATOM     31  C   UNL     1      -6.665   3.541   3.361  0.00  0.00    +0.034 A 
ATOM     32  C   UNL     1      -7.830   2.784   3.359  0.00  0.00    +0.026 A 
ATOM     33  C   UNL     1      -7.888   6.786   4.865  0.00  0.00    +0.044 C 
ENDBRANCH  22  31
ENDBRANCH  21  23
ENDBRANCH  20  21
ENDBRANCH   1  20
TORSDOF 5
