REMARK  Name = ZINC12467277
REMARK  13 active torsions:
REMARK  status: ('A' for Active; 'I' for Inactive)
REMARK    1  A    between atoms: C_1  and  C_2
REMARK    2  A    between atoms: C_5  and  C_36
REMARK    3  A    between atoms: C_6  and  N_8
REMARK    4  A    between atoms: N_8  and  C_9
REMARK    5  A    between atoms: C_9  and  C_11
REMARK    6  A    between atoms: C_9  and  C_18
REMARK    7  A    between atoms: N_20  and  C_21
REMARK    8  A    between atoms: C_21  and  C_22
REMARK    9  A    between atoms: C_22  and  O_23
REMARK   10  A    between atoms: O_23  and  C_24
REMARK   11  A    between atoms: C_25  and  C_27
REMARK   12  A    between atoms: C_28  and  N_35
REMARK   13  A    between atoms: C_29  and  C_32
REMARK                            x       y       z     vdW  Elec       q    Type
REMARK                         _______ _______ _______ _____ _____    ______ ____
ROOT
ATOM      1  N   UNL     1      -4.197   2.601   2.714  0.00  0.00    -0.251 N 
ATOM      2  C   UNL     1      -4.741   3.751   2.270  0.00  0.00    +0.262 C 
ATOM      3  O   UNL     1      -5.914   3.783   1.944  0.00  0.00    -0.269 OA
ENDROOT
BRANCH   1   9
ATOM      4  C   UNL     1       0.527   2.058   1.469  0.00  0.00    +0.044 C 
ATOM      5  C   UNL     1      -0.539   2.302   2.505  0.00  0.00    -0.049 A 
ATOM      6  C   UNL     1      -0.185   2.491   3.829  0.00  0.00    +0.004 A 
ATOM      7  C   UNL     1      -1.160   2.715   4.783  0.00  0.00    +0.005 A 
ATOM      8  C   UNL     1      -2.492   2.752   4.417  0.00  0.00    -0.029 A 
ATOM      9  C   UNL     1      -2.850   2.563   3.088  0.00  0.00    +0.041 A 
ATOM     10  C   UNL     1      -1.868   2.343   2.131  0.00  0.00    +0.027 A 
ATOM     11  C   UNL     1      -3.554   2.998   5.457  0.00  0.00    +0.045 C 
ENDBRANCH   1   9
BRANCH   2  12
ATOM     12  C   UNL     1      -3.923   4.961   2.179  0.00  0.00    +0.116 A 
ATOM     13  C   UNL     1      -4.278   6.240   1.746  0.00  0.00    +0.076 A 
ATOM     14  C   UNL     1      -3.215   7.140   1.809  0.00  0.00    +0.155 A 
ATOM     15  N   UNL     1      -2.042   6.722   2.233  0.00  0.00    -0.203 NA
ATOM     16  S   UNL     1      -2.204   5.194   2.584  0.00  0.00    +0.019 S 
BRANCH  14  17
ATOM     17  C   UNL     1      -3.401   8.543   1.396  0.00  0.00    +0.262 C 
ATOM     18  O   UNL     1      -4.487   8.923   1.004  0.00  0.00    -0.269 OA
ATOM     19  N   UNL     1      -2.366   9.405   1.453  0.00  0.00    -0.324 N 
ATOM     20  H   UNL     1      -1.500   9.103   1.766  0.00  0.00    +0.145 HD
ATOM     21  H   UNL     1      -2.489  10.329   1.182  0.00  0.00    +0.145 HD
ENDBRANCH  14  17
BRANCH  13  22
ATOM     22  N   UNL     1      -5.551   6.579   1.307  0.00  0.00    -0.355 N 
ATOM     23  H   UNL     1      -6.252   5.910   1.288  0.00  0.00    +0.142 HD
ATOM     24  H   UNL     1      -5.739   7.486   1.018  0.00  0.00    +0.142 HD
ENDBRANCH  13  22
ENDBRANCH   2  12
BRANCH   1  25
ATOM     25  C   UNL     1      -5.016   1.390   2.805  0.00  0.00    +0.197 C 
BRANCH  25  26
ATOM     26  C   UNL     1      -4.220   0.293   3.463  0.00  0.00    -0.018 A 
ATOM     27  C   UNL     1      -3.064  -0.175   2.867  0.00  0.00    +0.009 A 
ATOM     28  C   UNL     1      -2.330  -1.178   3.472  0.00  0.00    +0.038 A 
ATOM     29  C   UNL     1      -2.759  -1.721   4.671  0.00  0.00    +0.123 A 
ATOM     30  C   UNL     1      -3.920  -1.256   5.265  0.00  0.00    +0.038 A 
ATOM     31  C   UNL     1      -4.649  -0.249   4.660  0.00  0.00    +0.009 A 
ATOM     32  F   UNL     1      -2.046  -2.705   5.261  0.00  0.00    -0.205 F 
ENDBRANCH  25  26
BRANCH  25  33
ATOM     33  C   UNL     1      -5.423   0.954   1.421  0.00  0.00    +0.239 C 
ATOM     34  O   UNL     1      -5.065   1.592   0.454  0.00  0.00    -0.273 OA
ATOM     35  N   UNL     1      -6.186  -0.145   1.258  0.00  0.00    -0.311 N 
ATOM     36  H   UNL     1      -6.474  -0.656   2.031  0.00  0.00    +0.149 HD
BRANCH  35  37
ATOM     37  C   UNL     1      -6.582  -0.569  -0.087  0.00  0.00    +0.132 C 
BRANCH  37  38
ATOM     38  C   UNL     1      -7.438  -1.834   0.007  0.00  0.00    +0.178 C 
BRANCH  38  39
ATOM     39  O   UNL     1      -8.660  -1.532   0.683  0.00  0.00    -0.381 OA
ATOM     40  C   UNL     1      -9.537  -2.652   0.826  0.00  0.00    +0.194 C 
ENDBRANCH  38  39
ENDBRANCH  37  38
ENDBRANCH  35  37
ENDBRANCH  25  33
ENDBRANCH   1  25
TORSDOF 10
