REMARK  Name = ZINC48721912
REMARK  9 active torsions:
REMARK  status: ('A' for Active; 'I' for Inactive)
REMARK    1  A    between atoms: C_1  and  C_2
REMARK    2  A    between atoms: C_2  and  C_27
REMARK    3  A    between atoms: C_7  and  N_11
REMARK    4  A    between atoms: C_12  and  C_14
REMARK    5  A    between atoms: N_16  and  C_17
REMARK    6  A    between atoms: C_17  and  C_18
REMARK    7  A    between atoms: C_18  and  N_24
REMARK    8  A    between atoms: N_24  and  C_25
REMARK    9  A    between atoms: N_24  and  C_26
REMARK                            x       y       z     vdW  Elec       q    Type
REMARK                         _______ _______ _______ _____ _____    ______ ____
ROOT
ATOM      1  N   UNL     1       5.571  -1.066   1.515  0.00  0.00    -0.278 N 
ATOM      2  C   UNL     1       6.737  -1.293   0.878  0.00  0.00    +0.303 C 
ATOM      3  O   UNL     1       6.774  -1.297  -0.335  0.00  0.00    -0.265 OA
ATOM      4  H   UNL     1       5.551  -1.000   2.483  0.00  0.00    +0.155 HD
ENDROOT
BRANCH   1  11
ATOM      5  C   UNL     1       1.871  -1.403  -3.630  0.00  0.00    +0.104 C 
ATOM      6  C   UNL     1       1.709  -0.120  -2.812  0.00  0.00    +0.248 C 
ATOM      7  O   UNL     1       1.043  -0.395  -1.566  0.00  0.00    -0.448 OA
ATOM      8  C   UNL     1       2.041  -0.652  -0.669  0.00  0.00    +0.167 A 
ATOM      9  C   UNL     1       2.022  -1.269   0.572  0.00  0.00    +0.051 A 
ATOM     10  C   UNL     1       3.191  -1.406   1.296  0.00  0.00    +0.027 A 
ATOM     11  C   UNL     1       4.388  -0.927   0.781  0.00  0.00    +0.038 A 
ATOM     12  C   UNL     1       4.411  -0.308  -0.462  0.00  0.00    +0.073 A 
ATOM     13  C   UNL     1       3.240  -0.170  -1.188  0.00  0.00    +0.169 A 
ATOM     14  O   UNL     1       2.994   0.388  -2.409  0.00  0.00    -0.448 OA
ATOM     15  C   UNL     1       0.942   0.933  -3.614  0.00  0.00    +0.104 C 
ENDBRANCH   1  11
BRANCH   2  16
ATOM     16  C   UNL     1       7.982  -1.538   1.665  0.00  0.00    +0.299 C 
ATOM     17  O   UNL     1       7.944  -1.534   2.878  0.00  0.00    -0.265 OA
ATOM     18  N   UNL     1       9.148  -1.764   1.028  0.00  0.00    -0.309 N 
ATOM     19  H   UNL     1       9.178  -1.768   0.058  0.00  0.00    +0.149 HD
BRANCH  18  20
ATOM     20  C   UNL     1      10.370  -2.005   1.800  0.00  0.00    +0.093 C 
BRANCH  20  21
ATOM     21  C   UNL     1      11.562  -2.108   0.847  0.00  0.00    -0.050 C 
ATOM     22  C   UNL     1      12.836  -2.374   1.652  0.00  0.00    -0.010 C 
ATOM     23  C   UNL     1      13.067  -1.225   2.636  0.00  0.00    -0.001 C 
ATOM     24  C   UNL     1      13.216   0.087   1.863  0.00  0.00    -0.000 C 
ATOM     25  C   UNL     1      11.943   0.352   1.058  0.00  0.00    -0.001 C 
ATOM     26  C   UNL     1      11.712  -0.796   0.074  0.00  0.00    -0.010 C 
BRANCH  21  27
ATOM     27  N   UNL     1      11.341  -3.211  -0.098  0.00  0.00    +0.381 N 
ATOM     28  C   UNL     1      12.534  -3.383  -0.937  0.00  0.00    -0.096 C 
ATOM     29  C   UNL     1      11.084  -4.450   0.648  0.00  0.00    -0.096 C 
ATOM     30  H   UNL     1      10.546  -2.999  -0.682  0.00  0.00    -0.082 HD
ENDBRANCH  21  27
ENDBRANCH  20  21
ENDBRANCH  18  20
ENDBRANCH   2  16
TORSDOF 5
