REMARK  Name = ZINC34683901
REMARK  9 active torsions:
REMARK  status: ('A' for Active; 'I' for Inactive)
REMARK    1  A    between atoms: C_1  and  O_2
REMARK    2  A    between atoms: O_2  and  C_3
REMARK    3  A    between atoms: C_7  and  C_10
REMARK    4  A    between atoms: C_8  and  O_9
REMARK    5  A    between atoms: C_10  and  N_11
REMARK    6  A    between atoms: C_14  and  N_17
REMARK    7  A    between atoms: N_17  and  C_18
REMARK    8  A    between atoms: N_17  and  S_24
REMARK    9  A    between atoms: S_24  and  C_27
REMARK                            x       y       z     vdW  Elec       q    Type
REMARK                         _______ _______ _______ _____ _____    ______ ____
ROOT
ATOM      1  N   UNL     1       0.375  -5.715  -3.352  0.00  0.00    +0.383 N 
ATOM      2  C   UNL     1      -0.290  -5.069  -2.214  0.00  0.00    -0.077 C 
ATOM      3  C   UNL     1      -1.807  -5.137  -2.399  0.00  0.00    +0.006 C 
ATOM      4  C   UNL     1      -2.241  -6.603  -2.480  0.00  0.00    +0.095 C 
ATOM      5  C   UNL     1      -1.485  -7.286  -3.624  0.00  0.00    +0.006 C 
ATOM      6  C   UNL     1       0.020  -7.139  -3.393  0.00  0.00    -0.077 C 
ATOM      7  H   UNL     1       0.080  -5.271  -4.208  0.00  0.00    -0.081 HD
ENDROOT
BRANCH   1   8
ATOM      8  C   UNL     1       1.831  -5.579  -3.208  0.00  0.00    -0.039 C 
BRANCH   8  13
ATOM      9  C   UNL     1       2.625  -2.159  -4.623  0.00  0.00    +0.161 A 
ATOM     10  C   UNL     1       2.912  -1.448  -3.469  0.00  0.00    +0.049 A 
ATOM     11  C   UNL     1       2.847  -2.073  -2.238  0.00  0.00    +0.004 A 
ATOM     12  C   UNL     1       2.498  -3.408  -2.155  0.00  0.00    +0.005 A 
ATOM     13  C   UNL     1       2.211  -4.124  -3.302  0.00  0.00    -0.019 A 
ATOM     14  C   UNL     1       2.268  -3.501  -4.539  0.00  0.00    +0.160 A 
BRANCH   9  16
ATOM     15  C   UNL     1       3.061  -0.166  -5.845  0.00  0.00    +0.277 C 
ATOM     16  O   UNL     1       2.687  -1.545  -5.835  0.00  0.00    -0.491 OA
ENDBRANCH   9  16
BRANCH  14  17
ATOM     17  O   UNL     1       1.980  -4.202  -5.669  0.00  0.00    -0.503 OA
ATOM     18  H   UNL     1       2.730  -4.697  -6.026  0.00  0.00    +0.292 HD
ENDBRANCH  14  17
ENDBRANCH   8  13
ENDBRANCH   1   8
BRANCH   4  19
ATOM     19  N   UNL     1      -3.682  -6.675  -2.734  0.00  0.00    -0.200 N 
BRANCH  19  20
ATOM     20  C   UNL     1      -4.209  -6.159  -3.920  0.00  0.00    +0.052 A 
ATOM     21  C   UNL     1      -4.255  -4.785  -4.122  0.00  0.00    +0.025 A 
ATOM     22  C   UNL     1      -4.776  -4.278  -5.296  0.00  0.00    +0.002 A 
ATOM     23  C   UNL     1      -5.252  -5.137  -6.270  0.00  0.00    +0.000 A 
ATOM     24  C   UNL     1      -5.208  -6.505  -6.072  0.00  0.00    +0.002 A 
ATOM     25  C   UNL     1      -4.683  -7.018  -4.903  0.00  0.00    +0.025 A 
ENDBRANCH  19  20
BRANCH  19  26
ATOM     26  S   UNL     1      -4.686  -7.367  -1.614  0.00  0.00    +0.075 S 
ATOM     27  O   UNL     1      -5.793  -7.894  -2.332  0.00  0.00    -0.150 OA
ATOM     28  O   UNL     1      -3.868  -8.173  -0.777  0.00  0.00    -0.150 OA
BRANCH  26  29
ATOM     29  C   UNL     1      -5.314  -6.067  -0.603  0.00  0.00    +0.109 A 
ATOM     30  C   UNL     1      -4.631  -5.688   0.538  0.00  0.00    +0.031 A 
ATOM     31  C   UNL     1      -5.123  -4.669   1.331  0.00  0.00    +0.040 A 
ATOM     32  C   UNL     1      -6.299  -4.027   0.983  0.00  0.00    +0.124 A 
ATOM     33  C   UNL     1      -6.982  -4.408  -0.160  0.00  0.00    +0.040 A 
ATOM     34  C   UNL     1      -6.486  -5.424  -0.954  0.00  0.00    +0.031 A 
ATOM     35  F   UNL     1      -6.781  -3.031   1.758  0.00  0.00    -0.205 F 
ENDBRANCH  26  29
ENDBRANCH  19  26
ENDBRANCH   4  19
TORSDOF 8
