REMARK  Name = ZINC00946540
REMARK  6 active torsions:
REMARK  status: ('A' for Active; 'I' for Inactive)
REMARK    1  A    between atoms: C_1  and  C_2
REMARK    2  A    between atoms: C_5  and  C_8
REMARK    3  A    between atoms: C_10  and  C_22
REMARK    4  A    between atoms: C_12  and  C_17
REMARK    5  A    between atoms: C_12  and  O_21
REMARK    6  A    between atoms: C_22  and  C_24
REMARK                            x       y       z     vdW  Elec       q    Type
REMARK                         _______ _______ _______ _____ _____    ______ ____
ROOT
ATOM      1  C   UNL     1       0.017   3.375   0.373  0.00  0.00    +0.117 C 
ATOM      2  C   UNL     1       0.870   2.930  -0.819  0.00  0.00    +0.144 C 
ATOM      3  C   UNL     1       1.353   1.498  -0.566  0.00  0.00    +0.241 C 
ATOM      4  N   UNL     1       0.195   0.638  -0.316  0.00  0.00    -0.291 N 
ATOM      5  C   UNL     1      -0.931   1.125   0.228  0.00  0.00    +0.133 C 
ATOM      6  S   UNL     1      -2.242   0.057   0.498  0.00  0.00    -0.019 S 
ATOM      7  N   UNL     1      -1.069   2.414   0.572  0.00  0.00    -0.319 N 
ATOM      8  H   UNL     1       0.241  -0.302  -0.551  0.00  0.00    +0.151 HD
ATOM      9  H   UNL     1      -1.906   2.716   0.958  0.00  0.00    +0.148 HD
ENDROOT
BRANCH   1  14
ATOM     10  C   UNL     1      -2.204   8.604  -0.688  0.00  0.00    +0.044 C 
ATOM     11  C   UNL     1      -1.625   7.240  -0.411  0.00  0.00    -0.050 A 
ATOM     12  C   UNL     1      -0.507   7.114   0.392  0.00  0.00    +0.004 A 
ATOM     13  C   UNL     1       0.025   5.863   0.646  0.00  0.00    +0.006 A 
ATOM     14  C   UNL     1      -0.562   4.739   0.097  0.00  0.00    -0.026 A 
ATOM     15  C   UNL     1      -1.677   4.865  -0.710  0.00  0.00    +0.006 A 
ATOM     16  C   UNL     1      -2.211   6.116  -0.961  0.00  0.00    +0.004 A 
ENDBRANCH   1  14
BRANCH   3  17
ATOM     17  C   UNL     1       2.111   0.989  -1.794  0.00  0.00    +0.436 C 
ATOM     18  F   UNL     1       1.304   1.123  -2.929  0.00  0.00    -0.166 F 
ATOM     19  F   UNL     1       3.281   1.737  -1.962  0.00  0.00    -0.166 F 
ATOM     20  F   UNL     1       2.441  -0.358  -1.613  0.00  0.00    -0.166 F 
ENDBRANCH   3  17
BRANCH   3  21
ATOM     21  O   UNL     1       2.216   1.479   0.572  0.00  0.00    -0.364 OA
ATOM     22  H   UNL     1       2.556   0.601   0.794  0.00  0.00    +0.212 HD
ENDBRANCH   3  21
BRANCH   2  23
ATOM     23  C   UNL     1       2.058   3.846  -0.962  0.00  0.00    +0.173 C 
ATOM     24  O   UNL     1       2.643   4.238   0.025  0.00  0.00    -0.292 OA
BRANCH  23  25
ATOM     25  C   UNL     1       2.508   4.265  -2.299  0.00  0.00    +0.018 A 
ATOM     26  C   UNL     1       1.768   3.913  -3.432  0.00  0.00    +0.011 A 
ATOM     27  C   UNL     1       2.194   4.314  -4.681  0.00  0.00    +0.001 A 
ATOM     28  C   UNL     1       3.356   5.054  -4.815  0.00  0.00    +0.000 A 
ATOM     29  C   UNL     1       4.096   5.402  -3.699  0.00  0.00    +0.001 A 
ATOM     30  C   UNL     1       3.681   5.013  -2.443  0.00  0.00    +0.011 A 
ENDBRANCH  23  25
ENDBRANCH   2  23
TORSDOF 5
