REMARK  Name = ZINC63386325
REMARK  9 active torsions:
REMARK  status: ('A' for Active; 'I' for Inactive)
REMARK    1  A    between atoms: C_1  and  C_2
REMARK    2  A    between atoms: C_13  and  C_15
REMARK    3  A    between atoms: C_15  and  C_16
REMARK    4  A    between atoms: N_18  and  C_19
REMARK    5  A    between atoms: C_19  and  C_21
REMARK    6  A    between atoms: C_19  and  C_22
REMARK    7  A    between atoms: C_22  and  C_23
REMARK    8  A    between atoms: C_33  and  C_36
REMARK    9  A    between atoms: C_33  and  C_37
REMARK                            x       y       z     vdW  Elec       q    Type
REMARK                         _______ _______ _______ _____ _____    ______ ____
ROOT
ATOM      1  C   UNL     1      -0.019   1.526   0.010  0.00  0.00    +0.013 C 
ATOM      2  C   UNL     1       0.002  -0.004   0.002  0.00  0.00    +0.034 C 
ATOM      3  C   UNL     1       0.705  -0.489  -1.241  0.00  0.00    -0.001 A 
ATOM      4  C   UNL     1      -0.001  -0.513  -2.433  0.00  0.00    +0.014 A 
ATOM      5  C   UNL     1       0.601  -0.943  -3.602  0.00  0.00    -0.005 A 
ATOM      6  C   UNL     1       1.924  -1.351  -3.586  0.00  0.00    +0.128 A 
ATOM      7  C   UNL     1       2.633  -1.332  -2.392  0.00  0.00    +0.092 A 
ATOM      8  C   UNL     1       2.024  -0.905  -1.219  0.00  0.00    +0.139 A 
ATOM      9  O   UNL     1       2.753  -0.920  -0.069  0.00  0.00    -0.425 OA
ATOM     10  C   UNL     1       2.223  -0.314   1.012  0.00  0.00    +0.316 C 
ATOM     11  O   UNL     1       2.899   0.353   1.759  0.00  0.00    -0.250 OA
ATOM     12  C   UNL     1       0.740  -0.510   1.246  0.00  0.00    +0.114 C 
ATOM     13  O   UNL     1       2.559  -1.767  -4.712  0.00  0.00    -0.486 OA
ATOM     14  C   UNL     1       1.756  -2.136  -5.834  0.00  0.00    +0.105 C 
ATOM     15  C   UNL     1       0.729  -1.023  -6.082  0.00  0.00    +0.052 C 
ATOM     16  C   UNL     1      -0.209  -0.957  -4.874  0.00  0.00    +0.042 C 
ATOM     17  C   UNL     1       1.030  -3.450  -5.537  0.00  0.00    +0.055 C 
ATOM     18  C   UNL     1       2.642  -2.304  -7.069  0.00  0.00    +0.055 C 
ENDROOT
BRANCH  12  19
ATOM     19  C   UNL     1       0.440  -1.995   1.459  0.00  0.00    +0.111 C 
BRANCH  19  20
ATOM     20  C   UNL     1       1.068  -2.454   2.749  0.00  0.00    +0.214 C 
ATOM     21  O   UNL     1       1.694  -1.671   3.431  0.00  0.00    -0.276 OA
ATOM     22  N   UNL     1       0.934  -3.735   3.146  0.00  0.00    -0.312 N 
ATOM     23  H   UNL     1       0.433  -4.362   2.600  0.00  0.00    +0.149 HD
BRANCH  22  24
ATOM     24  C   UNL     1       1.545  -4.182   4.400  0.00  0.00    +0.074 C 
ATOM     25  C   UNL     1       0.601  -3.877   5.564  0.00  0.00    +0.028 C 
BRANCH  24  26
ATOM     26  C   UNL     1       1.803  -5.688   4.334  0.00  0.00    +0.055 C 
BRANCH  26  27
ATOM     27  C   UNL     1       2.828  -5.976   3.267  0.00  0.00    -0.040 C 
ATOM     28  C   UNL     1       4.161  -6.126   3.439  0.00  0.00    -0.001 A 
ATOM     29  C   UNL     1       5.023  -6.067   4.625  0.00  0.00    +0.010 A 
ATOM     30  C   UNL     1       6.354  -6.262   4.479  0.00  0.00    +0.001 A 
ATOM     31  C   UNL     1       6.928  -6.518   3.227  0.00  0.00    +0.002 A 
ATOM     32  C   UNL     1       6.201  -6.587   2.091  0.00  0.00    +0.026 A 
ATOM     33  C   UNL     1       4.792  -6.398   2.128  0.00  0.00    +0.043 A 
ATOM     34  N   UNL     1       3.884  -6.416   1.182  0.00  0.00    -0.380 N 
ATOM     35  C   UNL     1       2.572  -6.162   1.788  0.00  0.00    +0.144 C 
ATOM     36  H   UNL     1       4.052  -6.574   0.240  0.00  0.00    +0.160 HD
ENDBRANCH  26  27
ENDBRANCH  24  26
ENDBRANCH  22  24
ENDBRANCH  19  20
ENDBRANCH  12  19
TORSDOF 5
