REMARK  Name = ZINC32624692
REMARK  15 active torsions:
REMARK  status: ('A' for Active; 'I' for Inactive)
REMARK    1  A    between atoms: C_1  and  C_2
REMARK    2  A    between atoms: C_2  and  N_3
REMARK    3  A    between atoms: N_3  and  C_4
REMARK    4  A    between atoms: N_3  and  C_6
REMARK    5  A    between atoms: C_4  and  C_5
REMARK    6  A    between atoms: C_6  and  C_8
REMARK    7  A    between atoms: C_6  and  C_30
REMARK    8  A    between atoms: C_8  and  N_9
REMARK    9  A    between atoms: C_10  and  C_12
REMARK   10  A    between atoms: C_12  and  S_13
REMARK   11  A    between atoms: S_13  and  C_14
REMARK   12  A    between atoms: N_24  and  C_25
REMARK   13  A    between atoms: C_25  and  C_26
REMARK   14  A    between atoms: C_26  and  C_27
REMARK   15  A    between atoms: C_26  and  C_28
REMARK                            x       y       z     vdW  Elec       q    Type
REMARK                         _______ _______ _______ _____ _____    ______ ____
ROOT
ATOM      1  C   UNL     1       2.012   4.296   3.650  0.00  0.00    +0.173 C 
ENDROOT
BRANCH   1   3
ATOM      2  N   UNL     1       2.530   6.665   3.159  0.00  0.00    -0.316 N 
ATOM      3  C   UNL     1       2.844   5.365   2.988  0.00  0.00    +0.223 C 
ATOM      4  O   UNL     1       3.795   5.056   2.302  0.00  0.00    -0.275 OA
ATOM      5  H   UNL     1       1.718   6.949   3.844  0.00  0.00    +0.149 HD
BRANCH   2   6
ATOM      6  C   UNL     1       3.271   7.699   2.432  0.00  0.00    +0.096 C 
BRANCH   6   7
ATOM      7  C   UNL     1       2.805   9.081   2.895  0.00  0.00    +0.016 C 
BRANCH   7   8
ATOM      8  C   UNL     1       3.669  10.140   2.261  0.00  0.00    +0.093 A 
ATOM      9  C   UNL     1       3.228  11.191   1.546  0.00  0.00    +0.043 A 
ATOM     10  C   UNL     1       4.370  11.921   1.145  0.00  0.00    +0.041 A 
ATOM     11  C   UNL     1       5.441  11.274   1.639  0.00  0.00    +0.195 A 
ATOM     12  O   UNL     1       5.010  10.199   2.319  0.00  0.00    -0.469 OA
ENDBRANCH   7   8
BRANCH   7  13
ATOM     13  N   UNL     1       2.915   9.169   4.357  0.00  0.00    +0.387 N 
ATOM     14  H   UNL     1       2.677   8.180   4.774  0.00  0.00    -0.081 HD
BRANCH  13  16
ATOM     15  C   UNL     1       5.224   8.355   4.415  0.00  0.00    -0.017 C 
ATOM     16  C   UNL     1       4.285   9.512   4.762  0.00  0.00    -0.081 C 
ENDBRANCH  13  16
BRANCH  13  17
ATOM     17  C   UNL     1       1.949  10.133   4.900  0.00  0.00    -0.081 C 
ATOM     18  C   UNL     1       0.551   9.510   4.899  0.00  0.00    -0.017 C 
ENDBRANCH  13  17
ENDBRANCH   7  13
ENDBRANCH   6   7
ENDBRANCH   2   6
ENDBRANCH   1   3
BRANCH   1  19
ATOM     19  S   UNL     1       2.584   2.666   3.109  0.00  0.00    -0.078 S 
BRANCH  19  20
ATOM     20  C   UNL     1       1.471   1.638   4.009  0.00  0.00    +0.173 A 
ATOM     21  N   UNL     1       0.576   2.208   4.776  0.00  0.00    -0.223 NA
ATOM     22  C   UNL     1      -0.306   1.478   5.499  0.00  0.00    +0.079 A 
ATOM     23  C   UNL     1      -1.257   2.086   6.323  0.00  0.00    +0.030 A 
ATOM     24  C   UNL     1      -2.129   1.314   7.037  0.00  0.00    +0.022 A 
ATOM     25  C   UNL     1      -2.087  -0.073   6.958  0.00  0.00    +0.042 A 
ATOM     26  C   UNL     1      -1.160  -0.702   6.155  0.00  0.00    +0.035 A 
ATOM     27  C   UNL     1      -0.261   0.068   5.417  0.00  0.00    +0.066 A 
ATOM     28  C   UNL     1       0.750  -0.545   4.544  0.00  0.00    +0.262 A 
ATOM     29  O   UNL     1       0.837  -1.754   4.432  0.00  0.00    -0.267 OA
ATOM     30  N   UNL     1       1.579   0.284   3.869  0.00  0.00    -0.287 N 
ATOM     31 CL   UNL     1      -3.211  -1.022   7.880  0.00  0.00    -0.084 Cl
BRANCH  30  32
ATOM     32  C   UNL     1       2.604  -0.276   2.985  0.00  0.00    +0.130 C 
BRANCH  32  33
ATOM     33  C   UNL     1       2.031  -0.437   1.576  0.00  0.00    +0.003 C 
ATOM     34  C   UNL     1       1.591   0.928   1.045  0.00  0.00    +0.009 C 
ATOM     35  C   UNL     1       3.102  -1.022   0.653  0.00  0.00    +0.009 C 
ENDBRANCH  32  33
ENDBRANCH  30  32
ENDBRANCH  19  20
ENDBRANCH   1  19
TORSDOF 11
