REMARK  Name = ZINC34738185
REMARK  13 active torsions:
REMARK  status: ('A' for Active; 'I' for Inactive)
REMARK    1  A    between atoms: C_1  and  C_2
REMARK    2  A    between atoms: C_2  and  C_3
REMARK    3  A    between atoms: C_3  and  C_4
REMARK    4  A    between atoms: C_4  and  N_5
REMARK    5  A    between atoms: N_5  and  C_6
REMARK    6  A    between atoms: C_6  and  C_7
REMARK    7  A    between atoms: C_7  and  C_9
REMARK    8  A    between atoms: C_10  and  C_22
REMARK    9  A    between atoms: N_12  and  C_15
REMARK   10  A    between atoms: C_13  and  O_14
REMARK   11  A    between atoms: C_22  and  C_23
REMARK   12  A    between atoms: C_24  and  C_26
REMARK   13  A    between atoms: C_30  and  N_32
REMARK                            x       y       z     vdW  Elec       q    Type
REMARK                         _______ _______ _______ _____ _____    ______ ____
ROOT
ATOM      1  C   UNL     1      -0.036  -2.919   4.121  0.00  0.00    +0.187 C 
ATOM      2  O   UNL     1      -0.083  -3.915   3.429  0.00  0.00    -0.290 OA
ENDROOT
BRANCH   1   3
ATOM      3  C   UNL     1      -0.797  -2.848   5.314  0.00  0.00    +0.103 A 
ATOM      4  C   UNL     1      -1.650  -3.856   5.833  0.00  0.00    +0.077 A 
ATOM      5  N   UNL     1      -2.169  -3.416   6.943  0.00  0.00    -0.168 NA
ATOM      6  N   UNL     1      -1.691  -2.127   7.199  0.00  0.00    -0.200 N 
ATOM      7  C   UNL     1      -0.846  -1.778   6.207  0.00  0.00    +0.227 A 
BRANCH   6   8
ATOM      8  C   UNL     1      -2.028  -1.333   8.303  0.00  0.00    +0.069 A 
ATOM      9  C   UNL     1      -1.083  -0.483   8.864  0.00  0.00    +0.029 A 
ATOM     10  C   UNL     1      -1.418   0.298   9.952  0.00  0.00    +0.022 A 
ATOM     11  C   UNL     1      -2.694   0.235  10.484  0.00  0.00    +0.041 A 
ATOM     12  C   UNL     1      -3.637  -0.610   9.928  0.00  0.00    +0.022 A 
ATOM     13  C   UNL     1      -3.309  -1.389   8.836  0.00  0.00    +0.029 A 
ATOM     14 CL   UNL     1      -3.111   1.219  11.852  0.00  0.00    -0.084 Cl
ENDBRANCH   6   8
BRANCH   7  15
ATOM     15  O   UNL     1      -0.176  -0.608   6.096  0.00  0.00    -0.492 OA
ATOM     16  H   UNL     1      -0.657   0.077   5.613  0.00  0.00    +0.294 HD
ENDBRANCH   7  15
BRANCH   4  17
ATOM     17  C   UNL     1      -1.911  -5.202   5.207  0.00  0.00    +0.055 C 
ATOM     18  C   UNL     1      -0.891  -6.215   5.733  0.00  0.00    +0.010 C 
ENDBRANCH   4  17
ENDBRANCH   1   3
BRANCH   1  19
ATOM     19  C   UNL     1       0.831  -1.756   3.710  0.00  0.00    +0.187 C 
BRANCH  19  20
ATOM     20  N   UNL     1       1.509  -2.074   2.451  0.00  0.00    -0.290 N 
ATOM     21  C   UNL     1       2.775  -2.537   2.466  0.00  0.00    +0.247 C 
ATOM     22  O   UNL     1       3.364  -2.728   1.421  0.00  0.00    -0.270 OA
BRANCH  21  23
ATOM     23  C   UNL     1       3.446  -2.813   3.754  0.00  0.00    +0.039 A 
ATOM     24  C   UNL     1       2.794  -3.555   4.740  0.00  0.00    +0.013 A 
ATOM     25  C   UNL     1       3.426  -3.809   5.939  0.00  0.00    +0.003 A 
ATOM     26  C   UNL     1       4.703  -3.329   6.167  0.00  0.00    +0.033 A 
ATOM     27  C   UNL     1       5.355  -2.592   5.194  0.00  0.00    +0.127 A 
ATOM     28  C   UNL     1       4.737  -2.337   3.988  0.00  0.00    +0.045 A 
BRANCH  27  29
ATOM     29  N   UNL     1       6.722  -2.082   5.447  0.00  0.00    +0.056 N 
ATOM     30  O   UNL     1       7.267  -2.310   6.501  0.00  0.00    -0.126 OA
ATOM     31  O   UNL     1       7.293  -1.438   4.598  0.00  0.00    -0.126 OA
ENDBRANCH  27  29
ENDBRANCH  21  23
BRANCH  20  32
ATOM     32  C   UNL     1       0.812  -1.887   1.176  0.00  0.00    +0.108 C 
BRANCH  32  33
ATOM     33  C   UNL     1       0.969  -0.436   0.717  0.00  0.00    +0.019 C 
BRANCH  33  35
ATOM     34  C   UNL     1       0.398   1.209  -1.075  0.00  0.00    +0.004 C 
ATOM     35  C   UNL     1       0.241  -0.242  -0.615  0.00  0.00    -0.002 C 
ENDBRANCH  33  35
ENDBRANCH  32  33
ENDBRANCH  20  32
ENDBRANCH  19  20
ENDBRANCH   1  19
TORSDOF 11
