REMARK  Name = ZINC64164500
REMARK  6 active torsions:
REMARK  status: ('A' for Active; 'I' for Inactive)
REMARK    1  A    between atoms: C_1  and  C_2
REMARK    2  A    between atoms: C_2  and  C_3
REMARK    3  A    between atoms: C_6  and  N_9
REMARK    4  A    between atoms: C_12  and  C_18
REMARK    5  A    between atoms: N_32  and  C_33
REMARK    6  A    between atoms: C_33  and  C_34
REMARK                            x       y       z     vdW  Elec       q    Type
REMARK                         _______ _______ _______ _____ _____    ______ ____
ROOT
ATOM      1  N   UNL     1       2.614  -2.213  -7.002  0.00  0.00    -0.229 N 
ATOM      2  C   UNL     1       3.923  -2.534  -7.004  0.00  0.00    +0.266 A 
ATOM      3  O   UNL     1       4.498  -2.762  -8.054  0.00  0.00    -0.267 OA
ATOM      4  C   UNL     1       4.622  -2.603  -5.785  0.00  0.00    +0.071 A 
ATOM      5  C   UNL     1       3.956  -2.342  -4.624  0.00  0.00    +0.259 A 
ATOM      6  N   UNL     1       2.623  -2.020  -4.668  0.00  0.00    -0.274 N 
ATOM      7  C   UNL     1       1.976  -1.955  -5.846  0.00  0.00    +0.337 A 
ATOM      8  O   UNL     1       0.796  -1.663  -5.866  0.00  0.00    -0.246 OA
ATOM      9  O   UNL     1       4.603  -2.402  -3.441  0.00  0.00    -0.267 OA
ATOM     10  H   UNL     1       2.145  -1.834  -3.845  0.00  0.00    +0.173 HD
ENDROOT
BRANCH   4  11
ATOM     11  C   UNL     1       6.086  -2.959  -5.763  0.00  0.00    -0.000 C 
ATOM     12  C   UNL     1       6.309  -4.160  -4.842  0.00  0.00    +0.097 C 
ATOM     13  C   UNL     1       5.960  -3.687  -3.435  0.00  0.00    -0.041 C 
ATOM     14  C   UNL     1       5.068  -4.545  -2.961  0.00  0.00    -0.001 A 
ATOM     15  C   UNL     1       4.428  -4.668  -1.642  0.00  0.00    +0.010 A 
ATOM     16  C   UNL     1       3.529  -5.679  -1.503  0.00  0.00    +0.001 A 
ATOM     17  C   UNL     1       3.207  -6.569  -2.533  0.00  0.00    +0.002 A 
ATOM     18  C   UNL     1       3.752  -6.534  -3.775  0.00  0.00    +0.026 A 
ATOM     19  C   UNL     1       4.715  -5.518  -4.041  0.00  0.00    +0.043 A 
ATOM     20  N   UNL     1       5.410  -5.274  -5.135  0.00  0.00    -0.379 N 
ATOM     21  C   UNL     1       6.526  -2.406  -2.872  0.00  0.00    +0.015 C 
ATOM     22  C   UNL     1       6.338  -1.339  -3.966  0.00  0.00    -0.073 C 
ATOM     23  N   UNL     1       6.865  -1.824  -5.245  0.00  0.00    +0.386 N 
ATOM     24  H   UNL     1       5.340  -5.740  -5.983  0.00  0.00    +0.160 HD
ATOM     25  H   UNL     1       7.822  -2.115  -5.116  0.00  0.00    -0.081 HD
BRANCH  23  26
ATOM     26  C   UNL     1       6.827  -0.731  -6.225  0.00  0.00    -0.081 C 
ATOM     27  C   UNL     1       7.734   0.407  -5.755  0.00  0.00    -0.017 C 
ENDBRANCH  23  26
ENDBRANCH   4  11
BRANCH   1  31
ATOM     28  C   UNL     1       0.533  -2.005 -10.607  0.00  0.00    -0.047 A 
ATOM     29  C   UNL     1       1.163  -0.880 -10.108  0.00  0.00    +0.005 A 
ATOM     30  C   UNL     1       1.854  -0.946  -8.914  0.00  0.00    +0.026 A 
ATOM     31  C   UNL     1       1.914  -2.143  -8.214  0.00  0.00    +0.054 A 
ATOM     32  C   UNL     1       1.279  -3.271  -8.717  0.00  0.00    +0.026 A 
ATOM     33  C   UNL     1       0.586  -3.197  -9.909  0.00  0.00    +0.005 A 
BRANCH  28  35
ATOM     34  C   UNL     1      -1.674  -1.540 -11.638  0.00  0.00    +0.009 C 
ATOM     35  C   UNL     1      -0.220  -1.929 -11.911  0.00  0.00    +0.032 C 
ENDBRANCH  28  35
ENDBRANCH   1  31
TORSDOF 4
