REMARK  Name = ZINC60238883
REMARK  10 active torsions:
REMARK  status: ('A' for Active; 'I' for Inactive)
REMARK    1  A    between atoms: C_1  and  C_2
REMARK    2  A    between atoms: C_5  and  C_8
REMARK    3  A    between atoms: C_8  and  C_10
REMARK    4  A    between atoms: C_8  and  N_26
REMARK    5  A    between atoms: C_10  and  N_11
REMARK    6  A    between atoms: C_12  and  C_14
REMARK    7  A    between atoms: C_14  and  N_15
REMARK    8  A    between atoms: N_15  and  C_16
REMARK    9  A    between atoms: N_15  and  S_17
REMARK   10  A    between atoms: S_17  and  C_20
REMARK                            x       y       z     vdW  Elec       q    Type
REMARK                         _______ _______ _______ _____ _____    ______ ____
ROOT
ATOM      1  N   UNL     1       2.335  -4.280  -0.895  0.00  0.00    -0.315 N 
ATOM      2  C   UNL     1       3.651  -4.571  -0.890  0.00  0.00    +0.229 C 
ATOM      3  O   UNL     1       4.156  -5.083   0.086  0.00  0.00    -0.274 OA
ATOM      4  H   UNL     1       1.932  -3.871  -1.677  0.00  0.00    +0.149 HD
ENDROOT
BRANCH   1   5
ATOM      5  C   UNL     1       1.514  -4.583   0.280  0.00  0.00    +0.093 C 
BRANCH   5   6
ATOM      6  C   UNL     1       0.100  -4.040   0.067  0.00  0.00    -0.020 C 
BRANCH   6  11
ATOM      7  C   UNL     1       0.268   1.731  -0.192  0.00  0.00    +0.044 C 
ATOM      8  C   UNL     1       0.224   0.226  -0.125  0.00  0.00    -0.050 A 
ATOM      9  C   UNL     1       0.152  -0.516  -1.289  0.00  0.00    +0.003 A 
ATOM     10  C   UNL     1       0.112  -1.897  -1.227  0.00  0.00    +0.002 A 
ATOM     11  C   UNL     1       0.144  -2.535  -0.001  0.00  0.00    -0.059 A 
ATOM     12  C   UNL     1       0.216  -1.792   1.163  0.00  0.00    +0.002 A 
ATOM     13  C   UNL     1       0.261  -0.412   1.101  0.00  0.00    +0.003 A 
ENDBRANCH   6  11
BRANCH   6  14
ATOM     14  N   UNL     1      -0.758  -4.454   1.185  0.00  0.00    +0.385 N 
ATOM     15  C   UNL     1      -2.139  -3.946   0.987  0.00  0.00    -0.078 C 
ATOM     16  C   UNL     1      -2.994  -4.890   1.871  0.00  0.00    -0.020 C 
ATOM     17  C   UNL     1      -2.303  -6.260   1.682  0.00  0.00    -0.020 C 
ATOM     18  C   UNL     1      -0.871  -5.928   1.222  0.00  0.00    -0.078 C 
ATOM     19  H   UNL     1      -0.382  -4.113   2.057  0.00  0.00    -0.081 HD
ENDBRANCH   6  14
ENDBRANCH   5   6
ENDBRANCH   1   5
BRANCH   2  20
ATOM     20  C   UNL     1       4.496  -4.260  -2.099  0.00  0.00    +0.204 C 
BRANCH  20  21
ATOM     21  N   UNL     1       5.880  -4.668  -1.846  0.00  0.00    -0.170 NA
ATOM     22  C   UNL     1       6.292  -6.052  -2.088  0.00  0.00    +0.132 C 
BRANCH  21  23
ATOM     23  S   UNL     1       6.979  -3.563  -1.284  0.00  0.00    +0.067 S 
ATOM     24  O   UNL     1       8.263  -4.042  -1.660  0.00  0.00    -0.152 OA
ATOM     25  O   UNL     1       6.500  -2.282  -1.670  0.00  0.00    -0.152 OA
BRANCH  23  26
ATOM     26  C   UNL     1       6.917  -3.615   0.476  0.00  0.00    +0.144 A 
ATOM     27  C   UNL     1       7.636  -4.380   1.333  0.00  0.00    +0.038 A 
ATOM     28  C   UNL     1       7.417  -4.251   2.692  0.00  0.00    +0.030 A 
ATOM     29  C   UNL     1       6.489  -3.362   3.127  0.00  0.00    +0.080 A 
ATOM     30  S   UNL     1       5.896  -2.667   1.593  0.00  0.00    -0.057 S 
ATOM     31 CL   UNL     1       6.008  -2.992   4.753  0.00  0.00    -0.076 Cl
ENDBRANCH  23  26
ENDBRANCH  21  23
ENDBRANCH  20  21
ENDBRANCH   2  20
TORSDOF 8
