REMARK  Name = ZINC57503193
REMARK  9 active torsions:
REMARK  status: ('A' for Active; 'I' for Inactive)
REMARK    1  A    between atoms: C_1  and  C_2
REMARK    2  A    between atoms: C_6  and  C_8
REMARK    3  A    between atoms: C_10  and  C_13
REMARK    4  A    between atoms: N_20  and  C_23
REMARK    5  A    between atoms: C_23  and  C_24
REMARK    6  A    between atoms: N_26  and  C_27
REMARK    7  A    between atoms: C_32  and  C_33
REMARK    8  A    between atoms: C_33  and  C_34
REMARK    9  A    between atoms: C_33  and  C_35
REMARK                            x       y       z     vdW  Elec       q    Type
REMARK                         _______ _______ _______ _____ _____    ______ ____
ROOT
ATOM      1  C   UNL     1       0.096  -5.912   4.391  0.00  0.00    +0.084 A 
ATOM      2  C   UNL     1       0.124  -7.002   3.538  0.00  0.00    +0.018 A 
ATOM      3  C   UNL     1       0.160  -8.297   4.075  0.00  0.00    +0.019 A 
ATOM      4  C   UNL     1       0.167  -8.505   5.405  0.00  0.00    +0.098 A 
ATOM      5  N   UNL     1       0.140  -7.466   6.298  0.00  0.00    -0.250 N 
ATOM      6  C   UNL     1       0.111  -6.161   5.842  0.00  0.00    +0.174 A 
ATOM      7  N   UNL     1       0.096  -5.358   6.874  0.00  0.00    -0.148 NA
ATOM      8  N   UNL     1       0.123  -6.145   8.033  0.00  0.00    -0.203 N 
ATOM      9  C   UNL     1       0.141  -7.438   7.647  0.00  0.00    +0.351 A 
ATOM     10  O   UNL     1       0.168  -8.408   8.385  0.00  0.00    -0.244 OA
ENDROOT
BRANCH   1  13
ATOM     11  C   UNL     1       0.006  -2.868   2.470  0.00  0.00    +0.202 A 
ATOM     12  N   UNL     1       0.041  -4.204   2.589  0.00  0.00    -0.187 NA
ATOM     13  C   UNL     1       0.057  -4.539   3.861  0.00  0.00    +0.262 A 
ATOM     14  O   UNL     1       0.033  -3.410   4.594  0.00  0.00    -0.332 OA
ATOM     15  N   UNL     1       0.005  -2.335   3.668  0.00  0.00    -0.056 NA
BRANCH  11  21
ATOM     16  C   UNL     1      -0.108   1.478   0.013  0.00  0.00    +0.044 C 
ATOM     17  C   UNL     1      -0.076  -0.029   0.006  0.00  0.00    -0.050 A 
ATOM     18  C   UNL     1      -0.071  -0.714  -1.196  0.00  0.00    +0.003 A 
ATOM     19  C   UNL     1      -0.041  -2.096  -1.210  0.00  0.00    +0.001 A 
ATOM     20  C   UNL     1      -0.016  -2.800  -0.023  0.00  0.00    +0.012 A 
ATOM     21  C   UNL     1      -0.021  -2.116   1.190  0.00  0.00    +0.023 A 
ATOM     22  C   UNL     1      -0.046  -0.723   1.198  0.00  0.00    +0.015 A 
ENDBRANCH  11  21
ENDBRANCH   1  13
BRANCH   8  23
ATOM     23  C   UNL     1       0.119  -5.655   9.414  0.00  0.00    +0.244 C 
BRANCH  23  24
ATOM     24  C   UNL     1       1.538  -5.450   9.878  0.00  0.00    +0.239 C 
ATOM     25  O   UNL     1       2.462  -5.691   9.130  0.00  0.00    -0.273 OA
ATOM     26  N   UNL     1       1.781  -5.000  11.125  0.00  0.00    -0.284 N 
ATOM     27  H   UNL     1       1.044  -4.732  11.696  0.00  0.00    +0.155 HD
BRANCH  26  28
ATOM     28  C   UNL     1       3.096  -4.920  11.596  0.00  0.00    +0.037 A 
ATOM     29  C   UNL     1       4.080  -5.737  11.055  0.00  0.00    +0.023 A 
ATOM     30  C   UNL     1       5.377  -5.655  11.522  0.00  0.00    +0.002 A 
ATOM     31  C   UNL     1       5.696  -4.761  12.528  0.00  0.00    +0.000 A 
ATOM     32  C   UNL     1       4.719  -3.947  13.069  0.00  0.00    +0.006 A 
ATOM     33  C   UNL     1       3.421  -4.019  12.602  0.00  0.00    -0.024 A 
BRANCH  33  34
ATOM     34  C   UNL     1       2.357  -3.126  13.187  0.00  0.00    +0.015 C 
ATOM     35  C   UNL     1       2.316  -3.310  14.706  0.00  0.00    +0.012 C 
ATOM     36  C   UNL     1       2.679  -1.667  12.859  0.00  0.00    +0.012 C 
ENDBRANCH  33  34
ENDBRANCH  26  28
ENDBRANCH  23  24
ENDBRANCH   8  23
TORSDOF 6
