REMARK  Name = ZINC67208663
REMARK  11 active torsions:
REMARK  status: ('A' for Active; 'I' for Inactive)
REMARK    1  A    between atoms: C_1  and  C_2
REMARK    2  A    between atoms: C_2  and  C_4
REMARK    3  A    between atoms: C_2  and  N_22
REMARK    4  A    between atoms: N_6  and  C_7
REMARK    5  A    between atoms: N_10  and  C_13
REMARK    6  A    between atoms: C_13  and  C_14
REMARK    7  A    between atoms: C_23  and  O_25
REMARK    8  A    between atoms: O_25  and  C_26
REMARK    9  A    between atoms: C_26  and  C_27
REMARK   10  A    between atoms: C_26  and  C_28
REMARK   11  A    between atoms: C_26  and  C_29
REMARK                            x       y       z     vdW  Elec       q    Type
REMARK                         _______ _______ _______ _____ _____    ______ ____
ROOT
ATOM      1  C   UNL     1      -3.611  -0.724   1.044  0.00  0.00    +0.069 C 
ATOM      2  C   UNL     1      -4.510   0.218   0.237  0.00  0.00    +0.003 C 
ATOM      3  C   UNL     1      -5.957  -0.274   0.319  0.00  0.00    -0.077 C 
ATOM      4  N   UNL     1      -6.394  -0.290   1.720  0.00  0.00    +0.382 N 
ATOM      5  C   UNL     1      -5.582  -1.245   2.484  0.00  0.00    -0.077 C 
ATOM      6  C   UNL     1      -4.121  -0.791   2.486  0.00  0.00    +0.003 C 
ATOM      7  H   UNL     1      -6.288   0.632   2.115  0.00  0.00    -0.081 HD
ENDROOT
BRANCH   1  10
ATOM      8  C   UNL     1      -1.412  -0.526   0.013  0.00  0.00    +0.233 C 
ATOM      9  O   UNL     1      -1.808  -1.223  -0.897  0.00  0.00    -0.274 OA
ATOM     10  N   UNL     1      -2.236  -0.217   1.033  0.00  0.00    -0.311 N 
ATOM     11  H   UNL     1      -1.920   0.341   1.761  0.00  0.00    +0.149 HD
BRANCH   8  13
ATOM     12  C   UNL     1      -0.019   1.526   0.010  0.00  0.00    +0.038 C 
ATOM     13  C   UNL     1       0.002  -0.004   0.002  0.00  0.00    +0.159 C 
BRANCH  13  14
ATOM     14  N   UNL     1       0.688  -0.476  -1.203  0.00  0.00    -0.270 N 
ATOM     15  C   UNL     1       2.031  -0.587  -1.215  0.00  0.00    +0.401 C 
ATOM     16  O   UNL     1       2.673  -0.295  -0.226  0.00  0.00    -0.226 OA
ATOM     17  H   UNL     1       0.175  -0.710  -1.993  0.00  0.00    +0.153 HD
BRANCH  15  18
ATOM     18  O   UNL     1       2.661  -1.021  -2.323  0.00  0.00    -0.445 OA
BRANCH  18  19
ATOM     19  C   UNL     1       4.086  -1.114  -2.264  0.00  0.00    +0.107 C 
ATOM     20  C   UNL     1       4.489  -2.087  -1.154  0.00  0.00    +0.055 C 
ATOM     21  C   UNL     1       4.619  -1.621  -3.606  0.00  0.00    +0.055 C 
ATOM     22  C   UNL     1       4.675   0.267  -1.971  0.00  0.00    +0.055 C 
ENDBRANCH  18  19
ENDBRANCH  15  18
ENDBRANCH  13  14
ENDBRANCH   8  13
ENDBRANCH   1  10
BRANCH   4  23
ATOM     23  C   UNL     1      -7.806  -0.688   1.786  0.00  0.00    -0.043 C 
BRANCH  23  24
ATOM     24  C   UNL     1      -8.291  -0.587   3.209  0.00  0.00    -0.061 A 
ATOM     25  C   UNL     1      -8.179  -1.675   4.056  0.00  0.00    +0.005 A 
ATOM     26  C   UNL     1      -8.622  -1.585   5.362  0.00  0.00    +0.041 A 
ATOM     27  C   UNL     1      -9.179  -0.405   5.823  0.00  0.00    +0.158 A 
ATOM     28  C   UNL     1      -9.291   0.686   4.975  0.00  0.00    +0.159 A 
ATOM     29  C   UNL     1      -8.841   0.594   3.669  0.00  0.00    +0.043 A 
ATOM     30  F   UNL     1      -9.834   1.839   5.423  0.00  0.00    -0.202 F 
ATOM     31  F   UNL     1      -9.613  -0.316   7.100  0.00  0.00    -0.202 F 
ENDBRANCH  23  24
ENDBRANCH   4  23
TORSDOF 7
