REMARK  Name = ZINC36552823
REMARK  14 active torsions:
REMARK  status: ('A' for Active; 'I' for Inactive)
REMARK    1  A    between atoms: C_1  and  C_2
REMARK    2  A    between atoms: C_2  and  C_3
REMARK    3  A    between atoms: C_2  and  C_4
REMARK    4  A    between atoms: C_2  and  C_5
REMARK    5  A    between atoms: C_5  and  C_6
REMARK    6  A    between atoms: C_6  and  C_7
REMARK    7  A    between atoms: C_6  and  C_8
REMARK    8  A    between atoms: C_6  and  N_9
REMARK    9  A    between atoms: C_10  and  C_12
REMARK   10  A    between atoms: C_12  and  C_14
REMARK   11  A    between atoms: C_12  and  N_21
REMARK   12  A    between atoms: C_17  and  O_20
REMARK   13  A    between atoms: N_21  and  C_22
REMARK   14  A    between atoms: C_29  and  C_31
REMARK                            x       y       z     vdW  Elec       q    Type
REMARK                         _______ _______ _______ _____ _____    ______ ____
ROOT
ATOM      1  C   UNL     1       5.269   0.291  -4.109  0.00  0.00    +0.197 C 
ENDROOT
BRANCH   1   2
ATOM      2  C   UNL     1       4.570   1.429  -4.807  0.00  0.00    -0.018 A 
ATOM      3  C   UNL     1       5.081   2.710  -4.720  0.00  0.00    +0.009 A 
ATOM      4  C   UNL     1       4.442   3.755  -5.359  0.00  0.00    +0.046 A 
ATOM      5  C   UNL     1       3.286   3.517  -6.089  0.00  0.00    +0.117 A 
ATOM      6  C   UNL     1       2.776   2.230  -6.175  0.00  0.00    +0.046 A 
ATOM      7  C   UNL     1       3.421   1.188  -5.538  0.00  0.00    +0.009 A 
BRANCH   5   8
ATOM      8  O   UNL     1       2.655   4.544  -6.718  0.00  0.00    -0.507 OA
ATOM      9  H   UNL     1       2.959   4.696  -7.623  0.00  0.00    +0.292 HD
ENDBRANCH   5   8
ENDBRANCH   1   2
BRANCH   1  11
ATOM     10  N   UNL     1       3.997   0.566  -2.006  0.00  0.00    -0.308 N 
ATOM     11  C   UNL     1       5.196   0.495  -2.618  0.00  0.00    +0.239 C 
ATOM     12  O   UNL     1       6.215   0.597  -1.969  0.00  0.00    -0.273 OA
ATOM     13  H   UNL     1       3.182   0.485  -2.525  0.00  0.00    +0.149 HD
BRANCH  10  14
ATOM     14  C   UNL     1       3.925   0.765  -0.556  0.00  0.00    +0.030 C 
ATOM     15  C   UNL     1       4.750   1.994  -0.169  0.00  0.00    +0.031 C 
ATOM     16  C   UNL     1       4.483  -0.469   0.156  0.00  0.00    +0.031 C 
BRANCH  14  17
ATOM     17  C   UNL     1       2.468   0.977  -0.142  0.00  0.00    +0.031 C 
BRANCH  17  19
ATOM     18  C   UNL     1       1.380   1.133  -2.385  0.00  0.00    +0.010 C 
ATOM     19  C   UNL     1       1.787   1.918  -1.137  0.00  0.00    -0.036 C 
ATOM     20  C   UNL     1       2.758   3.034  -1.531  0.00  0.00    +0.010 C 
ATOM     21  C   UNL     1       0.542   2.530  -0.491  0.00  0.00    +0.010 C 
ENDBRANCH  17  19
ENDBRANCH  14  17
ENDBRANCH  10  14
ENDBRANCH   1  11
BRANCH   1  22
ATOM     22  N   UNL     1       6.673   0.250  -4.528  0.00  0.00    -0.254 N 
ATOM     23  C   UNL     1       7.498  -0.691  -4.027  0.00  0.00    +0.241 C 
ATOM     24  O   UNL     1       7.053  -1.579  -3.331  0.00  0.00    -0.273 OA
BRANCH  22  25
ATOM     25  C   UNL     1       7.156   1.187  -5.447  0.00  0.00    +0.039 A 
ATOM     26  C   UNL     1       8.081   2.143  -5.045  0.00  0.00    +0.023 A 
ATOM     27  C   UNL     1       8.557   3.067  -5.954  0.00  0.00    +0.003 A 
ATOM     28  C   UNL     1       8.114   3.043  -7.264  0.00  0.00    +0.020 A 
ATOM     29  C   UNL     1       7.192   2.093  -7.668  0.00  0.00    +0.043 A 
ATOM     30  C   UNL     1       6.717   1.161  -6.764  0.00  0.00    +0.043 A 
ATOM     31 CL   UNL     1       6.638   2.066  -9.313  0.00  0.00    -0.083 Cl
ENDBRANCH  22  25
BRANCH  23  32
ATOM     32  C   UNL     1       8.973  -0.640  -4.333  0.00  0.00    +0.160 C 
ATOM     33  C   UNL     1       9.265  -1.346  -5.675  0.00  0.00    +0.041 C 
ATOM     34  C   UNL     1       9.614  -2.778  -5.208  0.00  0.00    +0.098 C 
ATOM     35  C   UNL     1      10.095  -2.598  -3.785  0.00  0.00    +0.214 C 
ATOM     36  O   UNL     1      10.723  -3.422  -3.154  0.00  0.00    -0.276 OA
ATOM     37  N   UNL     1       9.727  -1.389  -3.321  0.00  0.00    -0.304 N 
ATOM     38  H   UNL     1       9.934  -1.055  -2.434  0.00  0.00    +0.149 HD
ENDBRANCH  23  32
ENDBRANCH   1  22
TORSDOF 9
