REMARK  Name = ZINC06973144
REMARK  7 active torsions:
REMARK  status: ('A' for Active; 'I' for Inactive)
REMARK    1  A    between atoms: C_1  and  C_2
REMARK    2  A    between atoms: C_2  and  N_3
REMARK    3  A    between atoms: C_4  and  C_18
REMARK    4  A    between atoms: C_7  and  S_8
REMARK    5  A    between atoms: S_8  and  C_9
REMARK    6  A    between atoms: C_9  and  C_11
REMARK    7  A    between atoms: C_9  and  C_12
REMARK                            x       y       z     vdW  Elec       q    Type
REMARK                         _______ _______ _______ _____ _____    ______ ____
ROOT
ATOM      1  N   UNL     1      -4.931  -0.241   0.026  0.00  0.00    -0.319 N 
ATOM      2  C   UNL     1      -3.646  -0.755   0.028  0.00  0.00    +0.069 A 
ATOM      3  C   UNL     1      -3.768  -2.108   0.007  0.00  0.00    +0.140 A 
ATOM      4  N   UNL     1      -5.073  -2.410   0.001  0.00  0.00    -0.230 NA
ATOM      5  C   UNL     1      -5.782  -1.304   0.009  0.00  0.00    +0.170 A 
ENDROOT
BRANCH   2   6
ATOM      6  C   UNL     1      -2.386   0.018   0.043  0.00  0.00    +0.004 A 
ATOM      7  C   UNL     1      -2.374   1.347  -0.382  0.00  0.00    +0.014 A 
ATOM      8  C   UNL     1      -1.196   2.064  -0.370  0.00  0.00    +0.050 A 
ATOM      9  C   UNL     1      -0.021   1.471   0.070  0.00  0.00    +0.162 A 
ATOM     10  C   UNL     1      -0.025   0.147   0.497  0.00  0.00    +0.163 A 
ATOM     11  C   UNL     1      -1.204  -0.580   0.484  0.00  0.00    +0.059 A 
ATOM     12  O   UNL     1       1.119  -0.449   0.933  0.00  0.00    -0.485 OA
ATOM     13  C   UNL     1       2.351   0.189   0.581  0.00  0.00    +0.270 C 
ATOM     14  C   UNL     1       2.211   1.691   0.863  0.00  0.00    +0.270 C 
ATOM     15  O   UNL     1       1.131   2.198   0.072  0.00  0.00    -0.485 OA
ENDBRANCH   2   6
BRANCH   1  17
ATOM     16  C   UNL     1      -5.556   1.650  -1.392  0.00  0.00    +0.027 C 
ATOM     17  C   UNL     1      -5.304   1.176   0.040  0.00  0.00    +0.121 C 
ENDBRANCH   1  17
BRANCH   5  18
ATOM     18  S   UNL     1      -7.542  -1.211  -0.000  0.00  0.00    -0.075 S 
BRANCH  18  19
ATOM     19  C   UNL     1      -7.949  -2.975  -0.023  0.00  0.00    +0.137 C 
ATOM     20  C   UNL     1      -7.478  -3.623   1.280  0.00  0.00    +0.029 C 
BRANCH  19  21
ATOM     21  C   UNL     1      -9.441  -3.144  -0.157  0.00  0.00    +0.233 C 
ATOM     22  O   UNL     1     -10.183  -2.229   0.128  0.00  0.00    -0.274 OA
ATOM     23  N   UNL     1      -9.949  -4.313  -0.595  0.00  0.00    -0.239 N 
ATOM     24  C   UNL     1     -11.283  -4.464  -0.715  0.00  0.00    +0.303 C 
ATOM     25  O   UNL     1     -12.027  -3.546  -0.430  0.00  0.00    -0.253 OA
ATOM     26  N   UNL     1     -11.792  -5.633  -1.153  0.00  0.00    -0.313 N 
ATOM     27  H   UNL     1      -9.356  -5.045  -0.823  0.00  0.00    +0.159 HD
ATOM     28  H   UNL     1     -11.198  -6.365  -1.381  0.00  0.00    +0.146 HD
ATOM     29  H   UNL     1     -12.752  -5.742  -1.240  0.00  0.00    +0.146 HD
ENDBRANCH  19  21
ENDBRANCH  18  19
ENDBRANCH   5  18
TORSDOF 5
