REMARK  Name = ZINC35395976
REMARK  15 active torsions:
REMARK  status: ('A' for Active; 'I' for Inactive)
REMARK    1  A    between atoms: C_1  and  C_2
REMARK    2  A    between atoms: C_2  and  S_3
REMARK    3  A    between atoms: S_3  and  C_4
REMARK    4  A    between atoms: C_4  and  C_5
REMARK    5  A    between atoms: C_5  and  O_6
REMARK    6  A    between atoms: O_6  and  C_7
REMARK    7  A    between atoms: C_7  and  C_9
REMARK    8  A    between atoms: C_10  and  C_38
REMARK    9  A    between atoms: C_14  and  C_16
REMARK   10  A    between atoms: C_19  and  C_25
REMARK   11  A    between atoms: C_20  and  N_22
REMARK   12  A    between atoms: C_28  and  C_34
REMARK   13  A    between atoms: C_30  and  C_33
REMARK   14  A    between atoms: C_34  and  O_36
REMARK   15  A    between atoms: O_36  and  C_37
REMARK                            x       y       z     vdW  Elec       q    Type
REMARK                         _______ _______ _______ _____ _____    ______ ____
ROOT
ATOM      1  C   UNL     1       1.682  -6.452   4.131  0.00  0.00    +0.065 C 
ATOM      2  C   UNL     1       2.447  -7.212   4.933  0.00  0.00    +0.016 C 
ATOM      3  N   UNL     1       2.757  -8.496   4.581  0.00  0.00    -0.321 N 
ATOM      4  C   UNL     1       2.653  -8.906   3.279  0.00  0.00    +0.016 C 
ATOM      5  C   UNL     1       1.891  -8.218   2.403  0.00  0.00    +0.025 C 
ATOM      6  C   UNL     1       1.135  -6.987   2.840  0.00  0.00    +0.092 C 
ATOM      7  C   UNL     1       1.773  -8.631   1.064  0.00  0.00    +0.176 C 
ATOM      8  O   UNL     1       1.093  -7.980   0.296  0.00  0.00    -0.291 OA
ATOM      9  C   UNL     1       2.475  -9.865   0.564  0.00  0.00    +0.171 C 
ATOM     10  C   UNL     1       2.648 -10.846   1.728  0.00  0.00    +0.013 C 
ATOM     11  C   UNL     1       3.411 -10.139   2.850  0.00  0.00    +0.055 C 
ATOM     12  C   UNL     1       1.274 -11.289   2.235  0.00  0.00    +0.009 C 
ATOM     13  C   UNL     1       2.967  -6.645   6.229  0.00  0.00    +0.061 C 
ATOM     14  H   UNL     1       3.054  -9.122   5.260  0.00  0.00    +0.152 HD
ENDROOT
BRANCH   6  15
ATOM     15  C   UNL     1      -0.319  -7.335   3.026  0.00  0.00    -0.033 A 
ATOM     16  C   UNL     1      -0.691  -8.272   3.971  0.00  0.00    +0.005 A 
ATOM     17  C   UNL     1      -2.025  -8.590   4.141  0.00  0.00    +0.006 A 
ATOM     18  C   UNL     1      -2.988  -7.971   3.366  0.00  0.00    -0.020 A 
ATOM     19  C   UNL     1      -2.616  -7.033   2.421  0.00  0.00    +0.129 A 
ATOM     20  C   UNL     1      -1.282  -6.712   2.254  0.00  0.00    +0.037 A 
ATOM     21  C   UNL     1      -4.443  -8.319   3.551  0.00  0.00    +0.046 C 
BRANCH  19  22
ATOM     22  N   UNL     1      -3.647  -6.371   1.591  0.00  0.00    +0.057 N 
ATOM     23  O   UNL     1      -3.417  -6.114   0.432  0.00  0.00    -0.126 OA
ATOM     24  O   UNL     1      -4.720  -6.087   2.071  0.00  0.00    -0.126 OA
ENDBRANCH  19  22
ENDBRANCH   6  15
BRANCH   1  25
ATOM     25  C   UNL     1       1.382  -5.123   4.513  0.00  0.00    +0.338 C 
ATOM     26  O   UNL     1       1.964  -4.193   3.987  0.00  0.00    -0.245 OA
BRANCH  25  27
ATOM     27  O   UNL     1       0.451  -4.888   5.461  0.00  0.00    -0.460 OA
BRANCH  27  28
ATOM     28  C   UNL     1       0.199  -3.522   5.798  0.00  0.00    +0.243 C 
BRANCH  28  29
ATOM     29  C   UNL     1      -0.878  -3.455   6.882  0.00  0.00    +0.110 C 
BRANCH  29  30
ATOM     30  S   UNL     1      -1.198  -1.721   7.309  0.00  0.00    -0.158 S 
BRANCH  30  32
ATOM     31  C   UNL     1      -2.849  -0.401   9.046  0.00  0.00    +0.015 C 
ATOM     32  C   UNL     1      -2.480  -1.814   8.589  0.00  0.00    +0.066 C 
ENDBRANCH  30  32
ENDBRANCH  29  30
ENDBRANCH  28  29
ENDBRANCH  27  28
ENDBRANCH  25  27
ENDBRANCH   1  25
BRANCH   9  33
ATOM     33  C   UNL     1       1.652 -10.507  -0.523  0.00  0.00    +0.318 C 
ATOM     34  O   UNL     1       1.251 -11.639  -0.387  0.00  0.00    -0.250 OA
BRANCH  33  35
ATOM     35  O   UNL     1       1.366  -9.823  -1.641  0.00  0.00    -0.467 OA
ATOM     36  C   UNL     1       0.582 -10.494  -2.630  0.00  0.00    +0.280 C 
ENDBRANCH  33  35
ENDBRANCH   9  33
TORSDOF 10
