REMARK  Name = ZINC05770357
REMARK  6 active torsions:
REMARK  status: ('A' for Active; 'I' for Inactive)
REMARK    1  A    between atoms: C_4  and  N_7
REMARK    2  A    between atoms: C_12  and  C_25
REMARK    3  A    between atoms: C_15  and  C_18
REMARK    4  A    between atoms: C_25  and  N_53
REMARK    5  A    between atoms: C_26  and  C_27
REMARK    6  A    between atoms: C_26  and  N_53
REMARK                            x       y       z     vdW  Elec       q    Type
REMARK                         _______ _______ _______ _____ _____    ______ ____
ROOT
ATOM      1  N   UNL     1       0.802  -4.298  -0.516  0.00  0.00    -0.236 N 
ATOM      2  C   UNL     1       1.787  -4.316   0.449  0.00  0.00    +0.166 A 
ATOM      3  N   UNL     1       2.430  -5.298   1.055  0.00  0.00    -0.189 NA
ATOM      4  C   UNL     1       3.364  -5.054   1.976  0.00  0.00    +0.273 A 
ATOM      5  O   UNL     1       3.937  -5.991   2.515  0.00  0.00    -0.266 OA
ATOM      6  C   UNL     1       3.702  -3.734   2.340  0.00  0.00    +0.003 A 
ATOM      7  C   UNL     1       3.066  -2.690   1.742  0.00  0.00    +0.020 A 
ATOM      8  C   UNL     1       2.086  -2.969   0.768  0.00  0.00    +0.045 A 
ATOM      9  C   UNL     1       1.254  -2.154  -0.021  0.00  0.00    +0.073 A 
ATOM     10  N   UNL     1       0.483  -2.964  -0.797  0.00  0.00    -0.290 N 
ATOM     11  H   UNL     1      -0.180  -2.666  -1.440  0.00  0.00    +0.187 HD
ENDROOT
BRANCH   9  12
ATOM     12  C   UNL     1       1.226  -0.684  -0.013  0.00  0.00    +0.001 A 
ATOM     13  C   UNL     1       0.002  -0.004   0.002  0.00  0.00    +0.013 A 
ATOM     14  C   UNL     1      -0.017   1.373   0.010  0.00  0.00    +0.039 A 
ATOM     15  C   UNL     1       1.173   2.086   0.002  0.00  0.00    +0.123 A 
ATOM     16  C   UNL     1       2.390   1.419  -0.013  0.00  0.00    +0.039 A 
ATOM     17  C   UNL     1       2.423   0.042  -0.021  0.00  0.00    +0.013 A 
ATOM     18  F   UNL     1       1.148   3.437   0.009  0.00  0.00    -0.205 F 
ENDBRANCH   9  12
BRANCH   1  22
ATOM     19  C   UNL     1      -0.929  -7.644  -2.293  0.00  0.00    +0.000 A 
ATOM     20  C   UNL     1      -0.541  -6.571  -3.074  0.00  0.00    +0.002 A 
ATOM     21  C   UNL     1       0.033  -5.460  -2.488  0.00  0.00    +0.028 A 
ATOM     22  C   UNL     1       0.221  -5.421  -1.113  0.00  0.00    +0.066 A 
ATOM     23  C   UNL     1      -0.164  -6.503  -0.331  0.00  0.00    +0.028 A 
ATOM     24  C   UNL     1      -0.743  -7.609  -0.923  0.00  0.00    +0.002 A 
ENDBRANCH   1  22
BRANCH   6  25
ATOM     25  C   UNL     1       4.761  -3.482   3.383  0.00  0.00    -0.041 C 
BRANCH  25  26
ATOM     26  N   UNL     1       4.205  -3.780   4.716  0.00  0.00    +0.383 N 
ATOM     27  H   UNL     1       3.911  -4.763   4.749  0.00  0.00    -0.085 HD
ATOM     28  H   UNL     1       3.394  -3.174   4.889  0.00  0.00    -0.085 HD
BRANCH  26  29
ATOM     29  C   UNL     1       5.221  -3.541   5.759  0.00  0.00    -0.050 C 
BRANCH  29  30
ATOM     30  C   UNL     1       4.618  -3.858   7.129  0.00  0.00    +0.101 C 
ATOM     31  C   UNL     1       5.616  -3.499   8.252  0.00  0.00    +0.032 C 
ATOM     32  C   UNL     1       5.416  -4.614   9.302  0.00  0.00    +0.030 C 
ATOM     33  C   UNL     1       4.321  -5.515   8.689  0.00  0.00    +0.160 C 
ATOM     34  O   UNL     1       4.402  -5.279   7.267  0.00  0.00    -0.378 OA
ENDBRANCH  29  30
ENDBRANCH  26  29
ENDBRANCH  25  26
ENDBRANCH   6  25
TORSDOF 6
