REMARK  Name = ZINC13134992
REMARK  10 active torsions:
REMARK  status: ('A' for Active; 'I' for Inactive)
REMARK    1  A    between atoms: C_1  and  C_2
REMARK    2  A    between atoms: C_2  and  C_4
REMARK    3  A    between atoms: C_2  and  S_16
REMARK    4  A    between atoms: N_6  and  C_7
REMARK    5  A    between atoms: C_11  and  N_13
REMARK    6  A    between atoms: S_16  and  C_17
REMARK    7  A    between atoms: N_29  and  C_30
REMARK    8  A    between atoms: C_30  and  C_31
REMARK    9  A    between atoms: C_31  and  C_32
REMARK   10  A    between atoms: C_31  and  C_33
REMARK                            x       y       z     vdW  Elec       q    Type
REMARK                         _______ _______ _______ _____ _____    ______ ____
ROOT
ATOM      1  C   UNL     1      -0.192  -0.042  -2.807  0.00  0.00    +0.173 A 
ATOM      2  N   UNL     1      -1.290   0.633  -2.532  0.00  0.00    -0.216 NA
ATOM      3  C   UNL     1      -2.090   1.054  -3.505  0.00  0.00    +0.117 A 
ATOM      4  C   UNL     1      -1.813   0.805  -4.857  0.00  0.00    +0.076 A 
ATOM      5  C   UNL     1      -2.790   1.333  -5.824  0.00  0.00    -0.023 A 
ATOM      6  C   UNL     1      -3.843   1.998  -5.322  0.00  0.00    -0.004 A 
ATOM      7  S   UNL     1      -3.611   1.964  -3.559  0.00  0.00    -0.073 S 
ATOM      8  C   UNL     1      -4.769   2.493  -6.400  0.00  0.00    +0.043 C 
ATOM      9  C   UNL     1      -3.930   2.419  -7.695  0.00  0.00    +0.010 C 
ATOM     10  C   UNL     1      -2.918   1.310  -7.350  0.00  0.00    +0.037 C 
ATOM     11  C   UNL     1      -0.616   0.071  -5.128  0.00  0.00    +0.263 A 
ATOM     12  O   UNL     1      -0.296  -0.190  -6.275  0.00  0.00    -0.267 OA
ATOM     13  N   UNL     1       0.155  -0.322  -4.097  0.00  0.00    -0.287 N 
ENDROOT
BRANCH   1  14
ATOM     14  S   UNL     1       0.847  -0.585  -1.491  0.00  0.00    -0.075 S 
BRANCH  14  16
ATOM     15  C   UNL     1      -0.007   1.532   0.016  0.00  0.00    +0.029 C 
ATOM     16  C   UNL     1       0.003   0.002   0.004  0.00  0.00    +0.137 C 
BRANCH  16  17
ATOM     17  C   UNL     1       0.730  -0.505   1.222  0.00  0.00    +0.230 C 
ATOM     18  O   UNL     1       1.909  -0.785   1.153  0.00  0.00    -0.274 OA
ATOM     19  N   UNL     1       0.071  -0.647   2.389  0.00  0.00    -0.285 N 
ATOM     20  H   UNL     1      -0.852  -0.361   2.463  0.00  0.00    +0.155 HD
BRANCH  19  21
ATOM     21  C   UNL     1       0.720  -1.209   3.495  0.00  0.00    +0.036 A 
ATOM     22  C   UNL     1       0.015  -2.013   4.381  0.00  0.00    +0.023 A 
ATOM     23  C   UNL     1       0.658  -2.566   5.471  0.00  0.00    +0.004 A 
ATOM     24  C   UNL     1       2.002  -2.319   5.681  0.00  0.00    +0.033 A 
ATOM     25  C   UNL     1       2.707  -1.518   4.801  0.00  0.00    +0.128 A 
ATOM     26  C   UNL     1       2.071  -0.968   3.706  0.00  0.00    +0.056 A 
BRANCH  25  27
ATOM     27  N   UNL     1       4.145  -1.256   5.030  0.00  0.00    +0.056 N 
ATOM     28  O   UNL     1       4.704  -1.742   5.987  0.00  0.00    -0.126 OA
ATOM     29  O   UNL     1       4.762  -0.556   4.261  0.00  0.00    -0.126 OA
ENDBRANCH  25  27
ENDBRANCH  19  21
ENDBRANCH  16  17
ENDBRANCH  14  16
ENDBRANCH   1  14
BRANCH  13  30
ATOM     30  C   UNL     1       1.386  -1.070  -4.364  0.00  0.00    +0.130 C 
BRANCH  30  31
ATOM     31  C   UNL     1       1.078  -2.568  -4.386  0.00  0.00    +0.003 C 
ATOM     32  C   UNL     1       2.336  -3.342  -4.787  0.00  0.00    +0.009 C 
ATOM     33  C   UNL     1       0.626  -3.017  -2.995  0.00  0.00    +0.009 C 
ENDBRANCH  30  31
ENDBRANCH  13  30
TORSDOF 7
