REMARK  Name = ZINC04308978
REMARK  6 active torsions:
REMARK  status: ('A' for Active; 'I' for Inactive)
REMARK    1  A    between atoms: C_1  and  C_2
REMARK    2  A    between atoms: N_11  and  C_15
REMARK    3  A    between atoms: C_15  and  C_16
REMARK    4  A    between atoms: C_19  and  C_22
REMARK    5  A    between atoms: C_22  and  C_23
REMARK    6  A    between atoms: C_22  and  C_24
REMARK                            x       y       z     vdW  Elec       q    Type
REMARK                         _______ _______ _______ _____ _____    ______ ____
ROOT
ATOM      1  C   UNL     1      -4.720   3.326   2.650  0.00  0.00    +0.010 C 
ATOM      2  C   UNL     1      -4.161   2.416   3.745  0.00  0.00    +0.018 C 
ATOM      3  C   UNL     1      -4.309   3.104   5.105  0.00  0.00    +0.006 C 
ATOM      4  C   UNL     1      -3.731   2.202   6.197  0.00  0.00    +0.000 C 
ATOM      5  C   UNL     1      -2.247   1.950   5.922  0.00  0.00    +0.003 C 
ATOM      6  C   UNL     1      -2.092   1.258   4.565  0.00  0.00    +0.035 C 
ATOM      7  C   UNL     1      -2.687   2.139   3.472  0.00  0.00    +0.115 C 
ATOM      8  C   UNL     1      -2.518   1.493   2.116  0.00  0.00    +0.247 C 
ATOM      9  O   UNL     1      -2.974   0.432   1.747  0.00  0.00    -0.273 OA
ATOM     10  N   UNL     1      -1.752   2.345   1.404  0.00  0.00    -0.220 N 
ATOM     11  C   UNL     1      -1.427   3.430   2.118  0.00  0.00    +0.310 C 
ATOM     12  O   UNL     1      -0.746   4.341   1.690  0.00  0.00    -0.252 OA
ATOM     13  N   UNL     1      -1.938   3.398   3.363  0.00  0.00    -0.285 N 
ATOM     14  H   UNL     1      -1.834   4.073   4.052  0.00  0.00    +0.151 HD
ENDROOT
BRANCH  10  15
ATOM     15  C   UNL     1      -1.332   2.114   0.020  0.00  0.00    +0.153 C 
BRANCH  15  16
ATOM     16  C   UNL     1      -0.017   1.378   0.010  0.00  0.00    -0.030 A 
ATOM     17  C   UNL     1       1.171   2.086   0.002  0.00  0.00    +0.005 A 
ATOM     18  C   UNL     1       2.377   1.411  -0.014  0.00  0.00    +0.004 A 
ATOM     19  C   UNL     1       2.396   0.029  -0.022  0.00  0.00    -0.045 A 
ATOM     20  C   UNL     1       1.208  -0.679  -0.014  0.00  0.00    +0.004 A 
ATOM     21  C   UNL     1       0.002  -0.004   0.002  0.00  0.00    +0.005 A 
BRANCH  19  22
ATOM     22  C   UNL     1       3.711  -0.707  -0.039  0.00  0.00    +0.013 C 
ATOM     23  C   UNL     1       4.496  -0.320  -1.294  0.00  0.00    +0.012 C 
ATOM     24  C   UNL     1       4.521  -0.334   1.204  0.00  0.00    +0.012 C 
ENDBRANCH  19  22
ENDBRANCH  15  16
ENDBRANCH  10  15
TORSDOF 3
