REMARK  Name = ZINC40796370
REMARK  5 active torsions:
REMARK  status: ('A' for Active; 'I' for Inactive)
REMARK    1  A    between atoms: C_1  and  C_2
REMARK    2  A    between atoms: C_2  and  C_3
REMARK    3  A    between atoms: C_8  and  N_9
REMARK    4  A    between atoms: C_10  and  C_12
REMARK    5  A    between atoms: C_12  and  C_23
REMARK                            x       y       z     vdW  Elec       q    Type
REMARK                         _______ _______ _______ _____ _____    ______ ____
ROOT
ATOM      1  C   UNL     1      -1.451  -0.272  -4.864  0.00  0.00    +0.258 C 
ATOM      2  C   UNL     1      -2.067  -1.125  -5.944  0.00  0.00    +0.270 C 
ATOM      3  O   UNL     1      -3.221  -1.487  -5.851  0.00  0.00    -0.271 OA
ATOM      4  N   UNL     1      -1.329  -1.485  -7.015  0.00  0.00    -0.279 N 
ATOM      5  C   UNL     1       0.036  -1.165  -7.044  0.00  0.00    +0.076 A 
ATOM      6  C   UNL     1       0.769  -1.312  -8.210  0.00  0.00    +0.027 A 
ATOM      7  C   UNL     1       2.111  -0.980  -8.226  0.00  0.00    +0.002 A 
ATOM      8  C   UNL     1       2.722  -0.501  -7.082  0.00  0.00    +0.004 A 
ATOM      9  C   UNL     1       1.997  -0.357  -5.913  0.00  0.00    +0.047 A 
ATOM     10  C   UNL     1       0.654  -0.693  -5.888  0.00  0.00    +0.144 A 
ATOM     11  O   UNL     1      -0.062  -0.585  -4.737  0.00  0.00    -0.465 OA
ATOM     12  C   UNL     1      -1.609   1.205  -5.231  0.00  0.00    +0.076 C 
ATOM     13  H   UNL     1      -1.737  -1.960  -7.756  0.00  0.00    +0.155 HD
ENDROOT
BRANCH   1  15
ATOM     14  N   UNL     1      -1.505  -0.315  -2.391  0.00  0.00    -0.282 N 
ATOM     15  C   UNL     1      -2.147  -0.541  -3.555  0.00  0.00    +0.270 C 
ATOM     16  O   UNL     1      -3.285  -0.961  -3.548  0.00  0.00    -0.271 OA
ATOM     17  H   UNL     1      -0.620   0.082  -2.395  0.00  0.00    +0.155 HD
BRANCH  14  23
ATOM     18  C   UNL     1      -1.349  -1.119  -0.119  0.00  0.00    -0.026 A 
ATOM     19  C   UNL     1      -1.954  -1.445   1.079  0.00  0.00    +0.005 A 
ATOM     20  C   UNL     1      -3.322  -1.313   1.222  0.00  0.00    +0.000 A 
ATOM     21  C   UNL     1      -4.090  -0.854   0.168  0.00  0.00    +0.002 A 
ATOM     22  C   UNL     1      -3.491  -0.525  -1.033  0.00  0.00    +0.023 A 
ATOM     23  C   UNL     1      -2.116  -0.652  -1.178  0.00  0.00    +0.037 A 
BRANCH  18  25
ATOM     24  C   UNL     1       0.819   0.079   0.019  0.00  0.00    +0.009 C 
ATOM     25  C   UNL     1       0.143  -1.262  -0.275  0.00  0.00    +0.033 C 
ENDBRANCH  18  25
ENDBRANCH  14  23
ENDBRANCH   1  15
TORSDOF 3
