REMARK  Name = ZINC00369160
REMARK  3 active torsions:
REMARK  status: ('A' for Active; 'I' for Inactive)
REMARK    1  A    between atoms: C_1  and  C_2
REMARK    2  A    between atoms: C_3  and  C_18
REMARK    3  A    between atoms: N_20  and  C_21
REMARK                            x       y       z     vdW  Elec       q    Type
REMARK                         _______ _______ _______ _____ _____    ______ ____
ROOT
ATOM      1  C   UNL     1       2.659   7.818   1.069  0.00  0.00    +0.079 C 
ATOM      2  C   UNL     1       3.453   7.429  -0.180  0.00  0.00    +0.188 C 
ATOM      3  C   UNL     1       3.706   5.915  -0.172  0.00  0.00    +0.162 C 
ATOM      4  C   UNL     1       4.386   5.567  -1.506  0.00  0.00    +0.123 C 
ATOM      5  C   UNL     1       5.605   6.450  -1.660  0.00  0.00    +0.015 A 
ATOM      6  C   UNL     1       6.638   6.028  -2.478  0.00  0.00    +0.009 A 
ATOM      7  C   UNL     1       7.760   6.818  -2.642  0.00  0.00    +0.001 A 
ATOM      8  C   UNL     1       7.849   8.034  -1.989  0.00  0.00    +0.004 A 
ATOM      9  C   UNL     1       6.822   8.456  -1.171  0.00  0.00    +0.046 A 
ATOM     10  C   UNL     1       5.692   7.662  -1.000  0.00  0.00    +0.128 A 
ATOM     11  O   UNL     1       4.708   8.103  -0.174  0.00  0.00    -0.468 OA
ATOM     12  N   UNL     1       3.450   5.918  -2.586  0.00  0.00    -0.319 N 
ATOM     13  C   UNL     1       2.680   7.018  -2.470  0.00  0.00    +0.134 C 
ATOM     14  S   UNL     1       1.664   7.455  -3.777  0.00  0.00    -0.019 S 
ATOM     15  N   UNL     1       2.681   7.783  -1.368  0.00  0.00    -0.289 N 
ATOM     16  H   UNL     1       3.388   5.360  -3.377  0.00  0.00    +0.148 HD
ATOM     17  H   UNL     1       2.151   8.596  -1.359  0.00  0.00    +0.151 HD
ENDROOT
BRANCH   3  18
ATOM     18  C   UNL     1       2.399   5.175  -0.052  0.00  0.00    +0.228 C 
ATOM     19  O   UNL     1       1.385   5.658  -0.509  0.00  0.00    -0.275 OA
ATOM     20  N   UNL     1       2.357   3.976   0.563  0.00  0.00    -0.285 N 
ATOM     21  H   UNL     1       3.151   3.624   0.994  0.00  0.00    +0.155 HD
BRANCH  20  22
ATOM     22  C   UNL     1       1.167   3.240   0.580  0.00  0.00    +0.033 A 
ATOM     23  C   UNL     1       0.290   3.309  -0.495  0.00  0.00    +0.023 A 
ATOM     24  C   UNL     1      -0.883   2.582  -0.474  0.00  0.00    +0.002 A 
ATOM     25  C   UNL     1      -1.189   1.789   0.617  0.00  0.00    +0.000 A 
ATOM     26  C   UNL     1      -0.316   1.714   1.687  0.00  0.00    +0.002 A 
ATOM     27  C   UNL     1       0.860   2.439   1.673  0.00  0.00    +0.023 A 
ENDBRANCH  20  22
ENDBRANCH   3  18
TORSDOF 2
