REMARK  Name = ZINC09640903
REMARK  11 active torsions:
REMARK  status: ('A' for Active; 'I' for Inactive)
REMARK    1  A    between atoms: C_1  and  C_2
REMARK    2  A    between atoms: C_8  and  C_10
REMARK    3  A    between atoms: C_10  and  S_11
REMARK    4  A    between atoms: S_11  and  C_12
REMARK    5  A    between atoms: C_15  and  C_16
REMARK    6  A    between atoms: C_19  and  C_22
REMARK    7  A    between atoms: C_22  and  C_23
REMARK    8  A    between atoms: C_22  and  C_24
REMARK    9  A    between atoms: N_27  and  C_28
REMARK   10  A    between atoms: C_32  and  O_34
REMARK   11  A    between atoms: O_34  and  C_35
REMARK                            x       y       z     vdW  Elec       q    Type
REMARK                         _______ _______ _______ _____ _____    ______ ____
ROOT
ATOM      1  C   UNL     1      -3.305   6.753  -0.709  0.00  0.00    +0.169 C 
ATOM      2  N   UNL     1      -4.412   6.163  -0.340  0.00  0.00    -0.220 NA
ATOM      3  C   UNL     1      -5.353   7.111  -0.052  0.00  0.00    +0.129 C 
ATOM      4  C   UNL     1      -6.634   6.897   0.367  0.00  0.00    +0.041 C 
ATOM      5  C   UNL     1      -4.700   8.414  -0.288  0.00  0.00    +0.275 C 
ATOM      6  O   UNL     1      -5.189   9.520  -0.149  0.00  0.00    -0.268 OA
ATOM      7  N   UNL     1      -3.442   8.120  -0.684  0.00  0.00    -0.214 N 
ENDROOT
BRANCH   4   8
ATOM      8  C   UNL     1      -7.465   8.030   0.794  0.00  0.00    -0.023 A 
ATOM      9  C   UNL     1      -6.895   9.091   1.508  0.00  0.00    +0.008 A 
ATOM     10  C   UNL     1      -7.682  10.153   1.900  0.00  0.00    +0.004 A 
ATOM     11  C   UNL     1      -9.033  10.166   1.602  0.00  0.00    -0.045 A 
ATOM     12  C   UNL     1      -9.606   9.118   0.902  0.00  0.00    +0.004 A 
ATOM     13  C   UNL     1      -8.833   8.051   0.496  0.00  0.00    +0.008 A 
BRANCH  11  14
ATOM     14  C   UNL     1      -9.886  11.328   2.041  0.00  0.00    +0.013 C 
ATOM     15  C   UNL     1      -9.841  11.447   3.566  0.00  0.00    +0.012 C 
ATOM     16  C   UNL     1      -9.354  12.618   1.413  0.00  0.00    +0.012 C 
ENDBRANCH  11  14
ENDBRANCH   4   8
BRANCH   7  17
ATOM     17  C   UNL     1      -2.448   9.050  -1.016  0.00  0.00    +0.047 A 
ATOM     18  C   UNL     1      -1.329   9.191  -0.205  0.00  0.00    +0.024 A 
ATOM     19  C   UNL     1      -0.346  10.104  -0.535  0.00  0.00    +0.005 A 
ATOM     20  C   UNL     1      -0.478  10.887  -1.666  0.00  0.00    +0.046 A 
ATOM     21  C   UNL     1      -1.597  10.755  -2.477  0.00  0.00    +0.122 A 
ATOM     22  C   UNL     1      -2.582   9.835  -2.151  0.00  0.00    +0.069 A 
BRANCH  21  23
ATOM     23  O   UNL     1      -1.726  11.525  -3.589  0.00  0.00    -0.495 OA
ATOM     24  C   UNL     1      -0.672  12.451  -3.862  0.00  0.00    +0.277 C 
ENDBRANCH  21  23
ENDBRANCH   7  17
BRANCH   1  25
ATOM     25  S   UNL     1      -1.830   5.907  -1.171  0.00  0.00    -0.080 S 
BRANCH  25  26
ATOM     26  C   UNL     1      -2.374   4.192  -0.964  0.00  0.00    +0.173 C 
BRANCH  26  34
ATOM     27  C   UNL     1       2.979   0.041  -2.637  0.00  0.00    +0.089 C 
ATOM     28  C   UNL     1       1.560   0.246  -2.174  0.00  0.00    +0.136 A 
ATOM     29  C   UNL     1       0.933   1.431  -1.989  0.00  0.00    +0.091 A 
ATOM     30  C   UNL     1      -0.369   1.065  -1.555  0.00  0.00    +0.168 A 
ATOM     31  N   UNL     1      -0.390  -0.242  -1.525  0.00  0.00    -0.063 NA
ATOM     32  O   UNL     1       0.671  -0.710  -1.865  0.00  0.00    -0.358 OA
ATOM     33  N   UNL     1      -1.417   1.927  -1.232  0.00  0.00    -0.267 N 
ATOM     34  C   UNL     1      -1.242   3.261  -1.313  0.00  0.00    +0.229 C 
ATOM     35  O   UNL     1      -0.173   3.712  -1.667  0.00  0.00    -0.275 OA
ATOM     36  H   UNL     1      -2.272   1.567  -0.949  0.00  0.00    +0.156 HD
ENDBRANCH  26  34
ENDBRANCH  25  26
ENDBRANCH   1  25
TORSDOF 7
