REMARK  Name = ZINC40983527
REMARK  11 active torsions:
REMARK  status: ('A' for Active; 'I' for Inactive)
REMARK    1  A    between atoms: C_1  and  C_2
REMARK    2  A    between atoms: C_2  and  C_3
REMARK    3  A    between atoms: C_3  and  C_4
REMARK    4  A    between atoms: C_4  and  S_5
REMARK    5  A    between atoms: S_5  and  C_6
REMARK    6  A    between atoms: C_11  and  C_27
REMARK    7  A    between atoms: C_13  and  C_17
REMARK    8  A    between atoms: C_14  and  C_16
REMARK    9  A    between atoms: N_19  and  C_20
REMARK   10  A    between atoms: C_23  and  C_26
REMARK   11  A    between atoms: C_32  and  N_33
REMARK                            x       y       z     vdW  Elec       q    Type
REMARK                         _______ _______ _______ _____ _____    ______ ____
ROOT
ATOM      1  C   UNL     1      -6.720  -4.380  -0.331  0.00  0.00    +0.210 A 
ATOM      2  N   UNL     1      -5.849  -3.997   0.614  0.00  0.00    -0.187 NA
ATOM      3  C   UNL     1      -4.830  -4.813   0.625  0.00  0.00    +0.219 A 
ATOM      4  N   UNL     1      -5.035  -5.756  -0.328  0.00  0.00    -0.220 N 
ATOM      5  N   UNL     1      -6.258  -5.458  -0.928  0.00  0.00    -0.141 NA
ATOM      6  C   UNL     1      -4.103  -6.847  -0.599  0.00  0.00    +0.179 C 
ATOM      7  C   UNL     1      -2.801  -6.582   0.108  0.00  0.00    +0.060 C 
ATOM      8  C   UNL     1      -2.656  -5.630   1.042  0.00  0.00    +0.018 C 
ATOM      9  N   UNL     1      -3.692  -4.811   1.419  0.00  0.00    -0.287 N 
ATOM     10  C   UNL     1      -1.311  -5.454   1.700  0.00  0.00    +0.061 C 
ATOM     11  H   UNL     1      -3.630  -4.252   2.210  0.00  0.00    +0.155 HD
ENDROOT
BRANCH   6  12
ATOM     12  C   UNL     1      -4.690  -8.144  -0.102  0.00  0.00    +0.012 A 
ATOM     13  C   UNL     1      -4.563  -8.494   1.230  0.00  0.00    +0.008 A 
ATOM     14  C   UNL     1      -5.101  -9.683   1.685  0.00  0.00    +0.000 A 
ATOM     15  C   UNL     1      -5.766 -10.521   0.810  0.00  0.00    +0.002 A 
ATOM     16  C   UNL     1      -5.893 -10.171  -0.521  0.00  0.00    +0.033 A 
ATOM     17  C   UNL     1      -5.359  -8.979  -0.976  0.00  0.00    +0.132 A 
BRANCH  17  18
ATOM     18  N   UNL     1      -5.499  -8.601  -2.400  0.00  0.00    +0.057 N 
ATOM     19  O   UNL     1      -6.532  -8.828  -2.986  0.00  0.00    -0.126 OA
ATOM     20  O   UNL     1      -4.581  -8.067  -2.977  0.00  0.00    -0.126 OA
ENDBRANCH  17  18
ENDBRANCH   6  12
BRANCH   7  21
ATOM     21  C   UNL     1      -1.678  -7.373  -0.228  0.00  0.00    +0.248 C 
ATOM     22  O   UNL     1      -1.119  -7.215  -1.298  0.00  0.00    -0.270 OA
ATOM     23  N   UNL     1      -1.226  -8.303   0.636  0.00  0.00    -0.282 N 
ATOM     24  H   UNL     1      -1.686  -8.447   1.478  0.00  0.00    +0.155 HD
BRANCH  23  25
ATOM     25  C   UNL     1      -0.094  -9.061   0.320  0.00  0.00    +0.034 A 
ATOM     26  C   UNL     1       0.846  -9.351   1.300  0.00  0.00    +0.023 A 
ATOM     27  C   UNL     1       1.963 -10.100   0.984  0.00  0.00    +0.005 A 
ATOM     28  C   UNL     1       2.146 -10.559  -0.307  0.00  0.00    -0.050 A 
ATOM     29  C   UNL     1       1.212 -10.272  -1.286  0.00  0.00    +0.005 A 
ATOM     30  C   UNL     1       0.090  -9.529  -0.975  0.00  0.00    +0.023 A 
ATOM     31  C   UNL     1       3.366 -11.375  -0.648  0.00  0.00    +0.044 C 
ENDBRANCH  23  25
ENDBRANCH   7  21
BRANCH   1  32
ATOM     32  S   UNL     1      -8.241  -3.574  -0.707  0.00  0.00    -0.084 S 
BRANCH  32  33
ATOM     33  C   UNL     1      -8.295  -2.177   0.448  0.00  0.00    +0.077 C 
BRANCH  33  34
ATOM     34  C   UNL     1      -9.583  -1.381   0.226  0.00  0.00    +0.011 C 
BRANCH  34  36
ATOM     35  C   UNL     1     -10.916   0.593   0.978  0.00  0.00    +0.004 C 
ATOM     36  C   UNL     1      -9.628  -0.203   1.200  0.00  0.00    -0.003 C 
ENDBRANCH  34  36
ENDBRANCH  33  34
ENDBRANCH  32  33
ENDBRANCH   1  32
TORSDOF 8
