REMARK  Name = ZINC06322010
REMARK  12 active torsions:
REMARK  status: ('A' for Active; 'I' for Inactive)
REMARK    1  A    between atoms: C_1  and  C_2
REMARK    2  A    between atoms: C_5  and  C_37
REMARK    3  A    between atoms: C_9  and  C_14
REMARK    4  A    between atoms: C_14  and  N_68
REMARK    5  A    between atoms: C_15  and  C_16
REMARK    6  A    between atoms: C_15  and  N_68
REMARK    7  A    between atoms: N_20  and  C_21
REMARK    8  A    between atoms: C_21  and  C_22
REMARK    9  A    between atoms: C_25  and  O_28
REMARK   10  A    between atoms: O_28  and  C_29
REMARK   11  A    between atoms: C_30  and  C_31
REMARK   12  A    between atoms: C_30  and  N_68
REMARK                            x       y       z     vdW  Elec       q    Type
REMARK                         _______ _______ _______ _____ _____    ______ ____
ROOT
ATOM      1  N   UNL     1       2.767   6.152   1.387  0.00  0.00    +0.389 N 
ATOM      2  H   UNL     1       3.635   5.775   1.784  0.00  0.00    -0.081 HD
ENDROOT
BRANCH   1   3
ATOM      3  C   UNL     1       2.545   5.548   0.056  0.00  0.00    -0.037 C 
BRANCH   3  12
ATOM      4  C   UNL     1      -0.864   1.659   0.660  0.00  0.00    +0.044 C 
ATOM      5  C   UNL     1       0.511   1.045   0.612  0.00  0.00    -0.041 A 
ATOM      6  C   UNL     1       0.663  -0.309   0.718  0.00  0.00    +0.004 A 
ATOM      7  C   UNL     1       1.925  -0.884   0.668  0.00  0.00    +0.005 A 
ATOM      8  C   UNL     1       3.049  -0.102   0.511  0.00  0.00    -0.026 A 
ATOM      9  C   UNL     1       2.920   1.278   0.402  0.00  0.00    +0.052 A 
ATOM     10  C   UNL     1       1.638   1.858   0.452  0.00  0.00    +0.002 A 
ATOM     11  C   UNL     1       1.512   3.312   0.334  0.00  0.00    +0.017 A 
ATOM     12  C   UNL     1       2.640   4.050   0.181  0.00  0.00    +0.001 A 
ATOM     13  C   UNL     1       3.901   3.418   0.136  0.00  0.00    +0.251 A 
ATOM     14  O   UNL     1       4.902   4.100  -0.002  0.00  0.00    -0.268 OA
ATOM     15  N   UNL     1       4.027   2.084   0.243  0.00  0.00    -0.322 N 
ATOM     16  H   UNL     1       4.909   1.683   0.209  0.00  0.00    +0.169 HD
ATOM     17  C   UNL     1       4.413  -0.741   0.459  0.00  0.00    +0.046 C 
ENDBRANCH   3  12
ENDBRANCH   1   3
BRANCH   1  18
ATOM     18  C   UNL     1       2.894   7.619   1.261  0.00  0.00    +0.001 C 
BRANCH  18  19
ATOM     19  C   UNL     1       3.200   8.201   2.618  0.00  0.00    +0.135 A 
ATOM     20  N   UNL     1       2.329   8.620   3.503  0.00  0.00    -0.115 NA
ATOM     21  N   UNL     1       2.981   9.043   4.532  0.00  0.00    -0.023 NA
ATOM     22  N   UNL     1       4.244   8.912   4.321  0.00  0.00    -0.044 NA
ATOM     23  N   UNL     1       4.420   8.396   3.152  0.00  0.00    -0.227 N 
BRANCH  23  24
ATOM     24  C   UNL     1       5.705   8.082   2.523  0.00  0.00    +0.182 C 
BRANCH  24  25
ATOM     25  C   UNL     1       6.186   9.276   1.740  0.00  0.00    -0.026 A 
ATOM     26  C   UNL     1       5.838   9.415   0.409  0.00  0.00    +0.009 A 
ATOM     27  C   UNL     1       6.273  10.511  -0.309  0.00  0.00    +0.046 A 
ATOM     28  C   UNL     1       7.069  11.468   0.302  0.00  0.00    +0.120 A 
ATOM     29  C   UNL     1       7.423  11.324   1.636  0.00  0.00    +0.046 A 
ATOM     30  C   UNL     1       6.980  10.228   2.352  0.00  0.00    +0.009 A 
BRANCH  28  31
ATOM     31  O   UNL     1       7.503  12.545  -0.404  0.00  0.00    -0.495 OA
ATOM     32  C   UNL     1       7.101  12.628  -1.773  0.00  0.00    +0.277 C 
ENDBRANCH  28  31
ENDBRANCH  24  25
ENDBRANCH  23  24
ENDBRANCH  18  19
ENDBRANCH   1  18
BRANCH   1  33
ATOM     33  C   UNL     1       1.643   5.818   2.287  0.00  0.00    -0.046 C 
BRANCH  33  34
ATOM     34  C   UNL     1       0.311   6.232   1.659  0.00  0.00    +0.102 C 
ATOM     35  C   UNL     1      -0.858   5.718   2.521  0.00  0.00    +0.032 C 
ATOM     36  C   UNL     1      -1.636   6.999   2.909  0.00  0.00    +0.030 C 
ATOM     37  C   UNL     1      -1.176   8.001   1.819  0.00  0.00    +0.160 C 
ATOM     38  O   UNL     1       0.214   7.666   1.619  0.00  0.00    -0.378 OA
ENDBRANCH  33  34
ENDBRANCH   1  33
TORSDOF 9
