REMARK  Name = ZINC05020126
REMARK  5 active torsions:
REMARK  status: ('A' for Active; 'I' for Inactive)
REMARK    1  A    between atoms: C_1  and  C_2
REMARK    2  A    between atoms: C_2  and  C_15
REMARK    3  A    between atoms: N_3  and  N_4
REMARK    4  A    between atoms: N_4  and  C_5
REMARK    5  A    between atoms: C_10  and  C_11
REMARK                            x       y       z     vdW  Elec       q    Type
REMARK                         _______ _______ _______ _____ _____    ______ ____
ROOT
ATOM      1  N   UNL     1       1.341   1.577   2.355  0.00  0.00    -0.237 N 
ATOM      2  H   UNL     1       1.795   1.264   1.557  0.00  0.00    +0.174 HD
ENDROOT
BRANCH   1   3
ATOM      3  C   UNL     1       2.067   1.812   3.523  0.00  0.00    +0.060 A 
ATOM      4  C   UNL     1       1.419   2.266   4.667  0.00  0.00    +0.025 A 
ATOM      5  C   UNL     1       2.139   2.493   5.822  0.00  0.00    +0.002 A 
ATOM      6  C   UNL     1       3.506   2.280   5.840  0.00  0.00    +0.001 A 
ATOM      7  C   UNL     1       4.155   1.835   4.704  0.00  0.00    +0.014 A 
ATOM      8  C   UNL     1       3.440   1.600   3.546  0.00  0.00    +0.077 A 
BRANCH   8   9
ATOM      9  C   UNL     1       4.148   1.115   2.307  0.00  0.00    +0.419 C 
ATOM     10  F   UNL     1       5.514   0.977   2.575  0.00  0.00    -0.166 F 
ATOM     11  F   UNL     1       3.621  -0.123   1.923  0.00  0.00    -0.166 F 
ATOM     12  F   UNL     1       3.967   2.039   1.273  0.00  0.00    -0.166 F 
ENDBRANCH   8   9
ENDBRANCH   1   3
BRANCH   1  15
ATOM     13  C   UNL     1      -0.013   1.086   0.008  0.00  0.00    +0.068 C 
ATOM     14  C   UNL     1      -0.718   1.572   1.248  0.00  0.00    +0.063 C 
ATOM     15  N   UNL     1      -0.043   1.791   2.335  0.00  0.00    -0.187 NA
BRANCH  14  16
ATOM     16  C   UNL     1      -2.175   1.798   1.226  0.00  0.00    -0.001 A 
ATOM     17  C   UNL     1      -2.904   1.568   0.057  0.00  0.00    +0.010 A 
ATOM     18  C   UNL     1      -4.267   1.776   0.045  0.00  0.00    +0.002 A 
ATOM     19  C   UNL     1      -4.912   2.223   1.185  0.00  0.00    +0.015 A 
ATOM     20  C   UNL     1      -4.196   2.458   2.346  0.00  0.00    +0.018 A 
ATOM     21  C   UNL     1      -2.832   2.248   2.374  0.00  0.00    +0.025 A 
ATOM     22 BR   UNL     1      -5.089   3.067   3.898  0.00  0.00    -0.050 Br
ENDBRANCH  14  16
ENDBRANCH   1  15
TORSDOF 4
