REMARK  Name = ZINC20243659
REMARK  11 active torsions:
REMARK  status: ('A' for Active; 'I' for Inactive)
REMARK    1  A    between atoms: C_1  and  C_2
REMARK    2  A    between atoms: C_5  and  N_9
REMARK    3  A    between atoms: C_7  and  C_8
REMARK    4  A    between atoms: C_10  and  C_31
REMARK    5  A    between atoms: C_11  and  C_16
REMARK    6  A    between atoms: C_13  and  C_14
REMARK    7  A    between atoms: N_17  and  N_18
REMARK    8  A    between atoms: C_19  and  C_21
REMARK    9  A    between atoms: C_21  and  S_22
REMARK   10  A    between atoms: S_22  and  C_23
REMARK   11  A    between atoms: C_23  and  C_24
REMARK                            x       y       z     vdW  Elec       q    Type
REMARK                         _______ _______ _______ _____ _____    ______ ____
ROOT
ATOM      1  N   UNL     1       0.059  -4.172  -0.021  0.00  0.00    -0.316 N 
ATOM      2  C   UNL     1      -0.940  -4.963  -0.496  0.00  0.00    +0.031 A 
ATOM      3  C   UNL     1      -0.566  -6.267  -0.337  0.00  0.00    +0.030 A 
ATOM      4  C   UNL     1       0.763  -6.241   0.282  0.00  0.00    +0.048 A 
ATOM      5  C   UNL     1       1.087  -4.944   0.442  0.00  0.00    +0.036 A 
ATOM      6  C   UNL     1       2.372  -4.429   1.038  0.00  0.00    +0.065 C 
ATOM      7 BR   UNL     1       1.818  -7.737   0.756  0.00  0.00    -0.048 Br
ATOM      8  C   UNL     1      -2.237  -4.484  -1.094  0.00  0.00    +0.064 C 
ENDROOT
BRANCH   1  13
ATOM      9  C   UNL     1      -0.018   1.503   0.010  0.00  0.00    +0.044 C 
ATOM     10  C   UNL     1       0.002  -0.004   0.002  0.00  0.00    -0.047 A 
ATOM     11  C   UNL     1       0.006  -0.688  -1.200  0.00  0.00    +0.005 A 
ATOM     12  C   UNL     1       0.025  -2.068  -1.211  0.00  0.00    +0.026 A 
ATOM     13  C   UNL     1       0.041  -2.771  -0.013  0.00  0.00    +0.047 A 
ATOM     14  C   UNL     1       0.037  -2.082   1.192  0.00  0.00    +0.029 A 
ATOM     15  C   UNL     1       0.023  -0.700   1.196  0.00  0.00    -0.046 A 
ATOM     16  C   UNL     1       0.025   0.048   2.504  0.00  0.00    +0.044 C 
ENDBRANCH   1  13
BRANCH   3  17
ATOM     17  C   UNL     1      -1.343  -7.462  -0.713  0.00  0.00    +0.141 C 
ATOM     18  N   UNL     1      -0.856  -8.646  -0.500  0.00  0.00    -0.188 NA
BRANCH  18  19
ATOM     19  N   UNL     1      -1.594  -9.782  -0.858  0.00  0.00    -0.206 N 
ATOM     20  C   UNL     1      -1.089 -11.011  -0.637  0.00  0.00    +0.242 C 
ATOM     21  O   UNL     1       0.006 -11.135  -0.128  0.00  0.00    -0.273 OA
ATOM     22  H   UNL     1      -2.469  -9.683  -1.264  0.00  0.00    +0.177 HD
BRANCH  20  23
ATOM     23  C   UNL     1      -1.883 -12.233  -1.021  0.00  0.00    +0.166 C 
BRANCH  23  24
ATOM     24  S   UNL     1      -0.941 -13.725  -0.600  0.00  0.00    -0.147 S 
BRANCH  24  25
ATOM     25  C   UNL     1      -2.020 -15.087  -1.119  0.00  0.00    +0.106 C 
BRANCH  25  26
ATOM     26  C   UNL     1      -1.347 -16.402  -0.821  0.00  0.00    -0.019 A 
ATOM     27  C   UNL     1      -0.528 -16.990  -1.767  0.00  0.00    +0.006 A 
ATOM     28  C   UNL     1       0.089 -18.196  -1.494  0.00  0.00    +0.000 A 
ATOM     29  C   UNL     1      -0.112 -18.816  -0.274  0.00  0.00    +0.001 A 
ATOM     30  C   UNL     1      -0.931 -18.229   0.672  0.00  0.00    +0.020 A 
ATOM     31  C   UNL     1      -1.544 -17.019   0.402  0.00  0.00    +0.045 A 
ATOM     32 CL   UNL     1      -2.567 -16.278   1.593  0.00  0.00    -0.083 Cl
ENDBRANCH  25  26
ENDBRANCH  24  25
ENDBRANCH  23  24
ENDBRANCH  20  23
ENDBRANCH  18  19
ENDBRANCH   3  17
TORSDOF 7
