REMARK  Name = ZINC39639675
REMARK  8 active torsions:
REMARK  status: ('A' for Active; 'I' for Inactive)
REMARK    1  A    between atoms: C_1  and  C_2
REMARK    2  A    between atoms: C_6  and  C_10
REMARK    3  A    between atoms: C_10  and  S_11
REMARK    4  A    between atoms: S_11  and  C_12
REMARK    5  A    between atoms: C_15  and  C_20
REMARK    6  A    between atoms: N_16  and  C_17
REMARK    7  A    between atoms: C_17  and  C_18
REMARK    8  A    between atoms: C_29  and  C_31
REMARK                            x       y       z     vdW  Elec       q    Type
REMARK                         _______ _______ _______ _____ _____    ______ ____
ROOT
ATOM      1  S   UNL     1      -0.001  -2.231  -6.076  0.00  0.00    -0.078 S 
ENDROOT
BRANCH   1   2
ATOM      2  C   UNL     1       0.007  -3.416  -7.380  0.00  0.00    +0.192 A 
ATOM      3  N   UNL     1       0.020  -4.722  -7.248  0.00  0.00    -0.122 NA
ATOM      4  N   UNL     1       0.023  -5.278  -8.407  0.00  0.00    -0.133 NA
ATOM      5  C   UNL     1       0.012  -4.368  -9.339  0.00  0.00    +0.139 A 
ATOM      6  N   UNL     1      -0.004  -3.149  -8.719  0.00  0.00    -0.302 N 
BRANCH   5   7
ATOM      7  C   UNL     1       0.011  -4.613 -10.826  0.00  0.00    +0.079 C 
ATOM      8  C   UNL     1      -1.218  -5.452 -11.214  0.00  0.00    +0.035 C 
ATOM      9  C   UNL     1      -1.063  -5.976 -12.662  0.00  0.00    +0.166 C 
ATOM     10  S   UNL     1       0.762  -6.084 -12.860  0.00  0.00    -0.030 S 
ATOM     11  O   UNL     1       1.169  -5.187 -13.885  0.00  0.00    -0.174 OA
ATOM     12  O   UNL     1       1.139  -7.452 -12.938  0.00  0.00    -0.174 OA
ATOM     13  C   UNL     1       1.286  -5.408 -11.229  0.00  0.00    +0.177 C 
ENDBRANCH   5   7
BRANCH   6  14
ATOM     14  C   UNL     1      -0.025  -1.831  -9.358  0.00  0.00    +0.152 C 
BRANCH  14  15
ATOM     15  C   UNL     1       1.388  -1.360  -9.586  0.00  0.00    -0.013 C 
ATOM     16  C   UNL     1       1.776  -1.012 -10.788  0.00  0.00    +0.005 C 
ENDBRANCH  14  15
ENDBRANCH   6  14
ENDBRANCH   1   2
BRANCH   1  17
ATOM     17  C   UNL     1       0.021  -3.239  -4.567  0.00  0.00    +0.151 C 
BRANCH  17  23
ATOM     18  C   UNL     1      -0.018   1.503   0.010  0.00  0.00    +0.041 C 
ATOM     19  C   UNL     1       0.002  -0.004   0.002  0.00  0.00    -0.034 C 
ATOM     20  C   UNL     1       0.006  -0.691  -1.150  0.00  0.00    +0.071 C 
ATOM     21  C   UNL     1       0.026  -2.167  -1.069  0.00  0.00    +0.112 C 
ATOM     22  N   UNL     1       0.030  -2.895  -2.160  0.00  0.00    -0.227 NA
ATOM     23  C   UNL     1       0.016  -2.337  -3.360  0.00  0.00    +0.134 C 
ATOM     24  N   UNL     1      -0.003  -1.040  -3.554  0.00  0.00    -0.160 NA
ATOM     25  C   UNL     1      -0.008  -0.158  -2.549  0.00  0.00    +0.271 C 
ATOM     26  O   UNL     1      -0.026   1.042  -2.765  0.00  0.00    -0.268 OA
ATOM     27  S   UNL     1       0.040  -2.523   0.670  0.00  0.00    -0.086 S 
ATOM     28  C   UNL     1       0.025  -0.793   1.292  0.00  0.00    +0.192 C 
BRANCH  28  29
ATOM     29  C   UNL     1      -1.212  -0.525   2.110  0.00  0.00    +0.373 C 
ATOM     30  O   UNL     1      -2.171  -1.273   2.026  0.00  0.00    -0.245 OA
ATOM     31  O   UNL     1      -1.254   0.439   2.855  0.00  0.00    -0.245 OA
ENDBRANCH  28  29
ENDBRANCH  17  23
ENDBRANCH   1  17
TORSDOF 7
