REMARK  Name = ZINC35888083
REMARK  14 active torsions:
REMARK  status: ('A' for Active; 'I' for Inactive)
REMARK    1  A    between atoms: C_1  and  C_2
REMARK    2  A    between atoms: C_2  and  C_3
REMARK    3  A    between atoms: C_2  and  C_4
REMARK    4  A    between atoms: C_4  and  N_5
REMARK    5  A    between atoms: N_5  and  C_6
REMARK    6  A    between atoms: C_6  and  C_7
REMARK    7  A    between atoms: N_10  and  C_22
REMARK    8  A    between atoms: C_12  and  C_14
REMARK    9  A    between atoms: C_17  and  O_20
REMARK   10  A    between atoms: O_20  and  C_21
REMARK   11  A    between atoms: C_22  and  C_23
REMARK   12  A    between atoms: C_27  and  O_29
REMARK   13  A    between atoms: O_29  and  C_30
REMARK   14  A    between atoms: C_31  and  C_33
REMARK                            x       y       z     vdW  Elec       q    Type
REMARK                         _______ _______ _______ _____ _____    ______ ____
ROOT
ATOM      1  C   UNL     1      -2.888  -3.247   1.716  0.00  0.00    -0.005 C 
ATOM      2  C   UNL     1      -3.866  -2.270   2.402  0.00  0.00    -0.073 C 
ATOM      3  N   UNL     1      -4.591  -3.103   3.396  0.00  0.00    +0.383 N 
ATOM      4  C   UNL     1      -3.546  -4.001   3.951  0.00  0.00    -0.070 C 
ATOM      5  C   UNL     1      -2.677  -4.387   2.732  0.00  0.00    +0.005 C 
ATOM      6  H   UNL     1      -5.316  -3.641   2.944  0.00  0.00    -0.081 HD
ENDROOT
BRANCH   5   7
ATOM      7  C   UNL     1      -1.226  -4.473   3.130  0.00  0.00    -0.046 A 
ATOM      8  C   UNL     1      -0.449  -5.526   2.683  0.00  0.00    +0.007 A 
ATOM      9  C   UNL     1       0.882  -5.606   3.046  0.00  0.00    +0.046 A 
ATOM     10  C   UNL     1       1.438  -4.629   3.859  0.00  0.00    +0.120 A 
ATOM     11  C   UNL     1       0.656  -3.574   4.305  0.00  0.00    +0.046 A 
ATOM     12  C   UNL     1      -0.672  -3.495   3.935  0.00  0.00    +0.007 A 
BRANCH  10  13
ATOM     13  O   UNL     1       2.747  -4.707   4.218  0.00  0.00    -0.495 OA
ATOM     14  C   UNL     1       3.252  -3.666   5.057  0.00  0.00    +0.277 C 
ENDBRANCH  10  13
ENDBRANCH   5   7
BRANCH   1  15
ATOM     15  C   UNL     1      -1.560  -2.547   1.418  0.00  0.00    +0.110 C 
BRANCH  15  16
ATOM     16  N   UNL     1      -1.756  -1.559   0.355  0.00  0.00    -0.297 N 
ATOM     17  C   UNL     1      -1.598  -1.916  -0.935  0.00  0.00    +0.249 C 
ATOM     18  O   UNL     1      -1.680  -1.079  -1.812  0.00  0.00    -0.270 OA
BRANCH  17  19
ATOM     19  C   UNL     1      -1.325  -3.325  -1.283  0.00  0.00    +0.072 A 
ATOM     20  C   UNL     1      -0.208  -3.975  -0.752  0.00  0.00    +0.016 A 
ATOM     21  C   UNL     1       0.041  -5.291  -1.080  0.00  0.00    +0.001 A 
ATOM     22  C   UNL     1      -0.812  -5.970  -1.934  0.00  0.00    +0.003 A 
ATOM     23  C   UNL     1      -1.919  -5.335  -2.465  0.00  0.00    +0.039 A 
ATOM     24  C   UNL     1      -2.186  -4.017  -2.140  0.00  0.00    +0.135 A 
ATOM     25  F   UNL     1      -3.271  -3.398  -2.655  0.00  0.00    -0.205 F 
ENDBRANCH  17  19
BRANCH  16  26
ATOM     26  C   UNL     1      -2.124  -0.182   0.694  0.00  0.00    +0.111 C 
BRANCH  26  28
ATOM     27  C   UNL     1      -1.257   2.143   0.983  0.00  0.00    +0.009 C 
ATOM     28  C   UNL     1      -0.863   0.683   0.753  0.00  0.00    +0.000 C 
ATOM     29  C   UNL     1       0.028   0.208   1.902  0.00  0.00    +0.009 C 
ENDBRANCH  26  28
ENDBRANCH  16  26
ENDBRANCH  15  16
ENDBRANCH   1  15
BRANCH   3  30
ATOM     30  C   UNL     1      -5.160  -2.260   4.456  0.00  0.00    -0.043 C 
BRANCH  30  31
ATOM     31  C   UNL     1      -5.992  -3.110   5.382  0.00  0.00    -0.060 A 
ATOM     32  C   UNL     1      -7.337  -3.301   5.123  0.00  0.00    +0.002 A 
ATOM     33  C   UNL     1      -8.102  -4.080   5.971  0.00  0.00    +0.004 A 
ATOM     34  C   UNL     1      -7.525  -4.669   7.079  0.00  0.00    +0.045 A 
ATOM     35  C   UNL     1      -6.176  -4.480   7.340  0.00  0.00    +0.120 A 
ATOM     36  C   UNL     1      -5.409  -3.702   6.485  0.00  0.00    +0.047 A 
BRANCH  35  37
ATOM     37  O   UNL     1      -5.606  -5.059   8.430  0.00  0.00    -0.495 OA
ATOM     38  C   UNL     1      -6.455  -5.850   9.263  0.00  0.00    +0.277 C 
ENDBRANCH  35  37
ENDBRANCH  30  31
ENDBRANCH   3  30
TORSDOF 10
