REMARK  Name = ZINC63695231
REMARK  4 active torsions:
REMARK  status: ('A' for Active; 'I' for Inactive)
REMARK    1  A    between atoms: C_4  and  C_7
REMARK    2  A    between atoms: C_7  and  C_8
REMARK    3  A    between atoms: C_14  and  C_16
REMARK    4  A    between atoms: N_19  and  C_22
REMARK                            x       y       z     vdW  Elec       q    Type
REMARK                         _______ _______ _______ _____ _____    ______ ____
ROOT
ATOM      1  C   UNL     1       6.766  -4.279   4.074  0.00  0.00    +0.078 C 
ATOM      2  C   UNL     1       7.736  -3.298   4.739  0.00  0.00    +0.028 C 
ATOM      3  C   UNL     1       9.153  -3.873   4.684  0.00  0.00    +0.089 C 
ATOM      4  N   UNL     1       9.184  -5.167   5.378  0.00  0.00    -0.266 NA
ATOM      5  C   UNL     1       8.297  -6.139   4.728  0.00  0.00    +0.089 C 
ATOM      6  C   UNL     1       6.854  -5.632   4.784  0.00  0.00    +0.028 C 
ENDROOT
BRANCH   4   7
ATOM      7  C   UNL     1      10.557  -5.684   5.466  0.00  0.00    +0.252 C 
ATOM      8  N   UNL     1      11.174  -5.704   4.134  0.00  0.00    -0.351 N 
ATOM      9  C   UNL     1      12.217  -4.927   4.174  0.00  0.00    +0.061 A 
ATOM     10  C   UNL     1      13.221  -4.550   3.169  0.00  0.00    +0.029 A 
ATOM     11  C   UNL     1      14.214  -3.704   3.507  0.00  0.00    +0.022 A 
ATOM     12  C   UNL     1      14.339  -3.156   4.798  0.00  0.00    +0.043 A 
ATOM     13  C   UNL     1      13.471  -3.437   5.793  0.00  0.00    +0.047 A 
ATOM     14  C   UNL     1      12.348  -4.348   5.539  0.00  0.00    +0.063 A 
ATOM     15  N   UNL     1      11.380  -4.790   6.291  0.00  0.00    -0.351 N 
ATOM     16 CL   UNL     1      15.659  -2.077   5.122  0.00  0.00    -0.083 Cl
ATOM     17  H   UNL     1      10.861  -6.206   3.365  0.00  0.00    +0.163 HD
ATOM     18  H   UNL     1      11.229  -4.570   7.224  0.00  0.00    +0.163 HD
ENDBRANCH   4   7
BRANCH   1  25
ATOM     19  C   UNL     1       3.750  -1.975   0.839  0.00  0.00    -0.004 C 
ATOM     20  C   UNL     1       2.889  -2.665   1.899  0.00  0.00    +0.023 C 
ATOM     21  C   UNL     1       3.502  -2.427   3.283  0.00  0.00    +0.108 C 
ATOM     22  N   UNL     1       4.903  -2.868   3.262  0.00  0.00    -0.301 N 
ATOM     23  C   UNL     1       5.797  -2.334   2.225  0.00  0.00    +0.108 C 
ATOM     24  C   UNL     1       5.158  -2.574   0.853  0.00  0.00    +0.023 C 
ATOM     25  C   UNL     1       5.360  -3.745   4.177  0.00  0.00    +0.219 C 
ATOM     26  O   UNL     1       4.641  -4.106   5.084  0.00  0.00    -0.275 OA
BRANCH  19  27
ATOM     27  C   UNL     1       3.122  -2.182  -0.541  0.00  0.00    +0.038 C 
BRANCH  27  31
ATOM     28  C   UNL     1      -0.664  -0.210  -0.695  0.00  0.00    +0.000 A 
ATOM     29  C   UNL     1       0.483   0.467  -1.062  0.00  0.00    +0.000 A 
ATOM     30  C   UNL     1       1.709  -0.171  -1.012  0.00  0.00    +0.003 A 
ATOM     31  C   UNL     1       1.786  -1.486  -0.595  0.00  0.00    -0.047 A 
ATOM     32  C   UNL     1       0.639  -2.164  -0.227  0.00  0.00    +0.003 A 
ATOM     33  C   UNL     1      -0.587  -1.526  -0.278  0.00  0.00    +0.000 A 
ENDBRANCH  27  31
ENDBRANCH  19  27
ENDBRANCH   1  25
TORSDOF 4
