REMARK  Name = ZINC01719205
REMARK  11 active torsions:
REMARK  status: ('A' for Active; 'I' for Inactive)
REMARK    1  A    between atoms: C_1  and  C_2
REMARK    2  A    between atoms: C_6  and  O_15
REMARK    3  A    between atoms: C_7  and  O_13
REMARK    4  A    between atoms: C_12  and  N_61
REMARK    5  A    between atoms: O_13  and  C_14
REMARK    6  A    between atoms: O_15  and  C_16
REMARK    7  A    between atoms: C_20  and  O_23
REMARK    8  A    between atoms: C_21  and  O_22
REMARK    9  A    between atoms: O_23  and  C_24
REMARK   10  A    between atoms: C_27  and  C_29
REMARK   11  A    between atoms: C_30  and  N_63
REMARK                            x       y       z     vdW  Elec       q    Type
REMARK                         _______ _______ _______ _____ _____    ______ ____
ROOT
ATOM      1  C   UNL     1      -0.009   3.628   0.281  0.00  0.00    +0.175 A 
ATOM      2  C   UNL     1       1.252   3.054   0.144  0.00  0.00    -0.012 A 
ATOM      3  C   UNL     1       1.383   1.682   0.146  0.00  0.00    -0.040 A 
ATOM      4  C   UNL     1       0.261   0.878   0.282  0.00  0.00    +0.053 A 
ATOM      5  C   UNL     1      -0.996   1.443   0.411  0.00  0.00    +0.165 A 
ATOM      6  C   UNL     1      -1.133   2.826   0.417  0.00  0.00    +0.202 A 
ATOM      7  C   UNL     1       2.729   1.016   0.007  0.00  0.00    +0.017 C 
ATOM      8  C   UNL     1       3.751   2.014  -0.538  0.00  0.00    -0.074 C 
ATOM      9  C   UNL     1       2.441   3.966  -0.007  0.00  0.00    -0.037 C 
ATOM     10  C   UNL     1       2.308   5.135   0.970  0.00  0.00    -0.008 C 
ATOM     11  C   UNL     1       4.856   4.093   0.035  0.00  0.00    -0.095 C 
ATOM     12  N   UNL     1       3.681   3.232   0.295  0.00  0.00    +0.383 N 
ATOM     13  H   UNL     1       3.678   2.962   1.286  0.00  0.00    -0.081 HD
ENDROOT
BRANCH   6  14
ATOM     14  O   UNL     1      -2.364   3.391   0.551  0.00  0.00    -0.501 OA
ATOM     15  H   UNL     1      -2.819   3.545  -0.289  0.00  0.00    +0.292 HD
ENDBRANCH   6  14
BRANCH   5  16
ATOM     16  O   UNL     1      -2.092   0.648   0.537  0.00  0.00    -0.491 OA
ATOM     17  C   UNL     1      -1.874  -0.764   0.528  0.00  0.00    +0.277 C 
ENDBRANCH   5  16
BRANCH   1  18
ATOM     18  O   UNL     1      -0.139   4.982   0.281  0.00  0.00    -0.448 OA
BRANCH  18  23
ATOM     19  C   UNL     1       0.414   3.563  -4.474  0.00  0.00    -0.008 C 
ATOM     20  C   UNL     1      -0.668   4.643  -4.540  0.00  0.00    -0.041 C 
ATOM     21  C   UNL     1      -0.599   5.494  -3.300  0.00  0.00    -0.054 A 
ATOM     22  C   UNL     1      -0.394   4.865  -2.080  0.00  0.00    +0.052 A 
ATOM     23  C   UNL     1      -0.336   5.604  -0.912  0.00  0.00    +0.170 A 
ATOM     24  C   UNL     1      -0.475   6.989  -0.964  0.00  0.00    +0.162 A 
ATOM     25  C   UNL     1      -0.673   7.612  -2.183  0.00  0.00    +0.053 A 
ATOM     26  C   UNL     1      -0.733   6.866  -3.351  0.00  0.00    -0.044 A 
ATOM     27  C   UNL     1      -0.938   7.592  -4.655  0.00  0.00    +0.017 C 
ATOM     28  C   UNL     1      -1.387   6.608  -5.736  0.00  0.00    -0.074 C 
ATOM     29  C   UNL     1      -0.621   4.661  -6.959  0.00  0.00    -0.095 C 
ATOM     30  N   UNL     1      -0.441   5.473  -5.735  0.00  0.00    +0.382 N 
ATOM     31  H   UNL     1       0.519   5.836  -5.713  0.00  0.00    -0.081 HD
BRANCH  24  32
ATOM     32  O   UNL     1      -0.417   7.724   0.179  0.00  0.00    -0.491 OA
ATOM     33  C   UNL     1      -0.568   9.139   0.047  0.00  0.00    +0.277 C 
ENDBRANCH  24  32
ENDBRANCH  18  23
ENDBRANCH   1  18
TORSDOF 5
