REMARK  Name = ZINC00833882
REMARK  1 active torsions:
REMARK  status: ('A' for Active; 'I' for Inactive)
REMARK    1  A    between atoms: C_18  and  C_21
REMARK                            x       y       z     vdW  Elec       q    Type
REMARK                         _______ _______ _______ _____ _____    ______ ____
ROOT
ATOM      1  C   UNL     1       1.548  -6.830   1.988  0.00  0.00    +0.001 A 
ATOM      2  C   UNL     1       1.252  -5.850   2.933  0.00  0.00    +0.001 A 
ATOM      3  C   UNL     1       0.620  -4.698   2.573  0.00  0.00    +0.009 A 
ATOM      4  C   UNL     1       0.218  -4.503   1.243  0.00  0.00    -0.008 A 
ATOM      5  C   UNL     1       0.652  -5.436   0.264  0.00  0.00    -0.017 A 
ATOM      6  C   UNL     1       1.269  -6.630   0.671  0.00  0.00    +0.008 A 
ATOM      7  C   UNL     1       0.465  -5.150  -1.101  0.00  0.00    +0.010 A 
ATOM      8  C   UNL     1      -0.153  -3.998  -1.476  0.00  0.00    +0.024 A 
ATOM      9  C   UNL     1      -0.652  -3.110  -0.522  0.00  0.00    +0.036 A 
ATOM     10  C   UNL     1      -0.550  -3.394   0.840  0.00  0.00    +0.014 A 
ATOM     11  C   UNL     1      -1.244  -2.498   1.790  0.00  0.00    +0.028 C 
ATOM     12  C   UNL     1      -1.585  -1.251   1.417  0.00  0.00    -0.034 C 
ATOM     13  C   UNL     1      -2.253  -0.280   2.355  0.00  0.00    +0.034 C 
ATOM     14  C   UNL     1      -2.953  -0.983   3.512  0.00  0.00    +0.012 C 
ATOM     15  C   UNL     1      -1.961  -1.948   4.180  0.00  0.00    +0.080 C 
ATOM     16  C   UNL     1      -1.610  -2.987   3.132  0.00  0.00    +0.164 C 
ATOM     17  O   UNL     1      -1.639  -4.165   3.405  0.00  0.00    -0.292 OA
ATOM     18  C   UNL     1      -1.295  -0.774   0.011  0.00  0.00    +0.128 C 
ATOM     19  N   UNL     1      -1.203  -1.894  -0.922  0.00  0.00    -0.333 N 
ATOM     20  H   UNL     1      -1.530  -1.792  -1.837  0.00  0.00    +0.147 HD
ENDROOT
BRANCH  18  21
ATOM     21  C   UNL     1       0.002  -0.004   0.002  0.00  0.00    -0.020 A 
ATOM     22  C   UNL     1       1.207  -0.682  -0.013  0.00  0.00    +0.009 A 
ATOM     23  C   UNL     1       2.398   0.019  -0.021  0.00  0.00    +0.050 A 
ATOM     24  C   UNL     1       2.387   1.405  -0.013  0.00  0.00    +0.166 A 
ATOM     25  C   UNL     1       1.173   2.088   0.002  0.00  0.00    +0.167 A 
ATOM     26  C   UNL     1      -0.017   1.378   0.010  0.00  0.00    +0.055 A 
ATOM     27  O   UNL     1       1.427   3.429   0.007  0.00  0.00    -0.453 OA
ATOM     28  C   UNL     1       2.797   3.562  -0.418  0.00  0.00    +0.466 C 
ATOM     29  O   UNL     1       3.401   2.318  -0.017  0.00  0.00    -0.453 OA
ENDBRANCH  18  21
TORSDOF 1
