REMARK  Name = ZINC32510552
REMARK  7 active torsions:
REMARK  status: ('A' for Active; 'I' for Inactive)
REMARK    1  A    between atoms: C_4  and  C_7
REMARK    2  A    between atoms: C_7  and  C_8
REMARK    3  A    between atoms: C_7  and  N_14
REMARK    4  A    between atoms: N_14  and  C_15
REMARK    5  A    between atoms: C_15  and  C_16
REMARK    6  A    between atoms: C_19  and  C_29
REMARK    7  A    between atoms: C_22  and  C_24
REMARK                            x       y       z     vdW  Elec       q    Type
REMARK                         _______ _______ _______ _____ _____    ______ ____
ROOT
ATOM      1  C   UNL     1       0.002  -0.004   0.002  0.00  0.00    +0.018 C 
ENDROOT
BRANCH   1   2
ATOM      2  C   UNL     1      -1.412  -0.526   0.013  0.00  0.00    +0.218 C 
ATOM      3  O   UNL     1      -2.345   0.250   0.026  0.00  0.00    -0.276 OA
ATOM      4  N   UNL     1      -1.640  -1.854   0.008  0.00  0.00    -0.184 N 
ATOM      5  C   UNL     1      -2.965  -2.494   0.023  0.00  0.00    +0.173 C 
ATOM      6  C   UNL     1      -2.639  -4.001   0.006  0.00  0.00    +0.093 C 
ATOM      7  C   UNL     1      -1.128  -4.048  -0.008  0.00  0.00    +0.104 C 
ATOM      8  N   UNL     1      -0.660  -2.844  -0.006  0.00  0.00    -0.178 NA
BRANCH   7   9
ATOM      9  C   UNL     1      -0.319  -5.271  -0.021  0.00  0.00    +0.150 A 
ATOM     10  C   UNL     1       1.044  -5.330  -0.039  0.00  0.00    +0.051 A 
ATOM     11  C   UNL     1       1.390  -6.694  -0.044  0.00  0.00    +0.042 A 
ATOM     12  C   UNL     1       0.237  -7.395  -0.037  0.00  0.00    +0.196 A 
ATOM     13  O   UNL     1      -0.792  -6.533  -0.023  0.00  0.00    -0.462 OA
ENDBRANCH   7   9
BRANCH   5  14
ATOM     14  C   UNL     1      -3.717  -2.126   1.275  0.00  0.00    +0.128 A 
ATOM     15  C   UNL     1      -5.035  -1.869   1.354  0.00  0.00    +0.046 A 
ATOM     16  C   UNL     1      -5.314  -1.569   2.707  0.00  0.00    +0.041 A 
ATOM     17  C   UNL     1      -4.150  -1.661   3.374  0.00  0.00    +0.195 A 
ATOM     18  O   UNL     1      -3.187  -2.004   2.503  0.00  0.00    -0.466 OA
ENDBRANCH   5  14
ENDBRANCH   1   2
BRANCH   1  19
ATOM     19  N   UNL     1      -0.018   1.465   0.010  0.00  0.00    +0.392 N 
ATOM     20  H   UNL     1      -0.542   1.806   0.915  0.00  0.00    -0.084 HD
ATOM     21  H   UNL     1      -0.559   1.815  -0.881  0.00  0.00    -0.084 HD
BRANCH  19  22
ATOM     22  C   UNL     1       1.346   2.010   0.000  0.00  0.00    -0.009 C 
BRANCH  22  26
ATOM     23  C   UNL     1       2.760   2.233  -4.025  0.00  0.00    +0.000 A 
ATOM     24  C   UNL     1       3.612   1.829  -3.014  0.00  0.00    +0.000 A 
ATOM     25  C   UNL     1       3.155   1.757  -1.712  0.00  0.00    +0.002 A 
ATOM     26  C   UNL     1       1.845   2.089  -1.420  0.00  0.00    -0.057 A 
ATOM     27  C   UNL     1       0.992   2.488  -2.431  0.00  0.00    +0.002 A 
ATOM     28  C   UNL     1       1.450   2.565  -3.733  0.00  0.00    +0.000 A 
ENDBRANCH  22  26
BRANCH  22  29
ATOM     29  C   UNL     1       1.341   3.389   0.608  0.00  0.00    -0.057 A 
ATOM     30  C   UNL     1       0.309   4.265   0.325  0.00  0.00    +0.002 A 
ATOM     31  C   UNL     1       0.302   5.528   0.886  0.00  0.00    +0.000 A 
ATOM     32  C   UNL     1       1.331   5.919   1.723  0.00  0.00    +0.000 A 
ATOM     33  C   UNL     1       2.365   5.045   2.002  0.00  0.00    +0.000 A 
ATOM     34  C   UNL     1       2.370   3.780   1.444  0.00  0.00    +0.002 A 
ENDBRANCH  22  29
ENDBRANCH  19  22
ENDBRANCH   1  19
TORSDOF 7
