REMARK  Name = ZINC16924089
REMARK  8 active torsions:
REMARK  status: ('A' for Active; 'I' for Inactive)
REMARK    1  A    between atoms: C_1  and  C_2
REMARK    2  A    between atoms: C_5  and  C_28
REMARK    3  A    between atoms: C_6  and  N_8
REMARK    4  A    between atoms: C_11  and  C_16
REMARK    5  A    between atoms: C_16  and  C_17
REMARK    6  A    between atoms: N_19  and  C_20
REMARK    7  A    between atoms: C_23  and  O_27
REMARK    8  A    between atoms: C_25  and  C_26
REMARK                            x       y       z     vdW  Elec       q    Type
REMARK                         _______ _______ _______ _____ _____    ______ ____
ROOT
ATOM      1  N   UNL     1      -0.006   0.025  -0.011  0.00  0.00    -0.200 N 
ATOM      2  C   UNL     1       1.104  -0.694  -0.025  0.00  0.00    +0.241 C 
ATOM      3  O   UNL     1       1.090  -1.906  -0.036  0.00  0.00    -0.274 OA
ATOM      4  C   UNL     1       2.400   0.105  -0.028  0.00  0.00    +0.151 C 
ATOM      5  S   UNL     1       1.717   1.811  -0.007  0.00  0.00    -0.054 S 
ATOM      6  C   UNL     1      -0.015   1.371   0.002  0.00  0.00    +0.286 C 
ATOM      7  O   UNL     1      -0.977   2.114   0.011  0.00  0.00    -0.262 OA
ENDROOT
BRANCH   1  13
ATOM      8  C   UNL     1      -3.738  -1.988  -2.502  0.00  0.00    +0.044 C 
ATOM      9  C   UNL     1      -3.065  -1.636  -1.200  0.00  0.00    -0.049 A 
ATOM     10  C   UNL     1      -3.661  -1.979  -0.000  0.00  0.00    +0.004 A 
ATOM     11  C   UNL     1      -3.047  -1.658   1.196  0.00  0.00    +0.005 A 
ATOM     12  C   UNL     1      -1.833  -0.998   1.196  0.00  0.00    -0.029 A 
ATOM     13  C   UNL     1      -1.235  -0.648  -0.007  0.00  0.00    +0.048 A 
ATOM     14  C   UNL     1      -1.854  -0.972  -1.207  0.00  0.00    +0.027 A 
ATOM     15  C   UNL     1      -1.161  -0.654   2.500  0.00  0.00    +0.045 C 
ENDBRANCH   1  13
BRANCH   4  16
ATOM     16  C   UNL     1       3.211  -0.154  -1.299  0.00  0.00    +0.120 C 
BRANCH  16  17
ATOM     17  C   UNL     1       4.535   0.558  -1.203  0.00  0.00    +0.219 C 
ATOM     18  O   UNL     1       4.804   1.209  -0.216  0.00  0.00    -0.275 OA
ATOM     19  N   UNL     1       5.422   0.471  -2.215  0.00  0.00    -0.285 N 
ATOM     20  H   UNL     1       5.242  -0.113  -2.969  0.00  0.00    +0.155 HD
BRANCH  19  21
ATOM     21  C   UNL     1       6.602   1.225  -2.178  0.00  0.00    +0.037 A 
ATOM     22  C   UNL     1       6.656   2.397  -1.436  0.00  0.00    +0.027 A 
ATOM     23  C   UNL     1       7.821   3.136  -1.396  0.00  0.00    +0.047 A 
ATOM     24  C   UNL     1       8.935   2.714  -2.106  0.00  0.00    +0.117 A 
ATOM     25  C   UNL     1       8.881   1.546  -2.853  0.00  0.00    +0.050 A 
ATOM     26  C   UNL     1       7.718   0.803  -2.889  0.00  0.00    -0.026 A 
ATOM     27  C   UNL     1       7.659  -0.466  -3.701  0.00  0.00    +0.046 C 
BRANCH  24  28
ATOM     28  O   UNL     1      10.081   3.445  -2.071  0.00  0.00    -0.507 OA
ATOM     29  H   UNL     1      10.139   4.119  -2.763  0.00  0.00    +0.292 HD
ENDBRANCH  24  28
ENDBRANCH  19  21
ENDBRANCH  16  17
ENDBRANCH   4  16
TORSDOF 5
