REMARK  Name = ZINC40916726
REMARK  10 active torsions:
REMARK  status: ('A' for Active; 'I' for Inactive)
REMARK    1  A    between atoms: C_1  and  C_2
REMARK    2  A    between atoms: C_3  and  C_30
REMARK    3  A    between atoms: C_4  and  C_12
REMARK    4  A    between atoms: C_17  and  O_18
REMARK    5  A    between atoms: O_18  and  C_19
REMARK    6  A    between atoms: C_19  and  C_20
REMARK    7  A    between atoms: C_23  and  C_26
REMARK    8  A    between atoms: C_26  and  C_27
REMARK    9  A    between atoms: C_26  and  C_28
REMARK   10  A    between atoms: C_26  and  C_29
REMARK                            x       y       z     vdW  Elec       q    Type
REMARK                         _______ _______ _______ _____ _____    ______ ____
ROOT
ATOM      1  C   UNL     1      -1.716  -2.642   1.363  0.00  0.00    +0.023 A 
ATOM      2  C   UNL     1      -0.973  -2.345   2.490  0.00  0.00    +0.009 A 
ATOM      3  C   UNL     1      -1.397  -2.778   3.732  0.00  0.00    +0.001 A 
ATOM      4  C   UNL     1      -2.565  -3.509   3.851  0.00  0.00    +0.004 A 
ATOM      5  C   UNL     1      -3.311  -3.808   2.728  0.00  0.00    +0.046 A 
ATOM      6  C   UNL     1      -2.890  -3.371   1.480  0.00  0.00    +0.127 A 
ENDROOT
BRANCH   1  10
ATOM      7  C   UNL     1      -0.018   1.503   0.010  0.00  0.00    +0.061 C 
ATOM      8  C   UNL     1       0.002  -0.004   0.002  0.00  0.00    +0.018 C 
ATOM      9  C   UNL     1      -1.163  -0.668   0.004  0.00  0.00    +0.060 C 
ATOM     10  C   UNL     1      -1.253  -2.171   0.008  0.00  0.00    +0.181 C 
ATOM     11  N   UNL     1       0.061  -2.737  -0.281  0.00  0.00    -0.221 N 
ATOM     12  C   UNL     1       1.208  -2.013  -0.279  0.00  0.00    +0.218 A 
ATOM     13  N   UNL     1       2.193  -2.818  -0.568  0.00  0.00    -0.201 NA
ATOM     14  C   UNL     1       1.720  -4.052  -0.765  0.00  0.00    +0.247 A 
ATOM     15  N   UNL     1       0.420  -4.046  -0.600  0.00  0.00    -0.156 NA
ATOM     16  N   UNL     1       1.213  -0.651  -0.013  0.00  0.00    -0.287 N 
ATOM     17  H   UNL     1       2.041  -0.176   0.159  0.00  0.00    +0.155 HD
BRANCH   9  18
ATOM     18  C   UNL     1      -2.365   0.080   0.003  0.00  0.00    +0.241 C 
ATOM     19  O   UNL     1      -2.325   1.297  -0.001  0.00  0.00    -0.271 OA
ATOM     20  N   UNL     1      -3.553  -0.556   0.005  0.00  0.00    -0.325 N 
ATOM     21  H   UNL     1      -3.585  -1.525   0.007  0.00  0.00    +0.145 HD
ATOM     22  H   UNL     1      -4.377  -0.044   0.004  0.00  0.00    +0.145 HD
ENDBRANCH   9  18
ENDBRANCH   1  10
BRANCH   6  23
ATOM     23  O   UNL     1      -3.626  -3.659   0.374  0.00  0.00    -0.487 OA
BRANCH  23  24
ATOM     24  C   UNL     1      -4.824  -4.413   0.570  0.00  0.00    +0.264 C 
BRANCH  24  25
ATOM     25  C   UNL     1      -5.500  -4.635  -0.758  0.00  0.00    -0.010 A 
ATOM     26  C   UNL     1      -6.423  -3.717  -1.226  0.00  0.00    +0.007 A 
ATOM     27  C   UNL     1      -7.043  -3.921  -2.444  0.00  0.00    +0.004 A 
ATOM     28  C   UNL     1      -6.742  -5.041  -3.195  0.00  0.00    -0.042 A 
ATOM     29  C   UNL     1      -5.819  -5.959  -2.728  0.00  0.00    +0.004 A 
ATOM     30  C   UNL     1      -5.195  -5.753  -1.511  0.00  0.00    +0.007 A 
BRANCH  28  31
ATOM     31  C   UNL     1      -7.419  -5.264  -4.523  0.00  0.00    -0.013 C 
ATOM     32  C   UNL     1      -7.103  -4.096  -5.459  0.00  0.00    +0.015 C 
ATOM     33  C   UNL     1      -6.911  -6.567  -5.143  0.00  0.00    +0.015 C 
ATOM     34  C   UNL     1      -8.932  -5.355  -4.314  0.00  0.00    +0.015 C 
ENDBRANCH  28  31
ENDBRANCH  24  25
ENDBRANCH  23  24
ENDBRANCH   6  23
TORSDOF 6
