REMARK  Name = ZINC02308922
REMARK  7 active torsions:
REMARK  status: ('A' for Active; 'I' for Inactive)
REMARK    1  A    between atoms: C_1  and  C_2
REMARK    2  A    between atoms: C_2  and  C_4
REMARK    3  A    between atoms: C_2  and  N_45
REMARK    4  A    between atoms: N_6  and  C_7
REMARK    5  A    between atoms: C_16  and  C_17
REMARK    6  A    between atoms: C_17  and  O_19
REMARK    7  A    between atoms: O_19  and  C_20
REMARK                            x       y       z     vdW  Elec       q    Type
REMARK                         _______ _______ _______ _____ _____    ______ ____
ROOT
ATOM      1  C   UNL     1       1.001   3.021   5.756  0.00  0.00    +0.073 A 
ATOM      2  C   UNL     1       2.321   2.488   5.409  0.00  0.00    +0.023 A 
ATOM      3  C   UNL     1       2.998   2.305   4.199  0.00  0.00    +0.027 A 
ATOM      4  C   UNL     1       4.254   1.769   4.199  0.00  0.00    +0.019 A 
ATOM      5  C   UNL     1       4.866   1.405   5.392  0.00  0.00    +0.017 A 
ATOM      6  C   UNL     1       4.219   1.576   6.595  0.00  0.00    +0.027 A 
ATOM      7  C   UNL     1       2.936   2.120   6.620  0.00  0.00    +0.049 A 
ATOM      8  N   UNL     1       2.062   2.404   7.644  0.00  0.00    -0.348 N 
ATOM      9  H   UNL     1       2.237   2.248   8.585  0.00  0.00    +0.166 HD
ATOM     10  C   UNL     1       0.896   2.952   7.130  0.00  0.00    +0.147 A 
ATOM     11 BR   UNL     1       5.168   1.522   2.562  0.00  0.00    -0.050 Br
ENDROOT
BRANCH   1  14
ATOM     12  C   UNL     1      -0.144   2.903   3.682  0.00  0.00    +0.203 C 
ATOM     13  O   UNL     1       0.587   1.998   3.340  0.00  0.00    -0.277 OA
ATOM     14  N   UNL     1       0.043   3.507   4.872  0.00  0.00    -0.284 N 
ATOM     15  H   UNL     1      -0.490   4.281   5.113  0.00  0.00    +0.155 HD
BRANCH  12  17
ATOM     16  C   UNL     1      -2.602   3.176   3.496  0.00  0.00    -0.004 C 
ATOM     17  C   UNL     1      -1.263   3.352   2.777  0.00  0.00    +0.016 C 
BRANCH  17  23
ATOM     18  C   UNL     1      -1.531   1.136   1.849  0.00  0.00    -0.067 C 
ATOM     19  C   UNL     1      -1.077   0.257   0.678  0.00  0.00    +0.050 C 
ATOM     20  S   UNL     1      -2.022   0.738  -0.800  0.00  0.00    -0.164 S 
ATOM     21  C   UNL     1      -1.819   2.546  -0.836  0.00  0.00    +0.050 C 
ATOM     22  C   UNL     1      -2.169   3.098   0.550  0.00  0.00    -0.067 C 
ATOM     23  N   UNL     1      -1.216   2.549   1.543  0.00  0.00    +0.388 N 
ATOM     24  H   UNL     1      -0.268   2.597   1.151  0.00  0.00    -0.081 HD
ENDBRANCH  17  23
ENDBRANCH  12  17
ENDBRANCH   1  14
BRANCH  10  25
ATOM     25  C   UNL     1      -0.224   3.370   7.893  0.00  0.00    +0.357 C 
ATOM     26  O   UNL     1      -1.238   3.742   7.332  0.00  0.00    -0.243 OA
BRANCH  25  27
ATOM     27  O   UNL     1      -0.165   3.357   9.241  0.00  0.00    -0.463 OA
ATOM     28  C   UNL     1      -1.330   3.792   9.945  0.00  0.00    +0.280 C 
ENDBRANCH  25  27
ENDBRANCH  10  25
TORSDOF 5
