REMARK  Name = ZINC28428388
REMARK  10 active torsions:
REMARK  status: ('A' for Active; 'I' for Inactive)
REMARK    1  A    between atoms: C_4  and  N_7
REMARK    2  A    between atoms: C_8  and  S_12
REMARK    3  A    between atoms: S_12  and  C_13
REMARK    4  A    between atoms: C_13  and  C_14
REMARK    5  A    between atoms: C_14  and  C_15
REMARK    6  A    between atoms: C_15  and  N_16
REMARK    7  A    between atoms: N_16  and  C_17
REMARK    8  A    between atoms: C_17  and  C_18
REMARK    9  A    between atoms: N_20  and  C_27
REMARK   10  A    between atoms: C_27  and  C_28
REMARK                            x       y       z     vdW  Elec       q    Type
REMARK                         _______ _______ _______ _____ _____    ______ ____
ROOT
ATOM      1  N   UNL     1      -1.684   5.642   1.360  0.00  0.00    +0.382 N 
ATOM      2  H   UNL     1      -0.897   5.999   2.042  0.00  0.00    -0.085 HD
ATOM      3  H   UNL     1      -1.998   4.632   1.660  0.00  0.00    -0.085 HD
ENDROOT
BRANCH   1   4
ATOM      4  C   UNL     1      -2.835   6.552   1.421  0.00  0.00    -0.081 C 
BRANCH   4   5
ATOM      5  C   UNL     1      -3.379   6.591   2.851  0.00  0.00    -0.008 C 
BRANCH   5   6
ATOM      6  C   UNL     1      -4.578   7.539   2.915  0.00  0.00    +0.075 C 
BRANCH   6   7
ATOM      7  S   UNL     1      -5.221   7.585   4.606  0.00  0.00    -0.084 S 
BRANCH   7   9
ATOM      8  N   UNL     1      -7.417   9.136   5.356  0.00  0.00    -0.187 N 
ATOM      9  C   UNL     1      -6.555   8.717   4.396  0.00  0.00    +0.214 A 
ATOM     10  N   UNL     1      -6.907   9.312   3.276  0.00  0.00    -0.101 NA
ATOM     11  N   UNL     1      -7.922  10.074   3.471  0.00  0.00    -0.022 NA
ATOM     12  N   UNL     1      -8.289  10.026   4.706  0.00  0.00    -0.038 NA
BRANCH   8  16
ATOM     13  C   UNL     1      -7.464   8.027   9.375  0.00  0.00    +0.000 A 
ATOM     14  C   UNL     1      -7.812   9.314   9.010  0.00  0.00    +0.002 A 
ATOM     15  C   UNL     1      -7.798   9.685   7.680  0.00  0.00    +0.028 A 
ATOM     16  C   UNL     1      -7.433   8.763   6.708  0.00  0.00    +0.070 A 
ATOM     17  C   UNL     1      -7.089   7.469   7.076  0.00  0.00    +0.028 A 
ATOM     18  C   UNL     1      -7.100   7.106   8.409  0.00  0.00    +0.002 A 
ENDBRANCH   8  16
ENDBRANCH   7   9
ENDBRANCH   6   7
ENDBRANCH   5   6
ENDBRANCH   4   5
ENDBRANCH   1   4
BRANCH   1  19
ATOM     19  C   UNL     1      -1.134   5.579  -0.001  0.00  0.00    -0.045 C 
BRANCH  19  20
ATOM     20  C   UNL     1       0.043   4.638  -0.025  0.00  0.00    -0.039 A 
ATOM     21  C   UNL     1       1.340   4.982   0.006  0.00  0.00    +0.089 A 
ATOM     22  N   UNL     1       2.121   3.858  -0.030  0.00  0.00    -0.342 N 
ATOM     23  C   UNL     1       1.325   2.736  -0.086  0.00  0.00    +0.050 A 
ATOM     24  C   UNL     1      -0.012   3.176  -0.085  0.00  0.00    +0.001 A 
ATOM     25  C   UNL     1      -1.051   2.245  -0.136  0.00  0.00    +0.010 A 
ATOM     26  C   UNL     1      -0.764   0.910  -0.192  0.00  0.00    +0.001 A 
ATOM     27  C   UNL     1       0.553   0.471  -0.188  0.00  0.00    +0.002 A 
ATOM     28  C   UNL     1       1.594   1.373  -0.138  0.00  0.00    +0.026 A 
BRANCH  22  29
ATOM     29  C   UNL     1       3.586   3.851  -0.012  0.00  0.00    +0.158 C 
BRANCH  29  30
ATOM     30  C   UNL     1       4.069   3.628   1.398  0.00  0.00    -0.009 A 
ATOM     31  C   UNL     1       4.363   2.350   1.835  0.00  0.00    +0.007 A 
ATOM     32  C   UNL     1       4.806   2.146   3.128  0.00  0.00    +0.000 A 
ATOM     33  C   UNL     1       4.957   3.220   3.985  0.00  0.00    +0.001 A 
ATOM     34  C   UNL     1       4.664   4.498   3.550  0.00  0.00    +0.020 A 
ATOM     35  C   UNL     1       4.225   4.704   2.254  0.00  0.00    +0.046 A 
ATOM     36 CL   UNL     1       3.864   6.311   1.704  0.00  0.00    -0.083 Cl
ENDBRANCH  29  30
ENDBRANCH  22  29
ENDBRANCH  19  20
ENDBRANCH   1  19
TORSDOF 10
