REMARK  Name = ZINC20083301
REMARK  10 active torsions:
REMARK  status: ('A' for Active; 'I' for Inactive)
REMARK    1  A    between atoms: C_1  and  C_2
REMARK    2  A    between atoms: C_5  and  C_37
REMARK    3  A    between atoms: C_9  and  C_13
REMARK    4  A    between atoms: C_13  and  C_15
REMARK    5  A    between atoms: C_13  and  N_24
REMARK    6  A    between atoms: N_19  and  C_20
REMARK    7  A    between atoms: C_20  and  C_21
REMARK    8  A    between atoms: C_20  and  C_22
REMARK    9  A    between atoms: C_20  and  C_23
REMARK   10  A    between atoms: C_27  and  C_30
REMARK                            x       y       z     vdW  Elec       q    Type
REMARK                         _______ _______ _______ _____ _____    ______ ____
ROOT
ATOM      1  C   UNL     1       0.018  -0.036   5.064  0.00  0.00    +0.039 C 
ENDROOT
BRANCH   1  10
ATOM      2  C   UNL     1      -0.292   0.827  -0.062  0.00  0.00    +0.044 C 
ATOM      3  C   UNL     1      -0.399  -0.661   0.148  0.00  0.00    -0.041 A 
ATOM      4  C   UNL     1      -0.542  -1.497  -0.923  0.00  0.00    +0.004 A 
ATOM      5  C   UNL     1      -0.641  -2.869  -0.740  0.00  0.00    +0.005 A 
ATOM      6  C   UNL     1      -0.598  -3.415   0.525  0.00  0.00    -0.026 A 
ATOM      7  C   UNL     1      -0.453  -2.584   1.631  0.00  0.00    +0.052 A 
ATOM      8  C   UNL     1      -0.347  -1.193   1.441  0.00  0.00    +0.002 A 
ATOM      9  C   UNL     1      -0.189  -0.327   2.610  0.00  0.00    +0.018 A 
ATOM     10  C   UNL     1      -0.144  -0.899   3.839  0.00  0.00    +0.011 A 
ATOM     11  C   UNL     1      -0.249  -2.300   3.975  0.00  0.00    +0.251 A 
ATOM     12  N   UNL     1      -0.407  -3.103   2.908  0.00  0.00    -0.322 N 
ATOM     13  O   UNL     1      -0.205  -2.794   5.088  0.00  0.00    -0.268 OA
ATOM     14  C   UNL     1      -0.708  -4.907   0.710  0.00  0.00    +0.046 C 
ATOM     15  H   UNL     1      -0.476  -4.061   3.037  0.00  0.00    +0.169 HD
ENDBRANCH   1  10
BRANCH   1  16
ATOM     16  N   UNL     1      -1.076  -0.311   6.005  0.00  0.00    +0.392 N 
ATOM     17  C   UNL     1      -2.365  -0.001   5.366  0.00  0.00    -0.072 C 
ATOM     18  C   UNL     1      -3.492  -0.533   6.255  0.00  0.00    +0.017 C 
ATOM     19  C   UNL     1      -3.276  -0.072   7.671  0.00  0.00    -0.048 C 
ATOM     20  C   UNL     1      -2.122   0.400   8.089  0.00  0.00    -0.041 C 
ATOM     21  C   UNL     1      -0.920   0.528   7.198  0.00  0.00    -0.049 C 
ATOM     22  H   UNL     1      -1.056  -1.284   6.271  0.00  0.00    -0.080 HD
BRANCH  19  23
ATOM     23  C   UNL     1      -4.402  -0.153   8.625  0.00  0.00    -0.022 A 
ATOM     24  C   UNL     1      -4.917  -1.395   8.997  0.00  0.00    +0.011 A 
ATOM     25  C   UNL     1      -5.967  -1.465   9.888  0.00  0.00    +0.039 A 
ATOM     26  C   UNL     1      -6.510  -0.304  10.415  0.00  0.00    +0.123 A 
ATOM     27  C   UNL     1      -6.002   0.933  10.049  0.00  0.00    +0.039 A 
ATOM     28  C   UNL     1      -4.949   1.013   9.163  0.00  0.00    +0.011 A 
ATOM     29  F   UNL     1      -7.539  -0.377  11.287  0.00  0.00    -0.205 F 
ENDBRANCH  19  23
ENDBRANCH   1  16
BRANCH   1  30
ATOM     30  C   UNL     1       1.337  -0.343   5.724  0.00  0.00    +0.143 A 
ATOM     31  N   UNL     1       1.655  -1.442   6.363  0.00  0.00    -0.115 NA
ATOM     32  N   UNL     1       2.868  -1.323   6.781  0.00  0.00    -0.023 NA
ATOM     33  N   UNL     1       3.332  -0.176   6.425  0.00  0.00    -0.043 NA
ATOM     34  N   UNL     1       2.420   0.456   5.766  0.00  0.00    -0.225 N 
BRANCH  34  35
ATOM     35  C   UNL     1       2.538   1.792   5.179  0.00  0.00    +0.059 C 
ATOM     36  C   UNL     1       1.534   2.734   5.847  0.00  0.00    +0.036 C 
ATOM     37  C   UNL     1       3.957   2.321   5.397  0.00  0.00    +0.036 C 
ATOM     38  C   UNL     1       2.247   1.718   3.679  0.00  0.00    +0.036 C 
ENDBRANCH  34  35
ENDBRANCH   1  30
TORSDOF 5
