REMARK  Name = ZINC34830569
REMARK  9 active torsions:
REMARK  status: ('A' for Active; 'I' for Inactive)
REMARK    1  A    between atoms: C_1  and  C_2
REMARK    2  A    between atoms: C_2  and  C_3
REMARK    3  A    between atoms: C_3  and  C_4
REMARK    4  A    between atoms: C_4  and  N_5
REMARK    5  A    between atoms: C_15  and  C_17
REMARK    6  A    between atoms: C_17  and  C_19
REMARK    7  A    between atoms: C_17  and  N_20
REMARK    8  A    between atoms: C_28  and  C_30
REMARK    9  A    between atoms: C_35  and  C_36
REMARK                            x       y       z     vdW  Elec       q    Type
REMARK                         _______ _______ _______ _____ _____    ______ ____
ROOT
ATOM      1  C   UNL     1       3.355  -4.300   8.129  0.00  0.00    +0.018 C 
ATOM      2  C   UNL     1       4.321  -4.194   6.946  0.00  0.00    -0.004 C 
ENDROOT
BRANCH   1  13
ATOM      3  N   UNL     1      -0.740  -1.720   4.159  0.00  0.00    -0.299 N 
ATOM      4  C   UNL     1      -0.407  -3.007   3.933  0.00  0.00    +0.302 C 
ATOM      5  O   UNL     1      -1.060  -3.676   3.156  0.00  0.00    -0.253 OA
ATOM      6  N   UNL     1       0.649  -3.551   4.569  0.00  0.00    -0.284 N 
ATOM      7  C   UNL     1       1.031  -4.902   4.350  0.00  0.00    +0.111 C 
ATOM      8  C   UNL     1       0.246  -5.948   5.207  0.00  0.00    +0.038 C 
ATOM      9  C   UNL     1       0.024  -5.318   6.620  0.00  0.00    +0.109 C 
ATOM     10  N   UNL     1       1.117  -4.550   7.105  0.00  0.00    -0.301 N 
ATOM     11  C   UNL     1       1.057  -3.081   6.894  0.00  0.00    +0.126 C 
ATOM     12  C   UNL     1       1.469  -2.763   5.525  0.00  0.00    +0.128 C 
ATOM     13  C   UNL     1       2.162  -5.130   7.729  0.00  0.00    +0.202 C 
ATOM     14  O   UNL     1       2.141  -6.318   7.970  0.00  0.00    -0.277 OA
ATOM     15  H   UNL     1      -0.219  -1.186   4.779  0.00  0.00    +0.150 HD
BRANCH   3  16
ATOM     16  C   UNL     1      -1.888  -1.129   3.467  0.00  0.00    +0.106 C 
BRANCH  16  17
ATOM     17  C   UNL     1      -2.046   0.331   3.898  0.00  0.00    +0.018 C 
BRANCH  17  19
ATOM     18  C   UNL     1      -3.404   2.408   3.608  0.00  0.00    +0.004 C 
ATOM     19  C   UNL     1      -3.245   0.949   3.176  0.00  0.00    -0.002 C 
ENDBRANCH  17  19
ENDBRANCH  16  17
ENDBRANCH   3  16
ENDBRANCH   1  13
BRANCH   1  20
ATOM     20  N   UNL     1       4.037  -4.938   9.262  0.00  0.00    +0.395 N 
ATOM     21  C   UNL     1       4.642  -6.200   8.815  0.00  0.00    -0.071 C 
ATOM     22  C   UNL     1       5.061  -7.017  10.049  0.00  0.00    +0.024 C 
ATOM     23  C   UNL     1       5.794  -6.097  10.970  0.00  0.00    -0.010 A 
ATOM     24  C   UNL     1       5.831  -4.737  10.894  0.00  0.00    -0.047 A 
ATOM     25  C   UNL     1       6.588  -4.080  11.861  0.00  0.00    +0.010 A 
ATOM     26  C   UNL     1       7.235  -4.793  12.813  0.00  0.00    +0.045 A 
ATOM     27  S   UNL     1       6.796  -6.471  12.380  0.00  0.00    -0.101 S 
ATOM     28  C   UNL     1       5.061  -4.026   9.785  0.00  0.00    -0.005 C 
ATOM     29  H   UNL     1       3.364  -5.133   9.988  0.00  0.00    -0.079 HD
BRANCH  28  30
ATOM     30  C   UNL     1       4.401  -2.790  10.340  0.00  0.00    -0.054 A 
ATOM     31  C   UNL     1       3.119  -2.862  10.853  0.00  0.00    +0.002 A 
ATOM     32  C   UNL     1       2.514  -1.729  11.362  0.00  0.00    +0.000 A 
ATOM     33  C   UNL     1       3.190  -0.523  11.360  0.00  0.00    +0.000 A 
ATOM     34  C   UNL     1       4.472  -0.451  10.848  0.00  0.00    +0.003 A 
ATOM     35  C   UNL     1       5.079  -1.586  10.342  0.00  0.00    -0.049 A 
ATOM     36  C   UNL     1       6.479  -1.508   9.789  0.00  0.00    +0.044 C 
ENDBRANCH  28  30
ENDBRANCH   1  20
TORSDOF 6
