REMARK  Name = ZINC18825325
REMARK  6 active torsions:
REMARK  status: ('A' for Active; 'I' for Inactive)
REMARK    1  A    between atoms: C_1  and  N_2
REMARK    2  A    between atoms: C_5  and  C_11
REMARK    3  A    between atoms: C_7  and  O_10
REMARK    4  A    between atoms: C_12  and  O_30
REMARK    5  A    between atoms: C_14  and  O_29
REMARK    6  A    between atoms: C_18  and  C_22
REMARK                            x       y       z     vdW  Elec       q    Type
REMARK                         _______ _______ _______ _____ _____    ______ ____
ROOT
ATOM      1  C   UNL     1      -0.748  -4.123   0.896  0.00  0.00    +0.043 A 
ATOM      2  C   UNL     1      -0.203  -4.696  -0.243  0.00  0.00    +0.127 A 
ATOM      3  C   UNL     1      -0.010  -6.071  -0.323  0.00  0.00    +0.092 A 
ATOM      4  C   UNL     1      -0.362  -6.884   0.739  0.00  0.00    +0.135 A 
ATOM      5  C   UNL     1      -0.912  -6.312   1.893  0.00  0.00    +0.106 A 
ATOM      6  C   UNL     1      -1.101  -4.921   1.972  0.00  0.00    +0.150 A 
ATOM      7  O   UNL     1      -1.627  -4.379   3.091  0.00  0.00    -0.454 OA
ATOM      8  C   UNL     1      -1.980  -5.123   4.151  0.00  0.00    +0.141 A 
ATOM      9  C   UNL     1      -1.833  -6.474   4.177  0.00  0.00    +0.098 A 
ATOM     10  C   UNL     1      -1.300  -7.140   3.047  0.00  0.00    +0.197 A 
ATOM     11  O   UNL     1      -1.155  -8.352   3.035  0.00  0.00    -0.287 OA
ENDROOT
BRANCH   1  16
ATOM     12  C   UNL     1      -2.309   1.081   2.555  0.00  0.00    -0.096 C 
ATOM     13  N   UNL     1      -2.049  -0.353   2.378  0.00  0.00    +0.380 N 
ATOM     14  C   UNL     1      -0.600  -0.588   2.356  0.00  0.00    -0.078 C 
ATOM     15  C   UNL     1      -0.324  -2.089   2.253  0.00  0.00    -0.008 C 
ATOM     16  C   UNL     1      -0.950  -2.631   0.966  0.00  0.00    +0.051 C 
ATOM     17  C   UNL     1      -2.449  -2.316   0.966  0.00  0.00    +0.106 C 
ATOM     18  C   UNL     1      -2.646  -0.806   1.116  0.00  0.00    -0.047 C 
ATOM     19  H   UNL     1      -2.459  -0.865   3.145  0.00  0.00    -0.082 HD
BRANCH  17  20
ATOM     20  O   UNL     1      -3.078  -2.991   2.057  0.00  0.00    -0.393 OA
ATOM     21  H   UNL     1      -4.031  -2.836   2.118  0.00  0.00    +0.210 HD
ENDBRANCH  17  20
ENDBRANCH   1  16
BRANCH   8  22
ATOM     22  C   UNL     1      -2.548  -4.448   5.335  0.00  0.00    +0.036 A 
ATOM     23  C   UNL     1      -1.764  -3.567   6.084  0.00  0.00    +0.013 A 
ATOM     24  C   UNL     1      -2.301  -2.940   7.188  0.00  0.00    +0.001 A 
ATOM     25  C   UNL     1      -3.614  -3.180   7.555  0.00  0.00    +0.001 A 
ATOM     26  C   UNL     1      -4.397  -4.050   6.819  0.00  0.00    +0.021 A 
ATOM     27  C   UNL     1      -3.874  -4.682   5.707  0.00  0.00    +0.052 A 
ATOM     28 CL   UNL     1      -4.860  -5.768   4.779  0.00  0.00    -0.083 Cl
ENDBRANCH   8  22
BRANCH   4  29
ATOM     29  O   UNL     1      -0.175  -8.226   0.664  0.00  0.00    -0.506 OA
ATOM     30  H   UNL     1       0.689  -8.521   0.982  0.00  0.00    +0.292 HD
ENDBRANCH   4  29
BRANCH   2  31
ATOM     31  O   UNL     1       0.145  -3.907  -1.292  0.00  0.00    -0.506 OA
ATOM     32  H   UNL     1       1.078  -3.651  -1.298  0.00  0.00    +0.292 HD
ENDBRANCH   2  31
TORSDOF 5
