REMARK  Name = ZINC51581677
REMARK  5 active torsions:
REMARK  status: ('A' for Active; 'I' for Inactive)
REMARK    1  A    between atoms: C_1  and  C_2
REMARK    2  A    between atoms: C_5  and  C_18
REMARK    3  A    between atoms: C_6  and  S_8
REMARK    4  A    between atoms: S_8  and  C_9
REMARK    5  A    between atoms: N_19  and  O_20
REMARK                            x       y       z     vdW  Elec       q    Type
REMARK                         _______ _______ _______ _____ _____    ______ ____
ROOT
ATOM      1  C   UNL     1       0.149   0.966  -0.724  0.00  0.00    +0.044 C 
ATOM      2  C   UNL     1       0.141  -0.520  -0.471  0.00  0.00    -0.049 A 
ATOM      3  C   UNL     1       0.168  -1.400  -1.539  0.00  0.00    +0.004 A 
ATOM      4  C   UNL     1       0.161  -2.762  -1.320  0.00  0.00    +0.013 A 
ATOM      5  C   UNL     1       0.127  -3.256  -0.016  0.00  0.00    +0.032 A 
ATOM      6  C   UNL     1       0.100  -2.363   1.064  0.00  0.00    +0.028 A 
ATOM      7  C   UNL     1       0.112  -0.995   0.825  0.00  0.00    +0.019 A 
ENDROOT
BRANCH   5   8
ATOM      8  C   UNL     1       0.119  -4.715   0.226  0.00  0.00    +0.163 C 
ATOM      9  N   UNL     1       0.087  -5.172   1.444  0.00  0.00    -0.071 NA
ATOM     10  N   UNL     1       0.146  -5.594  -0.843  0.00  0.00    -0.340 N 
ATOM     11  H   UNL     1       0.170  -5.253  -1.751  0.00  0.00    +0.144 HD
ATOM     12  H   UNL     1       0.141  -6.551  -0.685  0.00  0.00    +0.144 HD
BRANCH   9  13
ATOM     13  O   UNL     1       0.080  -6.569   1.676  0.00  0.00    -0.408 OA
ATOM     14  H   UNL     1       0.056  -6.813   2.612  0.00  0.00    +0.328 HD
ENDBRANCH   9  13
ENDBRANCH   5   8
BRANCH   6  15
ATOM     15  S   UNL     1       0.056  -2.972   2.717  0.00  0.00    -0.030 S 
BRANCH  15  16
ATOM     16  C   UNL     1      -1.621  -3.460   2.947  0.00  0.00    +0.263 A 
ATOM     17  N   UNL     1      -2.583  -3.272   2.079  0.00  0.00    -0.203 NA
ATOM     18  C   UNL     1      -3.739  -3.775   2.593  0.00  0.00    +0.110 A 
ATOM     19  C   UNL     1      -5.050  -3.852   2.121  0.00  0.00    +0.031 A 
ATOM     20  C   UNL     1      -6.023  -4.438   2.900  0.00  0.00    +0.002 A 
ATOM     21  C   UNL     1      -5.708  -4.951   4.148  0.00  0.00    +0.004 A 
ATOM     22  C   UNL     1      -4.415  -4.882   4.627  0.00  0.00    +0.048 A 
ATOM     23  C   UNL     1      -3.424  -4.296   3.857  0.00  0.00    +0.156 A 
ATOM     24  O   UNL     1      -2.099  -4.086   4.037  0.00  0.00    -0.430 OA
ENDBRANCH  15  16
ENDBRANCH   6  15
TORSDOF 4
