REMARK  Name = ZINC64526440
REMARK  9 active torsions:
REMARK  status: ('A' for Active; 'I' for Inactive)
REMARK    1  A    between atoms: C_1  and  C_2
REMARK    2  A    between atoms: C_2  and  N_3
REMARK    3  A    between atoms: N_10  and  C_15
REMARK    4  A    between atoms: C_15  and  C_16
REMARK    5  A    between atoms: C_19  and  C_22
REMARK    6  A    between atoms: N_24  and  C_25
REMARK    7  A    between atoms: C_25  and  C_26
REMARK    8  A    between atoms: C_26  and  C_27
REMARK    9  A    between atoms: C_30  and  C_36
REMARK                            x       y       z     vdW  Elec       q    Type
REMARK                         _______ _______ _______ _____ _____    ______ ____
ROOT
ATOM      1  C   UNL     1      -6.347  -0.832   0.125  0.00  0.00    -0.028 A 
ATOM      2  C   UNL     1      -6.748  -0.290   1.333  0.00  0.00    +0.006 A 
ATOM      3  C   UNL     1      -7.629   0.772   1.358  0.00  0.00    +0.013 A 
ATOM      4  C   UNL     1      -8.116   1.299   0.161  0.00  0.00    +0.037 A 
ATOM      5  C   UNL     1      -7.707   0.748  -1.054  0.00  0.00    +0.013 A 
ATOM      6  C   UNL     1      -6.821  -0.310  -1.065  0.00  0.00    +0.006 A 
ENDROOT
BRANCH   4   7
ATOM      7  C   UNL     1      -9.060   2.436   0.180  0.00  0.00    +0.244 C 
ATOM      8  O   UNL     1      -9.415   2.914   1.240  0.00  0.00    -0.270 OA
ATOM      9  N   UNL     1      -9.528   2.943  -0.978  0.00  0.00    -0.311 N 
ATOM     10  H   UNL     1      -9.245   2.562  -1.824  0.00  0.00    +0.149 HD
BRANCH   9  11
ATOM     11  C   UNL     1     -10.464   4.070  -0.959  0.00  0.00    +0.109 C 
BRANCH  11  12
ATOM     12  C   UNL     1     -10.836   4.448  -2.394  0.00  0.00    +0.052 C 
BRANCH  12  13
ATOM     13  C   UNL     1     -11.799   5.607  -2.375  0.00  0.00    -0.040 C 
ATOM     14  C   UNL     1     -11.495   6.919  -2.497  0.00  0.00    -0.001 A 
ATOM     15  C   UNL     1     -10.225   7.633  -2.677  0.00  0.00    +0.013 A 
ATOM     16  C   UNL     1     -10.238   8.982  -2.768  0.00  0.00    -0.050 A 
ATOM     17  C   UNL     1     -11.431   9.714  -2.696  0.00  0.00    +0.005 A 
ATOM     18  C   UNL     1     -12.636   9.130  -2.531  0.00  0.00    +0.026 A 
ATOM     19  C   UNL     1     -12.741   7.715  -2.424  0.00  0.00    +0.043 A 
ATOM     20  N   UNL     1     -13.775   6.926  -2.263  0.00  0.00    -0.380 N 
ATOM     21  C   UNL     1     -13.302   5.538  -2.221  0.00  0.00    +0.144 C 
ATOM     22  C   UNL     1      -8.936   9.717  -2.953  0.00  0.00    +0.044 C 
ATOM     23  H   UNL     1     -14.699   7.212  -2.187  0.00  0.00    +0.160 HD
ENDBRANCH  12  13
ENDBRANCH  11  12
ENDBRANCH   9  11
ENDBRANCH   4   7
BRANCH   1  24
ATOM     24  C   UNL     1      -5.384  -1.991   0.106  0.00  0.00    +0.160 C 
BRANCH  24  32
ATOM     25  N   UNL     1      -1.372  -0.511   0.012  0.00  0.00    -0.303 N 
ATOM     26  C   UNL     1      -2.015  -0.753   1.223  0.00  0.00    +0.069 A 
ATOM     27  C   UNL     1      -1.346  -0.511   2.418  0.00  0.00    +0.028 A 
ATOM     28  C   UNL     1      -1.976  -0.748   3.623  0.00  0.00    +0.002 A 
ATOM     29  C   UNL     1      -3.275  -1.228   3.648  0.00  0.00    +0.002 A 
ATOM     30  C   UNL     1      -3.949  -1.472   2.469  0.00  0.00    +0.028 A 
ATOM     31  C   UNL     1      -3.324  -1.236   1.249  0.00  0.00    +0.069 A 
ATOM     32  N   UNL     1      -4.011  -1.484   0.063  0.00  0.00    -0.298 N 
ATOM     33  C   UNL     1      -3.412  -1.260  -1.124  0.00  0.00    +0.317 A 
ATOM     34  O   UNL     1      -4.007  -1.475  -2.161  0.00  0.00    -0.262 OA
ATOM     35  C   UNL     1      -2.015  -0.738  -1.151  0.00  0.00    +0.317 A 
ATOM     36  O   UNL     1      -1.460  -0.524  -2.210  0.00  0.00    -0.262 OA
BRANCH  25  38
ATOM     37  C   UNL     1      -0.019   1.526   0.010  0.00  0.00    +0.027 C 
ATOM     38  C   UNL     1       0.002  -0.004   0.002  0.00  0.00    +0.122 C 
ENDBRANCH  25  38
ENDBRANCH  24  32
ENDBRANCH   1  24
TORSDOF 7
