REMARK  Name = ZINC09378848
REMARK  11 active torsions:
REMARK  status: ('A' for Active; 'I' for Inactive)
REMARK    1  A    between atoms: C_1  and  C_2
REMARK    2  A    between atoms: C_2  and  C_4
REMARK    3  A    between atoms: C_2  and  N_64
REMARK    4  A    between atoms: N_6  and  C_7
REMARK    5  A    between atoms: C_16  and  C_17
REMARK    6  A    between atoms: C_16  and  N_64
REMARK    7  A    between atoms: C_17  and  C_19
REMARK    8  A    between atoms: C_17  and  C_28
REMARK    9  A    between atoms: C_22  and  N_25
REMARK   10  A    between atoms: N_25  and  C_26
REMARK   11  A    between atoms: N_25  and  C_27
REMARK                            x       y       z     vdW  Elec       q    Type
REMARK                         _______ _______ _______ _____ _____    ______ ____
ROOT
ATOM      1  C   UNL     1       7.998  -4.540   5.857  0.00  0.00    +0.034 C 
ENDROOT
BRANCH   1   2
ATOM      2  C   UNL     1       6.685  -4.987   6.445  0.00  0.00    -0.017 A 
ATOM      3  C   UNL     1       6.005  -4.382   7.432  0.00  0.00    +0.087 A 
ATOM      4  N   UNL     1       4.856  -5.075   7.700  0.00  0.00    -0.360 N 
ATOM      5  H   UNL     1       4.202  -4.831   8.373  0.00  0.00    +0.165 HD
ATOM      6  C   UNL     1       4.766  -6.171   6.871  0.00  0.00    +0.047 A 
ATOM      7  C   UNL     1       5.905  -6.160   6.045  0.00  0.00    +0.003 A 
ATOM      8  C   UNL     1       6.082  -7.162   5.089  0.00  0.00    +0.010 A 
ATOM      9  C   UNL     1       5.144  -8.148   4.958  0.00  0.00    +0.001 A 
ATOM     10  C   UNL     1       4.017  -8.161   5.769  0.00  0.00    +0.002 A 
ATOM     11  C   UNL     1       3.827  -7.186   6.724  0.00  0.00    +0.026 A 
ENDBRANCH   1   2
BRANCH   1  12
ATOM     12  C   UNL     1       9.050  -4.515   6.936  0.00  0.00    -0.042 A 
ATOM     13  C   UNL     1       8.886  -3.697   8.040  0.00  0.00    +0.006 A 
ATOM     14  C   UNL     1       9.845  -3.676   9.033  0.00  0.00    +0.023 A 
ATOM     15  C   UNL     1      10.980  -4.469   8.918  0.00  0.00    +0.029 A 
ATOM     16  C   UNL     1      11.144  -5.285   7.805  0.00  0.00    +0.023 A 
ATOM     17  C   UNL     1      10.178  -5.305   6.818  0.00  0.00    +0.006 A 
BRANCH  15  18
ATOM     18  N   UNL     1      11.955  -4.446   9.918  0.00  0.00    -0.336 N 
ATOM     19  C   UNL     1      13.152  -5.282   9.794  0.00  0.00    +0.129 C 
ATOM     20  C   UNL     1      11.781  -3.585  11.090  0.00  0.00    +0.129 C 
ENDBRANCH  15  18
ENDBRANCH   1  12
BRANCH   1  21
ATOM     21  C   UNL     1       7.841  -3.137   5.266  0.00  0.00    -0.069 C 
BRANCH  21  22
ATOM     22  N   UNL     1       6.899  -3.193   4.131  0.00  0.00    +0.387 N 
ATOM     23  H   UNL     1       7.267  -3.834   3.418  0.00  0.00    -0.085 HD
ATOM     24  H   UNL     1       5.990  -3.536   4.463  0.00  0.00    -0.085 HD
BRANCH  22  26
ATOM     25  C   UNL     1       7.842  -1.597   2.523  0.00  0.00    -0.004 C 
ATOM     26  C   UNL     1       6.728  -1.853   3.541  0.00  0.00    +0.013 C 
BRANCH  26  27
ATOM     27  C   UNL     1       5.391  -1.784   2.850  0.00  0.00    +0.203 C 
ATOM     28  O   UNL     1       4.657  -2.749   2.852  0.00  0.00    -0.277 OA
ATOM     29  N   UNL     1       5.011  -0.649   2.230  0.00  0.00    -0.287 N 
ATOM     30  H   UNL     1       5.627   0.097   2.162  0.00  0.00    +0.155 HD
BRANCH  29  31
ATOM     31  C   UNL     1       3.725  -0.547   1.683  0.00  0.00    +0.037 A 
ATOM     32  C   UNL     1       3.517   0.200   0.531  0.00  0.00    +0.027 A 
ATOM     33  C   UNL     1       2.250   0.302  -0.009  0.00  0.00    +0.051 A 
ATOM     34  C   UNL     1       1.182  -0.341   0.597  0.00  0.00    +0.166 A 
ATOM     35  C   UNL     1       1.387  -1.090   1.753  0.00  0.00    +0.168 A 
ATOM     36  C   UNL     1       2.658  -1.192   2.293  0.00  0.00    +0.072 A 
ATOM     37  O   UNL     1       0.191  -1.616   2.150  0.00  0.00    -0.453 OA
ATOM     38  C   UNL     1      -0.671  -1.520   1.001  0.00  0.00    +0.466 C 
ATOM     39  O   UNL     1      -0.143  -0.398   0.269  0.00  0.00    -0.453 OA
ENDBRANCH  29  31
ENDBRANCH  26  27
ENDBRANCH  22  26
ENDBRANCH  21  22
ENDBRANCH   1  21
TORSDOF 8
