REMARK  Name = ZINC31354753
REMARK  6 active torsions:
REMARK  status: ('A' for Active; 'I' for Inactive)
REMARK    1  A    between atoms: C_3  and  C_6
REMARK    2  A    between atoms: C_9  and  C_24
REMARK    3  A    between atoms: C_12  and  C_14
REMARK    4  A    between atoms: C_14  and  S_15
REMARK    5  A    between atoms: S_15  and  C_16
REMARK    6  A    between atoms: C_20  and  N_22
REMARK                            x       y       z     vdW  Elec       q    Type
REMARK                         _______ _______ _______ _____ _____    ______ ____
ROOT
ATOM      1  C   UNL     1       3.599   0.625  -0.029  0.00  0.00    +0.173 C 
ATOM      2  C   UNL     1       4.120   0.317  -1.447  0.00  0.00    +0.093 C 
ATOM      3  C   UNL     1       4.876  -0.982  -1.283  0.00  0.00    +0.104 C 
ATOM      4  N   UNL     1       4.819  -1.361  -0.050  0.00  0.00    -0.178 NA
ATOM      5  N   UNL     1       4.099  -0.498   0.779  0.00  0.00    -0.181 N 
ATOM      6  C   UNL     1       3.893  -0.665   2.100  0.00  0.00    +0.246 C 
ATOM      7  O   UNL     1       3.248   0.152   2.722  0.00  0.00    -0.273 OA
ENDROOT
BRANCH   1  10
ATOM      8  C   UNL     1      -0.016   1.341   0.009  0.00  0.00    +0.041 A 
ATOM      9  C   UNL     1       1.331   1.769  -0.001  0.00  0.00    +0.046 A 
ATOM     10  C   UNL     1       2.092   0.660  -0.014  0.00  0.00    +0.128 A 
ATOM     11  O   UNL     1       1.282  -0.411  -0.012  0.00  0.00    -0.466 OA
ATOM     12  C   UNL     1       0.002  -0.004   0.002  0.00  0.00    +0.195 A 
ENDBRANCH   1  10
BRANCH   3  13
ATOM     13  C   UNL     1       5.568  -1.700  -2.358  0.00  0.00    +0.150 A 
ATOM     14  C   UNL     1       6.249  -2.875  -2.228  0.00  0.00    +0.051 A 
ATOM     15  C   UNL     1       6.748  -3.197  -3.504  0.00  0.00    +0.042 A 
ATOM     16  C   UNL     1       6.353  -2.217  -4.343  0.00  0.00    +0.196 A 
ATOM     17  O   UNL     1       5.636  -1.318  -3.649  0.00  0.00    -0.462 OA
ENDBRANCH   3  13
BRANCH   6  18
ATOM     18  C   UNL     1       4.465  -1.868   2.806  0.00  0.00    +0.175 C 
BRANCH  18  19
ATOM     19  S   UNL     1       4.019  -1.808   4.563  0.00  0.00    -0.077 S 
BRANCH  19  20
ATOM     20  C   UNL     1       4.751  -3.260   5.239  0.00  0.00    +0.192 A 
ATOM     21  N   UNL     1       5.438  -4.067   4.443  0.00  0.00    -0.207 NA
ATOM     22  C   UNL     1       6.005  -5.173   4.919  0.00  0.00    +0.122 A 
ATOM     23  C   UNL     1       5.869  -5.476   6.271  0.00  0.00    +0.086 A 
ATOM     24  C   UNL     1       5.141  -4.605   7.076  0.00  0.00    +0.122 A 
ATOM     25  N   UNL     1       4.606  -3.515   6.531  0.00  0.00    -0.207 NA
ATOM     26  N   UNL     1       6.721  -6.013   4.080  0.00  0.00    -0.343 N 
ATOM     27  H   UNL     1       6.811  -5.796   3.139  0.00  0.00    +0.144 HD
ATOM     28  H   UNL     1       7.131  -6.817   4.433  0.00  0.00    +0.144 HD
BRANCH  24  29
ATOM     29  N   UNL     1       4.980  -4.867   8.428  0.00  0.00    -0.343 N 
ATOM     30  H   UNL     1       5.376  -5.661   8.818  0.00  0.00    +0.144 HD
ATOM     31  H   UNL     1       4.471  -4.255   8.982  0.00  0.00    +0.144 HD
ENDBRANCH  24  29
ENDBRANCH  19  20
ENDBRANCH  18  19
ENDBRANCH   6  18
TORSDOF 6
