REMARK  Name = ZINC32133568
REMARK  4 active torsions:
REMARK  status: ('A' for Active; 'I' for Inactive)
REMARK    1  A    between atoms: C_3  and  N_9
REMARK    2  A    between atoms: C_4  and  N_8
REMARK    3  A    between atoms: C_6  and  N_7
REMARK    4  A    between atoms: N_10  and  C_11
REMARK                            x       y       z     vdW  Elec       q    Type
REMARK                         _______ _______ _______ _____ _____    ______ ____
ROOT
ATOM      1  C   UNL     1      -1.241   3.039   0.030  0.00  0.00    +0.025 A 
ATOM      2  C   UNL     1      -2.426   3.717   0.035  0.00  0.00    +0.033 A 
ATOM      3  C   UNL     1      -3.637   3.015   0.037  0.00  0.00    +0.107 A 
ATOM      4  C   UNL     1      -3.627   1.607   0.028  0.00  0.00    +0.054 A 
ATOM      5  C   UNL     1      -2.417   0.931   0.019  0.00  0.00    +0.047 A 
ATOM      6  C   UNL     1      -1.226   1.645   0.017  0.00  0.00    +0.026 A 
ENDROOT
BRANCH   6   7
ATOM      7  N   UNL     1      -0.011   0.966   0.007  0.00  0.00    -0.358 N 
ATOM      8  H   UNL     1       0.004  -0.134  -0.003  0.00  0.00    +0.142 HD
ATOM      9  H   UNL     1       0.934   1.529   0.011  0.00  0.00    +0.142 HD
ENDBRANCH   6   7
BRANCH   4  10
ATOM     10  N   UNL     1      -4.824   0.899   0.030  0.00  0.00    -0.356 N 
ATOM     11  H   UNL     1      -4.812  -0.201   0.023  0.00  0.00    +0.142 HD
ATOM     12  H   UNL     1      -5.782   1.438   0.037  0.00  0.00    +0.142 HD
ENDBRANCH   4  10
BRANCH   3  13
ATOM     13  N   UNL     1      -4.817   3.689   0.046  0.00  0.00    -0.146 NA
ATOM     14  N   UNL     1      -4.823   4.979   0.053  0.00  0.00    -0.128 NA
BRANCH  14  15
ATOM     15  C   UNL     1      -6.010   5.657   0.063  0.00  0.00    +0.189 A 
ATOM     16  C   UNL     1      -6.011   7.055   0.071  0.00  0.00    +0.065 A 
ATOM     17  C   UNL     1      -7.221   7.726   0.080  0.00  0.00    +0.035 A 
ATOM     18  C   UNL     1      -8.393   6.981   0.081  0.00  0.00    +0.037 A 
ATOM     19  C   UNL     1      -8.319   5.598   0.073  0.00  0.00    +0.128 A 
ATOM     20  N   UNL     1      -7.155   4.982   0.059  0.00  0.00    -0.233 NA
ATOM     21 BR   UNL     1     -10.074   7.846   0.093  0.00  0.00    -0.049 Br
ATOM     22 BR   UNL     1      -4.381   8.015   0.070  0.00  0.00    -0.046 Br
ENDBRANCH  14  15
ENDBRANCH   3  13
TORSDOF 4
