REMARK  Name = ZINC36584114
REMARK  14 active torsions:
REMARK  status: ('A' for Active; 'I' for Inactive)
REMARK    1  A    between atoms: C_1  and  C_2
REMARK    2  A    between atoms: C_2  and  C_3
REMARK    3  A    between atoms: C_2  and  C_4
REMARK    4  A    between atoms: C_2  and  N_5
REMARK    5  A    between atoms: C_6  and  C_8
REMARK    6  A    between atoms: C_8  and  C_10
REMARK    7  A    between atoms: C_8  and  N_17
REMARK    8  A    between atoms: C_15  and  O_16
REMARK    9  A    between atoms: N_17  and  C_27
REMARK   10  A    between atoms: C_18  and  C_20
REMARK   11  A    between atoms: C_25  and  O_26
REMARK   12  A    between atoms: C_27  and  C_28
REMARK   13  A    between atoms: C_27  and  C_29
REMARK   14  A    between atoms: C_27  and  C_30
REMARK                            x       y       z     vdW  Elec       q    Type
REMARK                         _______ _______ _______ _____ _____    ______ ____
ROOT
ATOM      1  C   UNL     1       2.314  -0.001  -2.295  0.00  0.00    +0.196 C 
ENDROOT
BRANCH   1   2
ATOM      2  C   UNL     1       2.374  -1.384  -2.890  0.00  0.00    +0.023 A 
ATOM      3  C   UNL     1       3.523  -2.141  -2.767  0.00  0.00    +0.009 A 
ATOM      4  C   UNL     1       3.579  -3.409  -3.313  0.00  0.00    +0.001 A 
ATOM      5  C   UNL     1       2.485  -3.925  -3.984  0.00  0.00    +0.004 A 
ATOM      6  C   UNL     1       1.333  -3.172  -4.109  0.00  0.00    +0.046 A 
ATOM      7  C   UNL     1       1.273  -1.901  -3.557  0.00  0.00    +0.122 A 
BRANCH   7   8
ATOM      8  O   UNL     1       0.139  -1.161  -3.674  0.00  0.00    -0.506 OA
ATOM      9  H   UNL     1       0.111  -0.607  -4.466  0.00  0.00    +0.292 HD
ENDBRANCH   7   8
ENDBRANCH   1   2
BRANCH   1  11
ATOM     10  N   UNL     1       0.789  -0.660  -0.462  0.00  0.00    -0.309 N 
ATOM     11  C   UNL     1       1.956  -0.098  -0.834  0.00  0.00    +0.239 C 
ATOM     12  O   UNL     1       2.718   0.330   0.007  0.00  0.00    -0.273 OA
ATOM     13  H   UNL     1       0.179  -1.002  -1.135  0.00  0.00    +0.149 HD
BRANCH  10  15
ATOM     14  C   UNL     1       0.385   0.650   1.563  0.00  0.00    +0.031 C 
ATOM     15  C   UNL     1       0.441  -0.754   0.958  0.00  0.00    +0.026 C 
ATOM     16  C   UNL     1       1.499  -1.583   1.688  0.00  0.00    +0.031 C 
ATOM     17  C   UNL     1      -0.925  -1.428   1.104  0.00  0.00    +0.031 C 
ENDBRANCH  10  15
ENDBRANCH   1  11
BRANCH   1  18
ATOM     18  N   UNL     1       3.620   0.648  -2.435  0.00  0.00    -0.277 N 
ATOM     19  C   UNL     1       4.744  -0.025  -2.119  0.00  0.00    +0.251 C 
ATOM     20  O   UNL     1       5.735   0.086  -2.815  0.00  0.00    -0.270 OA
BRANCH  19  21
ATOM     21  C   UNL     1       4.773  -0.895  -0.928  0.00  0.00    +0.078 A 
ATOM     22  C   UNL     1       3.665  -1.681  -0.606  0.00  0.00    +0.017 A 
ATOM     23  C   UNL     1       3.698  -2.492   0.508  0.00  0.00    +0.001 A 
ATOM     24  C   UNL     1       4.827  -2.531   1.311  0.00  0.00    +0.004 A 
ATOM     25  C   UNL     1       5.929  -1.759   1.004  0.00  0.00    +0.046 A 
ATOM     26  C   UNL     1       5.915  -0.941  -0.116  0.00  0.00    +0.129 A 
BRANCH  26  27
ATOM     27  O   UNL     1       6.999  -0.186  -0.422  0.00  0.00    -0.506 OA
ATOM     28  H   UNL     1       6.992   0.694  -0.020  0.00  0.00    +0.292 HD
ENDBRANCH  26  27
ENDBRANCH  19  21
BRANCH  18  29
ATOM     29  C   UNL     1       3.704   2.028  -2.920  0.00  0.00    +0.030 C 
ATOM     30  C   UNL     1       2.293   2.592  -3.099  0.00  0.00    +0.031 C 
ATOM     31  C   UNL     1       4.468   2.880  -1.904  0.00  0.00    +0.031 C 
ATOM     32  C   UNL     1       4.438   2.054  -4.262  0.00  0.00    +0.031 C 
ENDBRANCH  18  29
ENDBRANCH   1  18
TORSDOF 8
