REMARK  Name = ZINC07990255
REMARK  6 active torsions:
REMARK  status: ('A' for Active; 'I' for Inactive)
REMARK    1  A    between atoms: C_1  and  C_2
REMARK    2  A    between atoms: C_2  and  C_31
REMARK    3  A    between atoms: N_9  and  C_30
REMARK    4  A    between atoms: C_11  and  C_12
REMARK    5  A    between atoms: C_12  and  C_14
REMARK    6  A    between atoms: C_14  and  N_15
REMARK                            x       y       z     vdW  Elec       q    Type
REMARK                         _______ _______ _______ _____ _____    ______ ____
ROOT
ATOM      1  C   UNL     1      -3.629   3.089  -2.744  0.00  0.00    +0.197 C 
ENDROOT
BRANCH   1   2
ATOM      2  N   UNL     1      -5.064   3.005  -2.462  0.00  0.00    -0.216 N 
ATOM      3  C   UNL     1      -5.821   4.048  -2.057  0.00  0.00    +0.251 C 
ATOM      4  O   UNL     1      -5.458   5.188  -1.863  0.00  0.00    -0.272 OA
ATOM      5  C   UNL     1      -7.211   3.490  -1.896  0.00  0.00    +0.138 C 
ATOM      6  C   UNL     1      -7.714   3.658  -0.457  0.00  0.00    +0.045 C 
ATOM      7  C   UNL     1      -9.232   3.863  -0.664  0.00  0.00    +0.038 C 
ATOM      8  C   UNL     1      -9.369   4.426  -2.064  0.00  0.00    -0.042 A 
ATOM      9  C   UNL     1      -8.201   4.205  -2.775  0.00  0.00    -0.012 A 
ATOM     10  C   UNL     1      -8.105   4.635  -4.088  0.00  0.00    +0.006 A 
ATOM     11  C   UNL     1      -9.167   5.283  -4.688  0.00  0.00    +0.000 A 
ATOM     12  C   UNL     1     -10.332   5.504  -3.978  0.00  0.00    +0.000 A 
ATOM     13  C   UNL     1     -10.431   5.075  -2.668  0.00  0.00    +0.004 A 
ATOM     14  N   UNL     1      -7.085   2.077  -2.256  0.00  0.00    -0.281 N 
ATOM     15  C   UNL     1      -5.790   1.885  -2.579  0.00  0.00    +0.310 C 
ATOM     16  O   UNL     1      -5.333   0.816  -2.933  0.00  0.00    -0.252 OA
ATOM     17  H   UNL     1      -7.792   1.413  -2.265  0.00  0.00    +0.152 HD
ENDBRANCH   1   2
BRANCH   1  18
ATOM     18  C   UNL     1      -2.851   2.798  -1.486  0.00  0.00    +0.175 C 
ATOM     19  O   UNL     1      -3.440   2.545  -0.453  0.00  0.00    -0.291 OA
BRANCH  18  30
ATOM     20  C   UNL     1       0.620   0.635  -0.587  0.00  0.00    +0.022 C 
ATOM     21  C   UNL     1       0.626   2.110  -0.180  0.00  0.00    +0.030 C 
ATOM     22  C   UNL     1       0.912   2.250   1.297  0.00  0.00    -0.015 A 
ATOM     23  C   UNL     1       1.992   1.897   2.076  0.00  0.00    +0.006 A 
ATOM     24  C   UNL     1       1.976   2.155   3.436  0.00  0.00    +0.000 A 
ATOM     25  C   UNL     1       0.875   2.766   4.008  0.00  0.00    +0.002 A 
ATOM     26  C   UNL     1      -0.208   3.120   3.231  0.00  0.00    +0.024 A 
ATOM     27  C   UNL     1      -0.200   2.864   1.860  0.00  0.00    +0.038 A 
ATOM     28  N   UNL     1      -1.156   3.129   0.881  0.00  0.00    -0.305 N 
ATOM     29  C   UNL     1      -0.752   2.712  -0.350  0.00  0.00    +0.024 C 
ATOM     30  C   UNL     1      -1.450   2.820  -1.507  0.00  0.00    +0.067 C 
ATOM     31  C   UNL     1      -2.443   3.777   1.145  0.00  0.00    +0.135 C 
ATOM     32  C   UNL     1       1.655   2.887  -1.004  0.00  0.00    +0.022 C 
ENDBRANCH  18  30
ENDBRANCH   1  18
TORSDOF 3
