REMARK  Name = ZINC04475312
REMARK  10 active torsions:
REMARK  status: ('A' for Active; 'I' for Inactive)
REMARK    1  A    between atoms: C_4  and  N_7
REMARK    2  A    between atoms: N_9  and  C_29
REMARK    3  A    between atoms: C_17  and  C_18
REMARK    4  A    between atoms: C_17  and  N_73
REMARK    5  A    between atoms: C_18  and  C_19
REMARK    6  A    between atoms: C_19  and  C_20
REMARK    7  A    between atoms: C_20  and  C_22
REMARK    8  A    between atoms: C_29  and  C_30
REMARK    9  A    between atoms: C_30  and  C_31
REMARK   10  A    between atoms: C_34  and  N_37
REMARK                            x       y       z     vdW  Elec       q    Type
REMARK                         _______ _______ _______ _____ _____    ______ ____
ROOT
ATOM      1  N   UNL     1       8.441  -1.355   0.650  0.00  0.00    -0.300 N 
ATOM      2  C   UNL     1       9.559  -0.552   1.199  0.00  0.00    +0.217 C 
ATOM      3  N   UNL     1       8.962   0.365   2.178  0.00  0.00    -0.283 N 
ATOM      4  C   UNL     1       7.630   0.443   1.971  0.00  0.00    +0.240 C 
ATOM      5  O   UNL     1       6.852   1.125   2.604  0.00  0.00    -0.273 OA
ATOM      6  C   UNL     1       7.275  -0.463   0.818  0.00  0.00    +0.109 C 
ATOM      7  C   UNL     1       7.052   0.354  -0.452  0.00  0.00    +0.017 C 
ATOM      8  C   UNL     1       5.815   1.240  -0.274  0.00  0.00    -0.076 C 
ATOM      9  C   UNL     1       4.826  -0.343   1.274  0.00  0.00    -0.076 C 
ATOM     10  C   UNL     1       6.030  -1.281   1.147  0.00  0.00    +0.017 C 
ATOM     11  N   UNL     1       4.644   0.377  -0.004  0.00  0.00    +0.380 N 
ATOM     12  H   UNL     1       4.555  -0.308  -0.763  0.00  0.00    -0.082 HD
ENDROOT
BRANCH   1  16
ATOM     13  C   UNL     1       9.074  -2.244  -3.368  0.00  0.00    +0.000 A 
ATOM     14  C   UNL     1      10.077  -1.646  -2.628  0.00  0.00    +0.002 A 
ATOM     15  C   UNL     1       9.870  -1.349  -1.295  0.00  0.00    +0.023 A 
ATOM     16  C   UNL     1       8.653  -1.653  -0.698  0.00  0.00    +0.032 A 
ATOM     17  C   UNL     1       7.650  -2.259  -1.444  0.00  0.00    +0.023 A 
ATOM     18  C   UNL     1       7.861  -2.547  -2.777  0.00  0.00    +0.002 A 
ENDBRANCH   1  16
BRANCH  11  19
ATOM     19  C   UNL     1       3.416   1.197   0.050  0.00  0.00    -0.078 C 
BRANCH  19  20
ATOM     20  C   UNL     1       2.205   0.265   0.107  0.00  0.00    -0.011 C 
BRANCH  20  21
ATOM     21  C   UNL     1       0.921   1.097   0.139  0.00  0.00    +0.078 C 
BRANCH  21  22
ATOM     22  C   UNL     1      -0.272   0.179   0.196  0.00  0.00    +0.163 C 
ATOM     23  O   UNL     1      -0.112  -1.023   0.209  0.00  0.00    -0.292 OA
BRANCH  22  24
ATOM     24  C   UNL     1      -1.630   0.740   0.228  0.00  0.00    +0.018 A 
ATOM     25  C   UNL     1      -1.818   2.127   0.219  0.00  0.00    +0.014 A 
ATOM     26  C   UNL     1      -3.094   2.646   0.243  0.00  0.00    +0.039 A 
ATOM     27  C   UNL     1      -4.191   1.798   0.289  0.00  0.00    +0.123 A 
ATOM     28  C   UNL     1      -4.011   0.422   0.306  0.00  0.00    +0.039 A 
ATOM     29  C   UNL     1      -2.741  -0.110   0.275  0.00  0.00    +0.014 A 
ATOM     30  F   UNL     1      -5.439   2.314   0.319  0.00  0.00    -0.205 F 
ENDBRANCH  22  24
ENDBRANCH  21  22
ENDBRANCH  20  21
ENDBRANCH  19  20
ENDBRANCH  11  19
BRANCH   3  31
ATOM     31  C   UNL     1       9.699   1.086   3.219  0.00  0.00    +0.114 C 
BRANCH  31  32
ATOM     32  C   UNL     1      10.160   2.439   2.674  0.00  0.00    +0.054 C 
BRANCH  32  33
ATOM     33  C   UNL     1      10.918   3.180   3.745  0.00  0.00    -0.046 A 
ATOM     34  C   UNL     1      10.236   4.026   4.609  0.00  0.00    +0.006 A 
ATOM     35  C   UNL     1      10.906   4.700   5.587  0.00  0.00    +0.029 A 
ATOM     36  C   UNL     1      12.310   4.541   5.711  0.00  0.00    +0.074 A 
ATOM     37  C   UNL     1      12.993   3.678   4.817  0.00  0.00    +0.029 A 
ATOM     38  C   UNL     1      12.293   3.014   3.854  0.00  0.00    +0.006 A 
BRANCH  36  39
ATOM     39  N   UNL     1      12.977   5.193   6.652  0.00  0.00    -0.197 NA
ATOM     40  C   UNL     1      12.368   5.953   7.437  0.00  0.00    +0.041 C 
ATOM     41  S   UNL     1      11.612   6.897   8.412  0.00  0.00    +0.021 S 
ENDBRANCH  36  39
ENDBRANCH  32  33
ENDBRANCH  31  32
ENDBRANCH   3  31
TORSDOF 10
