REMARK  Name = ZINC08898274
REMARK  4 active torsions:
REMARK  status: ('A' for Active; 'I' for Inactive)
REMARK    1  A    between atoms: C_1  and  C_2
REMARK    2  A    between atoms: C_17  and  C_19
REMARK    3  A    between atoms: N_24  and  S_25
REMARK    4  A    between atoms: S_25  and  C_28
REMARK                            x       y       z     vdW  Elec       q    Type
REMARK                         _______ _______ _______ _____ _____    ______ ____
ROOT
ATOM      1  C   UNL     1      -8.590  -5.096   4.125  0.00  0.00    +0.047 C 
ATOM      2  C   UNL     1      -7.648  -6.114   3.535  0.00  0.00    -0.006 A 
ATOM      3  C   UNL     1      -8.123  -7.349   3.175  0.00  0.00    +0.046 A 
ATOM      4  C   UNL     1      -7.289  -8.315   2.628  0.00  0.00    +0.021 A 
ATOM      5  C   UNL     1      -5.949  -8.025   2.443  0.00  0.00    +0.019 A 
ATOM      6  C   UNL     1      -5.466  -6.792   2.800  0.00  0.00    +0.041 A 
ATOM      7  C   UNL     1      -6.285  -5.784   3.359  0.00  0.00    +0.085 A 
ATOM      8  N   UNL     1      -5.662  -4.623   3.659  0.00  0.00    -0.224 NA
ATOM      9  C   UNL     1      -4.379  -4.436   3.447  0.00  0.00    +0.162 A 
ATOM     10  S   UNL     1      -3.877  -5.999   2.740  0.00  0.00    -0.052 S 
ATOM     11  N   UNL     1      -3.614  -3.316   3.701  0.00  0.00    -0.307 N 
ATOM     12  C   UNL     1      -2.215  -3.534   3.311  0.00  0.00    +0.126 C 
ATOM     13  C   UNL     1      -1.368  -2.343   3.772  0.00  0.00    +0.127 C 
ATOM     14  N   UNL     1      -1.974  -1.109   3.249  0.00  0.00    -0.297 N 
ATOM     15  C   UNL     1      -3.408  -0.882   3.488  0.00  0.00    +0.127 C 
ATOM     16  C   UNL     1      -4.176  -2.133   3.033  0.00  0.00    +0.126 C 
ATOM     17  C   UNL     1      -1.234  -0.206   2.575  0.00  0.00    +0.235 C 
ATOM     18  O   UNL     1      -0.052  -0.407   2.392  0.00  0.00    -0.274 OA
ATOM     19 CL   UNL     1      -9.804  -7.714   3.407  0.00  0.00    -0.083 Cl
ENDROOT
BRANCH  17  20
ATOM     20  C   UNL     1      -1.875   1.052   2.048  0.00  0.00    +0.166 C 
ATOM     21  C   UNL     1      -2.422   1.893   3.221  0.00  0.00    +0.031 C 
ATOM     22  C   UNL     1      -2.106   3.347   2.782  0.00  0.00    +0.019 C 
ATOM     23  C   UNL     1      -0.748   3.162   2.055  0.00  0.00    +0.110 C 
ATOM     24  N   UNL     1      -0.872   1.871   1.353  0.00  0.00    -0.165 NA
BRANCH  24  25
ATOM     25  S   UNL     1      -0.017   1.417   0.010  0.00  0.00    +0.062 S 
ATOM     26  O   UNL     1       0.002  -0.004   0.002  0.00  0.00    -0.153 OA
ATOM     27  O   UNL     1       1.172   2.195   0.003  0.00  0.00    -0.153 OA
BRANCH  25  28
ATOM     28  C   UNL     1      -0.954   1.915  -1.397  0.00  0.00    +0.106 A 
ATOM     29  C   UNL     1      -1.879   1.052  -1.952  0.00  0.00    +0.031 A 
ATOM     30  C   UNL     1      -2.619   1.444  -3.052  0.00  0.00    +0.040 A 
ATOM     31  C   UNL     1      -2.424   2.698  -3.605  0.00  0.00    +0.124 A 
ATOM     32  C   UNL     1      -1.492   3.560  -3.051  0.00  0.00    +0.040 A 
ATOM     33  C   UNL     1      -0.758   3.168  -1.948  0.00  0.00    +0.031 A 
ATOM     34  F   UNL     1      -3.141   3.080  -4.684  0.00  0.00    -0.205 F 
ENDBRANCH  25  28
ENDBRANCH  24  25
ENDBRANCH  17  20
TORSDOF 3
