REMARK  Name = ZINC01222225
REMARK  8 active torsions:
REMARK  status: ('A' for Active; 'I' for Inactive)
REMARK    1  A    between atoms: C_4  and  C_7
REMARK    2  A    between atoms: C_7  and  C_8
REMARK    3  A    between atoms: C_8  and  N_9
REMARK    4  A    between atoms: N_9  and  C_10
REMARK    5  A    between atoms: N_9  and  S_27
REMARK    6  A    between atoms: C_10  and  C_11
REMARK    7  A    between atoms: S_27  and  C_30
REMARK    8  A    between atoms: C_35  and  C_36
REMARK                            x       y       z     vdW  Elec       q    Type
REMARK                         _______ _______ _______ _____ _____    ______ ____
ROOT
ATOM      1  N   UNL     1      -0.041   7.633  -1.176  0.00  0.00    -0.172 NA
ENDROOT
BRANCH   1   2
ATOM      2  S   UNL     1       1.468   8.259  -1.448  0.00  0.00    +0.062 S 
ATOM      3  O   UNL     1       1.517   9.509  -0.774  0.00  0.00    -0.153 OA
ATOM      4  O   UNL     1       2.394   7.214  -1.184  0.00  0.00    -0.153 OA
BRANCH   2   5
ATOM      5  C   UNL     1       1.583   8.611  -3.171  0.00  0.00    +0.117 A 
ATOM      6  C   UNL     1       0.442   8.629  -3.950  0.00  0.00    +0.029 A 
ATOM      7  C   UNL     1       0.532   8.909  -5.301  0.00  0.00    +0.002 A 
ATOM      8  C   UNL     1       1.764   9.162  -5.874  0.00  0.00    +0.001 A 
ATOM      9  C   UNL     1       2.906   9.139  -5.095  0.00  0.00    +0.014 A 
ATOM     10  C   UNL     1       2.816   8.864  -3.743  0.00  0.00    +0.081 A 
BRANCH  10  11
ATOM     11  C   UNL     1       4.061   8.838  -2.894  0.00  0.00    +0.419 C 
ATOM     12  F   UNL     1       5.155   9.258  -3.659  0.00  0.00    -0.166 F 
ATOM     13  F   UNL     1       3.898   9.697  -1.802  0.00  0.00    -0.166 F 
ATOM     14  F   UNL     1       4.285   7.536  -2.434  0.00  0.00    -0.166 F 
ENDBRANCH  10  11
ENDBRANCH   2   5
ENDBRANCH   1   2
BRANCH   1  15
ATOM     15  C   UNL     1      -0.239   6.182  -1.152  0.00  0.00    +0.114 C 
BRANCH  15  16
ATOM     16  C   UNL     1      -0.703   5.708  -2.531  0.00  0.00    +0.052 C 
BRANCH  16  20
ATOM     17  C   UNL     1      -0.954   1.444  -2.561  0.00  0.00    +0.000 A 
ATOM     18  C   UNL     1       0.228   2.069  -2.912  0.00  0.00    +0.000 A 
ATOM     19  C   UNL     1       0.307   3.449  -2.907  0.00  0.00    +0.003 A 
ATOM     20  C   UNL     1      -0.791   4.203  -2.542  0.00  0.00    -0.046 A 
ATOM     21  C   UNL     1      -1.972   3.578  -2.185  0.00  0.00    +0.003 A 
ATOM     22  C   UNL     1      -2.053   2.198  -2.195  0.00  0.00    +0.000 A 
ENDBRANCH  16  20
ENDBRANCH  15  16
ENDBRANCH   1  15
BRANCH   1  23
ATOM     23  C   UNL     1      -1.178   8.531  -0.959  0.00  0.00    +0.150 C 
BRANCH  23  24
ATOM     24  C   UNL     1      -1.425   8.680   0.520  0.00  0.00    +0.033 A 
ATOM     25  C   UNL     1      -0.873   9.719   1.197  0.00  0.00    +0.020 A 
ATOM     26  C   UNL     1      -1.131   9.836   2.631  0.00  0.00    +0.003 A 
ATOM     27  C   UNL     1      -0.587  10.886   3.380  0.00  0.00    +0.059 A 
ATOM     28  C   UNL     1      -0.846  10.969   4.732  0.00  0.00    +0.163 A 
ATOM     29  C   UNL     1      -1.651  10.010   5.355  0.00  0.00    +0.164 A 
ATOM     30  C   UNL     1      -2.195   8.970   4.621  0.00  0.00    +0.075 A 
ATOM     31  C   UNL     1      -1.942   8.871   3.259  0.00  0.00    +0.053 A 
ATOM     32  N   UNL     1      -2.475   7.839   2.513  0.00  0.00    -0.322 N 
ATOM     33  H   UNL     1      -3.048   7.152   2.961  0.00  0.00    +0.169 HD
ATOM     34  C   UNL     1      -2.235   7.744   1.194  0.00  0.00    +0.254 A 
ATOM     35  O   UNL     1      -2.726   6.821   0.566  0.00  0.00    -0.268 OA
ATOM     36  O   UNL     1      -1.915  10.087   6.687  0.00  0.00    -0.485 OA
ATOM     37  C   UNL     1      -1.054  10.924   7.467  0.00  0.00    +0.270 C 
ATOM     38  C   UNL     1      -0.884  12.259   6.730  0.00  0.00    +0.270 C 
ATOM     39  O   UNL     1      -0.304  11.993   5.449  0.00  0.00    -0.485 OA
ENDBRANCH  23  24
ENDBRANCH   1  23
TORSDOF 8
