REMARK  Name = ZINC09253434
REMARK  12 active torsions:
REMARK  status: ('A' for Active; 'I' for Inactive)
REMARK    1  A    between atoms: C_1  and  C_2
REMARK    2  A    between atoms: C_2  and  C_4
REMARK    3  A    between atoms: C_2  and  O_17
REMARK    4  A    between atoms: N_6  and  C_7
REMARK    5  A    between atoms: C_9  and  N_14
REMARK    6  A    between atoms: O_17  and  C_18
REMARK    7  A    between atoms: C_18  and  C_20
REMARK    8  A    between atoms: C_20  and  C_22
REMARK    9  A    between atoms: C_20  and  N_26
REMARK   10  A    between atoms: C_22  and  C_23
REMARK   11  A    between atoms: C_23  and  C_24
REMARK   12  A    between atoms: C_23  and  C_25
REMARK                            x       y       z     vdW  Elec       q    Type
REMARK                         _______ _______ _______ _____ _____    ______ ____
ROOT
ATOM      1  C   UNL     1       0.064  -0.638  -2.123  0.00  0.00    +0.329 C 
ATOM      2  O   UNL     1      -1.065  -0.335  -1.816  0.00  0.00    -0.249 OA
ENDROOT
BRANCH   1   3
ATOM      3  O   UNL     1       1.030  -0.656  -1.191  0.00  0.00    -0.451 OA
BRANCH   3   5
ATOM      4  C   UNL     1       0.814   1.204   0.336  0.00  0.00    +0.062 C 
ATOM      5  C   UNL     1       0.653  -0.305   0.142  0.00  0.00    +0.259 C 
BRANCH   5   6
ATOM      6  C   UNL     1       1.535  -1.034   1.122  0.00  0.00    +0.258 C 
ATOM      7  O   UNL     1       2.458  -1.711   0.721  0.00  0.00    -0.271 OA
ATOM      8  N   UNL     1       1.297  -0.936   2.445  0.00  0.00    -0.281 N 
ATOM      9  H   UNL     1       0.603  -0.341   2.770  0.00  0.00    +0.155 HD
BRANCH   8  10
ATOM     10  C   UNL     1       2.051  -1.692   3.350  0.00  0.00    +0.054 A 
ATOM     11  C   UNL     1       3.387  -1.964   3.085  0.00  0.00    +0.057 A 
ATOM     12  C   UNL     1       4.129  -2.709   3.980  0.00  0.00    +0.128 A 
ATOM     13  C   UNL     1       3.544  -3.185   5.139  0.00  0.00    +0.034 A 
ATOM     14  C   UNL     1       2.214  -2.916   5.407  0.00  0.00    +0.024 A 
ATOM     15  C   UNL     1       1.467  -2.166   4.518  0.00  0.00    +0.062 A 
ATOM     16 CL   UNL     1      -0.200  -1.823   4.857  0.00  0.00    -0.082 Cl
BRANCH  12  17
ATOM     17  N   UNL     1       5.553  -3.000   3.698  0.00  0.00    +0.056 N 
ATOM     18  O   UNL     1       6.065  -2.585   2.685  0.00  0.00    -0.126 OA
ATOM     19  O   UNL     1       6.203  -3.653   4.481  0.00  0.00    -0.126 OA
ENDBRANCH  12  17
ENDBRANCH   8  10
ENDBRANCH   5   6
ENDBRANCH   3   5
ENDBRANCH   1   3
BRANCH   1  20
ATOM     20  C   UNL     1       0.387  -0.998  -3.550  0.00  0.00    +0.193 C 
BRANCH  20  21
ATOM     21  N   UNL     1      -0.828  -0.903  -4.364  0.00  0.00    -0.228 N 
ATOM     22  C   UNL     1      -1.563   0.221  -4.459  0.00  0.00    +0.227 C 
ATOM     23  O   UNL     1      -1.240   1.326  -4.079  0.00  0.00    -0.275 OA
ATOM     24  C   UNL     1      -2.888  -0.158  -5.141  0.00  0.00    +0.091 C 
ATOM     25  C   UNL     1      -3.812  -0.579  -3.995  0.00  0.00    +0.040 C 
ATOM     26  C   UNL     1      -4.744  -1.681  -4.363  0.00  0.00    -0.030 C 
ATOM     27  C   UNL     1      -4.599  -2.462  -5.381  0.00  0.00    -0.030 C 
ATOM     28  C   UNL     1      -3.483  -2.328  -6.367  0.00  0.00    +0.040 C 
ATOM     29  C   UNL     1      -2.403  -1.371  -5.952  0.00  0.00    +0.091 C 
ATOM     30  C   UNL     1      -1.310  -1.935  -5.092  0.00  0.00    +0.227 C 
ATOM     31  O   UNL     1      -0.935  -3.087  -5.057  0.00  0.00    -0.275 OA
ENDBRANCH  20  21
BRANCH  20  32
ATOM     32  C   UNL     1       1.441  -0.031  -4.093  0.00  0.00    +0.037 C 
BRANCH  32  33
ATOM     33  C   UNL     1       1.825  -0.441  -5.516  0.00  0.00    -0.015 C 
ATOM     34  C   UNL     1       2.759   0.611  -6.116  0.00  0.00    +0.007 C 
ATOM     35  C   UNL     1       2.536  -1.795  -5.482  0.00  0.00    +0.007 C 
ENDBRANCH  32  33
ENDBRANCH  20  32
ENDBRANCH   1  20
TORSDOF 9
