REMARK  Name = ZINC36643689
REMARK  9 active torsions:
REMARK  status: ('A' for Active; 'I' for Inactive)
REMARK    1  A    between atoms: C_1  and  C_2
REMARK    2  A    between atoms: C_4  and  C_35
REMARK    3  A    between atoms: N_11  and  C_12
REMARK    4  A    between atoms: C_12  and  C_13
REMARK    5  A    between atoms: C_13  and  C_14
REMARK    6  A    between atoms: C_14  and  N_15
REMARK    7  A    between atoms: N_15  and  C_16
REMARK    8  A    between atoms: N_15  and  C_17
REMARK    9  A    between atoms: C_18  and  C_20
REMARK                            x       y       z     vdW  Elec       q    Type
REMARK                         _______ _______ _______ _____ _____    ______ ____
ROOT
ATOM      1  C   UNL     1      -0.084   1.501  -0.185  0.00  0.00    +0.044 C 
ATOM      2  C   UNL     1      -0.041  -0.005  -0.154  0.00  0.00    -0.049 A 
ATOM      3  C   UNL     1       0.134  -0.725  -1.327  0.00  0.00    +0.009 A 
ATOM      4  C   UNL     1       0.177  -2.095  -1.327  0.00  0.00    -0.024 A 
ATOM      5  C   UNL     1       0.043  -2.822  -0.121  0.00  0.00    +0.083 A 
ATOM      6  C   UNL     1      -0.134  -2.055   1.053  0.00  0.00    +0.041 A 
ATOM      7  C   UNL     1      -0.171  -0.683   1.044  0.00  0.00    +0.020 A 
ATOM      8  S   UNL     1      -0.258  -3.307   2.307  0.00  0.00    -0.052 S 
ATOM      9  C   UNL     1      -0.074  -4.722   1.231  0.00  0.00    +0.168 A 
ATOM     10  N   UNL     1       0.062  -4.161   0.052  0.00  0.00    -0.224 NA
ATOM     11  N   UNL     1      -0.074  -6.067   1.557  0.00  0.00    -0.246 N 
ATOM     12  C   UNL     1       0.081  -6.995   0.592  0.00  0.00    +0.259 C 
ATOM     13  O   UNL     1       0.314  -6.650  -0.551  0.00  0.00    -0.269 OA
ATOM     14  C   UNL     1       0.368  -2.835  -2.626  0.00  0.00    +0.046 C 
ENDROOT
BRANCH  12  15
ATOM     15  C   UNL     1      -0.030  -8.424   0.921  0.00  0.00    +0.122 A 
ATOM     16  C   UNL     1       1.014  -9.113   1.535  0.00  0.00    +0.032 A 
ATOM     17  C   UNL     1       0.842 -10.488   1.789  0.00  0.00    +0.026 A 
ATOM     18  C   UNL     1       1.797 -11.224   2.620  0.00  0.00    -0.007 A 
ATOM     19  C   UNL     1       2.919 -10.602   3.172  0.00  0.00    +0.009 A 
ATOM     20  C   UNL     1       3.784 -11.326   3.941  0.00  0.00    +0.001 A 
ATOM     21  C   UNL     1       3.562 -12.678   4.181  0.00  0.00    +0.001 A 
ATOM     22  C   UNL     1       2.477 -13.315   3.657  0.00  0.00    +0.008 A 
ATOM     23  C   UNL     1       1.568 -12.599   2.863  0.00  0.00    -0.017 A 
ATOM     24  C   UNL     1       0.434 -13.224   2.305  0.00  0.00    +0.012 A 
ATOM     25  C   UNL     1      -0.438 -12.532   1.529  0.00  0.00    +0.047 A 
ATOM     26  C   UNL     1      -0.257 -11.175   1.250  0.00  0.00    +0.140 A 
ATOM     27  O   UNL     1      -1.127 -10.525   0.441  0.00  0.00    -0.422 OA
ATOM     28  C   UNL     1      -1.253  -9.188   0.622  0.00  0.00    +0.350 A 
ATOM     29  O   UNL     1      -2.335  -8.638   0.536  0.00  0.00    -0.244 OA
ENDBRANCH  12  15
BRANCH  11  30
ATOM     30  C   UNL     1      -0.243  -6.482   2.952  0.00  0.00    +0.114 C 
BRANCH  30  31
ATOM     31  C   UNL     1      -1.734  -6.571   3.281  0.00  0.00    +0.001 C 
BRANCH  31  32
ATOM     32  C   UNL     1      -1.911  -7.005   4.737  0.00  0.00    -0.078 C 
BRANCH  32  33
ATOM     33  N   UNL     1      -3.343  -7.090   5.053  0.00  0.00    +0.376 N 
ATOM     34  C   UNL     1      -3.958  -8.158   4.252  0.00  0.00    -0.097 C 
ATOM     35  C   UNL     1      -3.513  -7.389   6.481  0.00  0.00    -0.097 C 
ATOM     36  H   UNL     1      -3.788  -6.210   4.838  0.00  0.00    -0.083 HD
ENDBRANCH  32  33
ENDBRANCH  31  32
ENDBRANCH  30  31
ENDBRANCH  11  30
TORSDOF 5
