REMARK  Name = ZINC46841227
REMARK  7 active torsions:
REMARK  status: ('A' for Active; 'I' for Inactive)
REMARK    1  A    between atoms: C_1  and  C_2
REMARK    2  A    between atoms: C_7  and  C_10
REMARK    3  A    between atoms: C_14  and  C_17
REMARK    4  A    between atoms: C_17  and  N_18
REMARK    5  A    between atoms: C_19  and  C_21
REMARK    6  A    between atoms: C_26  and  O_27
REMARK    7  A    between atoms: O_27  and  C_28
REMARK                            x       y       z     vdW  Elec       q    Type
REMARK                         _______ _______ _______ _____ _____    ______ ____
ROOT
ATOM      1  N   UNL     1      -3.352  -5.821  -4.355  0.00  0.00    -0.307 N 
ATOM      2  C   UNL     1      -3.816  -6.662  -5.301  0.00  0.00    +0.248 C 
ATOM      3  O   UNL     1      -4.901  -7.193  -5.163  0.00  0.00    -0.270 OA
ATOM      4  H   UNL     1      -2.487  -5.397  -4.465  0.00  0.00    +0.149 HD
ENDROOT
BRANCH   2   5
ATOM      5  C   UNL     1      -3.006  -6.939  -6.503  0.00  0.00    +0.079 A 
ATOM      6  C   UNL     1      -1.756  -6.335  -6.662  0.00  0.00    +0.017 A 
ATOM      7  C   UNL     1      -1.005  -6.598  -7.787  0.00  0.00    +0.001 A 
ATOM      8  C   UNL     1      -1.483  -7.458  -8.762  0.00  0.00    +0.004 A 
ATOM      9  C   UNL     1      -2.716  -8.062  -8.617  0.00  0.00    +0.047 A 
ATOM     10  C   UNL     1      -3.484  -7.813  -7.488  0.00  0.00    +0.141 A 
BRANCH  10  11
ATOM     11  O   UNL     1      -4.693  -8.409  -7.342  0.00  0.00    -0.455 OA
BRANCH  11  12
ATOM     12  C   UNL     1      -5.066  -9.331  -8.268  0.00  0.00    +0.128 A 
ATOM     13  C   UNL     1      -4.512 -10.603  -8.245  0.00  0.00    +0.046 A 
ATOM     14  C   UNL     1      -4.892 -11.539  -9.187  0.00  0.00    +0.004 A 
ATOM     15  C   UNL     1      -5.825 -11.208 -10.153  0.00  0.00    +0.000 A 
ATOM     16  C   UNL     1      -6.378  -9.941 -10.179  0.00  0.00    +0.004 A 
ATOM     17  C   UNL     1      -6.006  -9.004  -9.235  0.00  0.00    +0.046 A 
ENDBRANCH  11  12
ENDBRANCH  10  11
ENDBRANCH   2   5
BRANCH   1  18
ATOM     18  C   UNL     1      -4.156  -5.546  -3.162  0.00  0.00    +0.141 C 
BRANCH  18  30
ATOM     19  C   UNL     1       0.047   1.454   0.049  0.00  0.00    +0.039 C 
ATOM     20  C   UNL     1       0.059  -0.076   0.039  0.00  0.00    +0.133 C 
ATOM     21  C   UNL     1      -1.382  -0.599   0.051  0.00  0.00    +0.137 C 
ATOM     22  N   UNL     1      -1.344  -2.059   0.230  0.00  0.00    -0.312 N 
ATOM     23  C   UNL     1      -0.538  -2.599   1.336  0.00  0.00    +0.137 C 
ATOM     24  C   UNL     1       0.862  -1.979   1.262  0.00  0.00    +0.133 C 
ATOM     25  O   UNL     1       0.744  -0.555   1.199  0.00  0.00    -0.371 OA
ATOM     26  C   UNL     1       1.661  -2.372   2.505  0.00  0.00    +0.039 C 
ATOM     27  C   UNL     1      -2.050  -2.902  -0.620  0.00  0.00    +0.099 A 
ATOM     28  C   UNL     1      -2.901  -2.361  -1.579  0.00  0.00    +0.042 A 
ATOM     29  C   UNL     1      -3.597  -3.212  -2.418  0.00  0.00    +0.010 A 
ATOM     30  C   UNL     1      -3.418  -4.581  -2.270  0.00  0.00    -0.014 A 
ATOM     31  C   UNL     1      -2.558  -5.050  -1.297  0.00  0.00    +0.089 A 
ATOM     32  N   UNL     1      -1.903  -4.214  -0.514  0.00  0.00    -0.349 N 
ATOM     33  H   UNL     1      -1.301  -4.569   0.159  0.00  0.00    +0.167 HD
ENDBRANCH  18  30
ENDBRANCH   1  18
TORSDOF 5
