REMARK  Name = ZINC30824590
REMARK  13 active torsions:
REMARK  status: ('A' for Active; 'I' for Inactive)
REMARK    1  A    between atoms: C_1  and  C_2
REMARK    2  A    between atoms: C_2  and  C_3
REMARK    3  A    between atoms: C_2  and  C_4
REMARK    4  A    between atoms: C_2  and  C_5
REMARK    5  A    between atoms: C_7  and  C_15
REMARK    6  A    between atoms: C_9  and  C_11
REMARK    7  A    between atoms: C_11  and  C_12
REMARK    8  A    between atoms: C_11  and  C_13
REMARK    9  A    between atoms: C_11  and  C_14
REMARK   10  A    between atoms: C_18  and  C_20
REMARK   11  A    between atoms: C_20  and  N_21
REMARK   12  A    between atoms: N_21  and  C_22
REMARK   13  A    between atoms: C_22  and  C_23
REMARK                            x       y       z     vdW  Elec       q    Type
REMARK                         _______ _______ _______ _____ _____    ______ ____
ROOT
ATOM      1  C   UNL     1       9.535  -2.809  -0.687  0.00  0.00    +0.248 A 
ATOM      2  N   UNL     1       9.724  -1.536  -0.943  0.00  0.00    -0.107 NA
ATOM      3  N   UNL     1       9.014  -0.831  -0.134  0.00  0.00    -0.114 NA
ATOM      4  C   UNL     1       8.356  -1.619   0.669  0.00  0.00    +0.201 A 
ATOM      5  O   UNL     1       8.665  -2.885   0.339  0.00  0.00    -0.422 OA
ENDROOT
BRANCH   1   8
ATOM      6  C   UNL     1      11.631  -4.784  -3.098  0.00  0.00    -0.041 A 
ATOM      7  C   UNL     1      11.049  -3.718  -2.444  0.00  0.00    +0.017 A 
ATOM      8  C   UNL     1      10.161  -3.948  -1.393  0.00  0.00    +0.039 A 
ATOM      9  C   UNL     1       9.871  -5.257  -1.006  0.00  0.00    +0.017 A 
ATOM     10  C   UNL     1      10.455  -6.315  -1.671  0.00  0.00    -0.041 A 
ATOM     11  C   UNL     1      11.335  -6.080  -2.713  0.00  0.00    +0.008 A 
BRANCH   6  13
ATOM     12  C   UNL     1      12.741  -3.032  -4.456  0.00  0.00    +0.015 C 
ATOM     13  C   UNL     1      12.590  -4.538  -4.234  0.00  0.00    -0.013 C 
ATOM     14  C   UNL     1      13.953  -5.143  -3.891  0.00  0.00    +0.015 C 
ATOM     15  C   UNL     1      12.049  -5.189  -5.508  0.00  0.00    +0.015 C 
ENDBRANCH   6  13
BRANCH  10  16
ATOM     16  C   UNL     1      10.138  -7.729  -1.259  0.00  0.00    -0.013 C 
ATOM     17  C   UNL     1      11.425  -8.434  -0.824  0.00  0.00    +0.015 C 
ATOM     18  C   UNL     1       9.147  -7.711  -0.094  0.00  0.00    +0.015 C 
ATOM     19  C   UNL     1       9.521  -8.479  -2.442  0.00  0.00    +0.015 C 
ENDBRANCH  10  16
ENDBRANCH   1   8
BRANCH   4  20
ATOM     20  C   UNL     1       7.414  -1.190   1.764  0.00  0.00    +0.017 C 
BRANCH  20  21
ATOM     21  N   UNL     1       6.054  -1.074   1.223  0.00  0.00    +0.388 N 
ATOM     22  H   UNL     1       6.043  -0.327   0.416  0.00  0.00    -0.085 HD
ATOM     23  H   UNL     1       5.733  -2.048   0.826  0.00  0.00    -0.085 HD
BRANCH  21  24
ATOM     24  C   UNL     1       5.107  -0.655   2.265  0.00  0.00    -0.046 C 
BRANCH  24  25
ATOM     25  C   UNL     1       3.725  -0.548   1.674  0.00  0.00    -0.061 A 
ATOM     26  C   UNL     1       2.885  -1.646   1.677  0.00  0.00    +0.005 A 
ATOM     27  C   UNL     1       1.617  -1.553   1.135  0.00  0.00    +0.050 A 
ATOM     28  C   UNL     1       1.183  -0.356   0.589  0.00  0.00    +0.166 A 
ATOM     29  C   UNL     1       2.028   0.751   0.586  0.00  0.00    +0.166 A 
ATOM     30  C   UNL     1       3.298   0.650   1.131  0.00  0.00    +0.051 A 
ATOM     31  O   UNL     1       1.376   1.797  -0.001  0.00  0.00    -0.453 OA
ATOM     32  C   UNL     1      -0.018   1.436   0.010  0.00  0.00    +0.466 C 
ATOM     33  O   UNL     1       0.002  -0.004   0.002  0.00  0.00    -0.453 OA
ENDBRANCH  24  25
ENDBRANCH  21  24
ENDBRANCH  20  21
ENDBRANCH   4  20
TORSDOF 7
