REMARK  Name = ZINC35305997
REMARK  7 active torsions:
REMARK  status: ('A' for Active; 'I' for Inactive)
REMARK    1  A    between atoms: C_1  and  C_2
REMARK    2  A    between atoms: C_5  and  C_8
REMARK    3  A    between atoms: C_11  and  S_14
REMARK    4  A    between atoms: S_14  and  C_15
REMARK    5  A    between atoms: C_15  and  C_16
REMARK    6  A    between atoms: C_19  and  C_21
REMARK    7  A    between atoms: C_27  and  C_30
REMARK                            x       y       z     vdW  Elec       q    Type
REMARK                         _______ _______ _______ _____ _____    ______ ____
ROOT
ATOM      1  C   UNL     1       0.117 -10.463  -2.582  0.00  0.00    +0.116 A 
ATOM      2  C   UNL     1      -0.947 -11.279  -2.412  0.00  0.00    +0.046 A 
ATOM      3  C   UNL     1      -0.474 -12.598  -2.498  0.00  0.00    +0.055 A 
ATOM      4  C   UNL     1       0.871 -12.519  -2.718  0.00  0.00    +0.190 A 
ATOM      5  O   UNL     1       1.210 -11.214  -2.770  0.00  0.00    -0.454 OA
ENDROOT
BRANCH   4   6
ATOM      6  C   UNL     1       1.787 -13.654  -2.874  0.00  0.00    +0.282 C 
ATOM      7  O   UNL     1       1.346 -14.786  -2.946  0.00  0.00    -0.267 OA
ATOM      8  N   UNL     1       3.117 -13.443  -2.938  0.00  0.00    -0.298 N 
ATOM      9  C   UNL     1       3.683 -12.107  -2.699  0.00  0.00    +0.089 C 
ATOM     10  C   UNL     1       4.811 -12.235  -1.669  0.00  0.00    -0.063 C 
ATOM     11  N   UNL     1       5.784 -13.232  -2.132  0.00  0.00    +0.383 N 
ATOM     12  C   UNL     1       5.153 -14.556  -2.193  0.00  0.00    -0.057 C 
ATOM     13  C   UNL     1       4.043 -14.545  -3.243  0.00  0.00    +0.092 C 
ATOM     14  C   UNL     1       6.203 -15.604  -2.569  0.00  0.00    -0.012 C 
ATOM     15  H   UNL     1       6.115 -12.975  -3.050  0.00  0.00    -0.085 HD
ATOM     16  H   UNL     1       6.564 -13.261  -1.492  0.00  0.00    -0.085 HD
ENDBRANCH   4   6
BRANCH   1  17
ATOM     17  C   UNL     1       0.079  -8.957  -2.567  0.00  0.00    +0.150 C 
BRANCH  17  18
ATOM     18  S   UNL     1       0.348  -8.362  -0.875  0.00  0.00    -0.096 S 
BRANCH  18  22
ATOM     19  C   UNL     1       0.150  -3.935  -1.348  0.00  0.00    +0.093 A 
ATOM     20  C   UNL     1       0.380  -4.431  -0.059  0.00  0.00    +0.033 A 
ATOM     21  C   UNL     1       0.444  -5.803   0.106  0.00  0.00    +0.039 A 
ATOM     22  C   UNL     1       0.276  -6.608  -1.023  0.00  0.00    +0.120 A 
ATOM     23  N   UNL     1       0.062  -6.050  -2.207  0.00  0.00    -0.142 NA
ATOM     24  N   UNL     1      -0.003  -4.777  -2.361  0.00  0.00    -0.148 NA
BRANCH  19  29
ATOM     25  C   UNL     1      -0.155   1.745  -2.243  0.00  0.00    +0.044 C 
ATOM     26  C   UNL     1      -0.075   0.259  -2.009  0.00  0.00    -0.050 A 
ATOM     27  C   UNL     1      -0.234  -0.615  -3.069  0.00  0.00    +0.004 A 
ATOM     28  C   UNL     1      -0.162  -1.978  -2.860  0.00  0.00    +0.010 A 
ATOM     29  C   UNL     1       0.072  -2.472  -1.578  0.00  0.00    +0.002 A 
ATOM     30  C   UNL     1       0.233  -1.587  -0.514  0.00  0.00    +0.010 A 
ATOM     31  C   UNL     1       0.164  -0.226  -0.735  0.00  0.00    +0.004 A 
ENDBRANCH  19  29
ENDBRANCH  18  22
ENDBRANCH  17  18
ENDBRANCH   1  17
TORSDOF 5
