REMARK  Name = ZINC39655250
REMARK  6 active torsions:
REMARK  status: ('A' for Active; 'I' for Inactive)
REMARK    1  A    between atoms: C_4  and  N_7
REMARK    2  A    between atoms: N_7  and  C_8
REMARK    3  A    between atoms: C_8  and  C_9
REMARK    4  A    between atoms: C_9  and  N_10
REMARK    5  A    between atoms: C_11  and  C_13
REMARK    6  A    between atoms: C_24  and  C_26
REMARK                            x       y       z     vdW  Elec       q    Type
REMARK                         _______ _______ _______ _____ _____    ______ ____
ROOT
ATOM      1  C   UNL     1       6.176  -6.470  -0.075  0.00  0.00    +0.100 C 
ATOM      2  C   UNL     1       5.462  -6.952  -1.357  0.00  0.00    +0.121 C 
ATOM      3  N   UNL     1       6.543  -7.084  -2.361  0.00  0.00    -0.296 N 
ATOM      4  C   UNL     1       7.685  -7.648  -1.602  0.00  0.00    +0.115 C 
ATOM      5  C   UNL     1       7.634  -6.932  -0.238  0.00  0.00    -0.004 C 
ATOM      6  C   UNL     1       8.010  -7.899   0.881  0.00  0.00    -0.010 C 
ATOM      7  C   UNL     1       9.481  -8.299   0.731  0.00  0.00    -0.082 C 
ATOM      8  N   UNL     1      10.324  -7.099   0.790  0.00  0.00    +0.379 N 
ATOM      9  C   UNL     1      10.020  -6.217  -0.343  0.00  0.00    -0.082 C 
ATOM     10  C   UNL     1       8.573  -5.729  -0.239  0.00  0.00    -0.010 C 
ATOM     11  C   UNL     1       6.499  -6.764  -3.670  0.00  0.00    +0.247 C 
ATOM     12  O   UNL     1       7.447  -7.014  -4.389  0.00  0.00    -0.270 OA
ATOM     13  H   UNL     1      10.148  -6.608   1.653  0.00  0.00    -0.086 HD
ATOM     14  H   UNL     1      11.296  -7.370   0.752  0.00  0.00    -0.086 HD
ENDROOT
BRANCH  11  15
ATOM     15  C   UNL     1       5.299  -6.110  -4.230  0.00  0.00    +0.045 A 
ATOM     16  C   UNL     1       4.029  -6.649  -3.993  0.00  0.00    +0.014 A 
ATOM     17  C   UNL     1       2.908  -6.041  -4.514  0.00  0.00    +0.001 A 
ATOM     18  C   UNL     1       3.024  -4.890  -5.278  0.00  0.00    +0.012 A 
ATOM     19  C   UNL     1       4.276  -4.338  -5.526  0.00  0.00    +0.031 A 
ATOM     20  C   UNL     1       5.426  -4.944  -4.996  0.00  0.00    +0.006 A 
ATOM     21  C   UNL     1       6.613  -4.151  -5.405  0.00  0.00    -0.006 A 
ATOM     22  C   UNL     1       7.969  -4.317  -5.155  0.00  0.00    +0.009 A 
ATOM     23  C   UNL     1       8.884  -3.411  -5.667  0.00  0.00    +0.001 A 
ATOM     24  C   UNL     1       8.457  -2.339  -6.427  0.00  0.00    +0.001 A 
ATOM     25  C   UNL     1       7.108  -2.159  -6.684  0.00  0.00    +0.012 A 
ATOM     26  C   UNL     1       6.180  -3.061  -6.178  0.00  0.00    +0.030 A 
ATOM     27  C   UNL     1       4.704  -3.142  -6.290  0.00  0.00    +0.194 C 
ATOM     28  O   UNL     1       3.981  -2.368  -6.884  0.00  0.00    -0.287 OA
ENDBRANCH  11  15
BRANCH   1  30
ATOM     29  N   UNL     1       6.102  -4.376   1.240  0.00  0.00    -0.314 N 
ATOM     30  C   UNL     1       6.111  -4.968   0.029  0.00  0.00    +0.218 C 
ATOM     31  O   UNL     1       6.066  -4.291  -0.976  0.00  0.00    -0.275 OA
ATOM     32  H   UNL     1       6.138  -4.917   2.045  0.00  0.00    +0.149 HD
BRANCH  29  33
ATOM     33  C   UNL     1       6.038  -2.916   1.341  0.00  0.00    +0.123 C 
BRANCH  33  34
ATOM     34  C   UNL     1       6.041  -2.506   2.816  0.00  0.00    +0.120 C 
BRANCH  34  35
ATOM     35  N   UNL     1       5.978  -1.046   2.917  0.00  0.00    -0.342 N 
ATOM     36  H   UNL     1       5.941  -0.505   2.112  0.00  0.00    +0.146 HD
BRANCH  35  40
ATOM     37  C   UNL     1       5.949   0.782   6.658  0.00  0.00    +0.000 A 
ATOM     38  C   UNL     1       5.899   1.555   5.512  0.00  0.00    +0.002 A 
ATOM     39  C   UNL     1       5.908   0.952   4.269  0.00  0.00    +0.023 A 
ATOM     40  C   UNL     1       5.968  -0.433   4.172  0.00  0.00    +0.027 A 
ATOM     41  C   UNL     1       6.019  -1.206   5.325  0.00  0.00    +0.023 A 
ATOM     42  C   UNL     1       6.010  -0.596   6.564  0.00  0.00    +0.002 A 
ENDBRANCH  35  40
ENDBRANCH  34  35
ENDBRANCH  33  34
ENDBRANCH  29  33
ENDBRANCH   1  30
TORSDOF 6
