REMARK  Name = ZINC08666992
REMARK  12 active torsions:
REMARK  status: ('A' for Active; 'I' for Inactive)
REMARK    1  A    between atoms: C_1  and  C_2
REMARK    2  A    between atoms: C_3  and  C_8
REMARK    3  A    between atoms: N_5  and  C_7
REMARK    4  A    between atoms: C_8  and  C_10
REMARK    5  A    between atoms: C_8  and  N_19
REMARK    6  A    between atoms: N_12  and  C_13
REMARK    7  A    between atoms: N_19  and  C_20
REMARK    8  A    between atoms: C_23  and  C_26
REMARK    9  A    between atoms: C_26  and  C_27
REMARK   10  A    between atoms: C_26  and  C_28
REMARK   11  A    between atoms: C_29  and  C_31
REMARK   12  A    between atoms: C_31  and  C_32
REMARK                            x       y       z     vdW  Elec       q    Type
REMARK                         _______ _______ _______ _____ _____    ______ ____
ROOT
ATOM      1  C   UNL     1      -0.156  -0.277  -2.630  0.00  0.00    +0.200 C 
ENDROOT
BRANCH   1   4
ATOM      2  C   UNL     1      -0.447   1.824  -0.275  0.00  0.00    +0.068 C 
ATOM      3  C   UNL     1      -0.492   0.324  -0.133  0.00  0.00    +0.065 A 
ATOM      4  C   UNL     1      -0.363  -0.602  -1.173  0.00  0.00    +0.022 A 
ATOM      5  C   UNL     1      -0.458  -1.842  -0.639  0.00  0.00    +0.114 A 
ATOM      6  N   UNL     1      -0.640  -1.705   0.691  0.00  0.00    -0.274 N 
ATOM      7  N   UNL     1      -0.653  -0.336   0.985  0.00  0.00    -0.176 NA
ATOM      8  C   UNL     1      -0.792  -2.796   1.657  0.00  0.00    +0.172 C 
ENDBRANCH   1   4
BRANCH   1   9
ATOM      9  C   UNL     1       1.299   0.030  -2.874  0.00  0.00    +0.239 C 
ATOM     10  O   UNL     1       1.922  -0.603  -3.700  0.00  0.00    -0.273 OA
ATOM     11  N   UNL     1       1.908   1.009  -2.175  0.00  0.00    -0.311 N 
ATOM     12  H   UNL     1       1.409   1.515  -1.515  0.00  0.00    +0.149 HD
BRANCH  11  13
ATOM     13  C   UNL     1       3.322   1.308  -2.412  0.00  0.00    +0.073 C 
ATOM     14  C   UNL     1       4.190   0.369  -1.572  0.00  0.00    +0.022 C 
ATOM     15  C   UNL     1       5.667   0.681  -1.820  0.00  0.00    +0.002 C 
ATOM     16  C   UNL     1       5.955   2.131  -1.426  0.00  0.00    +0.000 C 
ATOM     17  C   UNL     1       5.087   3.070  -2.266  0.00  0.00    +0.002 C 
ATOM     18  C   UNL     1       3.610   2.758  -2.018  0.00  0.00    +0.022 C 
ENDBRANCH  11  13
ENDBRANCH   1   9
BRANCH   1  19
ATOM     19  N   UNL     1      -0.556  -1.425  -3.448  0.00  0.00    -0.255 N 
ATOM     20  C   UNL     1      -1.581  -1.308  -4.316  0.00  0.00    +0.226 C 
ATOM     21  O   UNL     1      -1.969  -2.280  -4.930  0.00  0.00    -0.275 OA
BRANCH  19  22
ATOM     22  C   UNL     1       0.124  -2.641  -3.328  0.00  0.00    +0.037 A 
ATOM     23  C   UNL     1       1.262  -2.727  -2.536  0.00  0.00    +0.024 A 
ATOM     24  C   UNL     1       1.931  -3.929  -2.419  0.00  0.00    +0.006 A 
ATOM     25  C   UNL     1       1.470  -5.047  -3.090  0.00  0.00    -0.045 A 
ATOM     26  C   UNL     1       0.338  -4.965  -3.879  0.00  0.00    +0.006 A 
ATOM     27  C   UNL     1      -0.339  -3.767  -3.996  0.00  0.00    +0.024 A 
BRANCH  25  28
ATOM     28  C   UNL     1       2.203  -6.357  -2.960  0.00  0.00    +0.013 C 
ATOM     29  C   UNL     1       1.264  -7.411  -2.371  0.00  0.00    +0.012 C 
ATOM     30  C   UNL     1       2.679  -6.814  -4.341  0.00  0.00    +0.012 C 
ENDBRANCH  25  28
ENDBRANCH  19  22
BRANCH  20  31
ATOM     31  C   UNL     1      -2.244   0.029  -4.524  0.00  0.00    +0.138 C 
BRANCH  31  32
ATOM     32  C   UNL     1      -3.425  -0.135  -5.445  0.00  0.00    -0.001 A 
ATOM     33  C   UNL     1      -4.718  -0.401  -5.137  0.00  0.00    +0.011 A 
ATOM     34  C   UNL     1      -5.643  -0.508  -6.158  0.00  0.00    +0.008 A 
ATOM     35  C   UNL     1      -5.230  -0.343  -7.439  0.00  0.00    +0.045 A 
ATOM     36  S   UNL     1      -3.487  -0.019  -7.226  0.00  0.00    -0.101 S 
ENDBRANCH  31  32
ENDBRANCH  20  31
ENDBRANCH   1  19
TORSDOF 8
