REMARK  Name = ZINC44809924
REMARK  5 active torsions:
REMARK  status: ('A' for Active; 'I' for Inactive)
REMARK    1  A    between atoms: C_9  and  S_11
REMARK    2  A    between atoms: S_11  and  C_12
REMARK    3  A    between atoms: C_14  and  N_16
REMARK    4  A    between atoms: C_17  and  C_27
REMARK    5  A    between atoms: C_20  and  C_22
REMARK                            x       y       z     vdW  Elec       q    Type
REMARK                         _______ _______ _______ _____ _____    ______ ____
ROOT
ATOM      1  N   UNL     1       7.873  -3.429  -0.092  0.00  0.00    -0.181 N 
ATOM      2  C   UNL     1       9.067  -4.290  -0.114  0.00  0.00    +0.137 C 
ATOM      3  C   UNL     1      10.238  -3.287  -0.117  0.00  0.00    +0.087 C 
ATOM      4  C   UNL     1       9.560  -1.935  -0.095  0.00  0.00    +0.075 C 
ATOM      5  N   UNL     1       8.278  -2.096  -0.089  0.00  0.00    -0.180 NA
ENDROOT
BRANCH   2   6
ATOM      6  C   UNL     1       9.114  -5.161   1.115  0.00  0.00    -0.025 A 
ATOM      7  C   UNL     1       8.717  -4.654   2.338  0.00  0.00    +0.008 A 
ATOM      8  C   UNL     1       8.760  -5.452   3.465  0.00  0.00    +0.038 A 
ATOM      9  C   UNL     1       9.201  -6.761   3.369  0.00  0.00    +0.123 A 
ATOM     10  C   UNL     1       9.599  -7.269   2.143  0.00  0.00    +0.038 A 
ATOM     11  C   UNL     1       9.550  -6.470   1.017  0.00  0.00    +0.008 A 
ATOM     12  F   UNL     1       9.244  -7.543   4.470  0.00  0.00    -0.205 F 
ENDBRANCH   2   6
BRANCH   4  13
ATOM     13  C   UNL     1      10.252  -0.642  -0.090  0.00  0.00    +0.035 A 
ATOM     14  C   UNL     1       9.716   0.634  -0.066  0.00  0.00    +0.017 A 
ATOM     15  C   UNL     1      10.579   1.706  -0.066  0.00  0.00    +0.008 A 
ATOM     16  C   UNL     1      11.918   1.481  -0.090  0.00  0.00    +0.046 A 
ATOM     17  S   UNL     1      12.004  -0.302  -0.106  0.00  0.00    -0.095 S 
ENDBRANCH   4  13
BRANCH   1  19
ATOM     18  C   UNL     1       5.553  -2.995  -0.067  0.00  0.00    +0.117 C 
ATOM     19  C   UNL     1       6.554  -3.875  -0.082  0.00  0.00    +0.266 C 
ATOM     20  O   UNL     1       6.287  -5.208  -0.086  0.00  0.00    -0.268 OA
BRANCH  18  21
ATOM     21  S   UNL     1       3.884  -3.559  -0.054  0.00  0.00    -0.054 S 
BRANCH  21  30
ATOM     22  C   UNL     1      -0.017   1.376   0.010  0.00  0.00    +0.002 A 
ATOM     23  C   UNL     1       1.169   2.095   0.002  0.00  0.00    +0.002 A 
ATOM     24  C   UNL     1       2.382   1.442  -0.013  0.00  0.00    +0.030 A 
ATOM     25  C   UNL     1       2.418   0.045  -0.021  0.00  0.00    +0.090 A 
ATOM     26  C   UNL     1       1.214  -0.678  -0.013  0.00  0.00    +0.067 A 
ATOM     27  C   UNL     1       0.002  -0.004   0.002  0.00  0.00    +0.028 A 
ATOM     28  N   UNL     1       1.567  -2.017  -0.024  0.00  0.00    -0.333 N 
ATOM     29  H   UNL     1       0.959  -2.773  -0.022  0.00  0.00    +0.168 HD
ATOM     30  C   UNL     1       2.933  -2.075  -0.037  0.00  0.00    +0.172 A 
ATOM     31  N   UNL     1       3.430  -0.862  -0.035  0.00  0.00    -0.222 NA
ENDBRANCH  21  30
ENDBRANCH  18  21
ENDBRANCH   1  19
TORSDOF 5
