REMARK  Name = ZINC06135166
REMARK  12 active torsions:
REMARK  status: ('A' for Active; 'I' for Inactive)
REMARK    1  A    between atoms: C_1  and  C_2
REMARK    2  A    between atoms: C_2  and  C_3
REMARK    3  A    between atoms: C_10  and  C_15
REMARK    4  A    between atoms: C_15  and  C_17
REMARK    5  A    between atoms: C_15  and  N_74
REMARK    6  A    between atoms: N_21  and  C_22
REMARK    7  A    between atoms: C_22  and  C_23
REMARK    8  A    between atoms: C_22  and  C_24
REMARK    9  A    between atoms: C_22  and  C_25
REMARK   10  A    between atoms: C_25  and  C_26
REMARK   11  A    between atoms: N_29  and  C_32
REMARK   12  A    between atoms: C_37  and  C_38
REMARK                            x       y       z     vdW  Elec       q    Type
REMARK                         _______ _______ _______ _____ _____    ______ ____
ROOT
ATOM      1  C   UNL     1       3.402   0.672   0.102  0.00  0.00    +0.039 C 
ENDROOT
BRANCH   1   9
ATOM      2  C   UNL     1       7.081   1.270  -4.837  0.00  0.00    -0.047 A 
ATOM      3  C   UNL     1       6.875  -0.008  -5.340  0.00  0.00    +0.005 A 
ATOM      4  C   UNL     1       6.043  -0.894  -4.690  0.00  0.00    +0.026 A 
ATOM      5  C   UNL     1       5.401  -0.505  -3.519  0.00  0.00    +0.049 A 
ATOM      6  C   UNL     1       5.611   0.791  -3.012  0.00  0.00    -0.001 A 
ATOM      7  C   UNL     1       6.461   1.673  -3.688  0.00  0.00    +0.013 A 
ATOM      8  C   UNL     1       4.926   1.192  -1.782  0.00  0.00    +0.017 A 
ATOM      9  C   UNL     1       4.118   0.293  -1.168  0.00  0.00    +0.011 A 
ATOM     10  C   UNL     1       3.941  -0.995  -1.718  0.00  0.00    +0.251 A 
ATOM     11  O   UNL     1       3.207  -1.786  -1.152  0.00  0.00    -0.268 OA
ATOM     12  N   UNL     1       4.562  -1.371  -2.849  0.00  0.00    -0.322 N 
ATOM     13  H   UNL     1       4.414  -2.292  -3.210  0.00  0.00    +0.169 HD
BRANCH   2  15
ATOM     14  C   UNL     1       9.423   2.059  -5.038  0.00  0.00    +0.009 C 
ATOM     15  C   UNL     1       7.995   2.221  -5.565  0.00  0.00    +0.032 C 
ENDBRANCH   2  15
ENDBRANCH   1   9
BRANCH   1  21
ATOM     16  C   UNL     1       2.962  -0.019   2.381  0.00  0.00    -0.058 C 
ATOM     17  C   UNL     1       3.256  -1.104   3.421  0.00  0.00    +0.086 C 
ATOM     18  N   UNL     1       4.700  -1.144   3.688  0.00  0.00    -0.333 N 
ATOM     19  C   UNL     1       5.453  -1.431   2.459  0.00  0.00    +0.086 C 
ATOM     20  C   UNL     1       5.160  -0.347   1.420  0.00  0.00    -0.058 C 
ATOM     21  N   UNL     1       3.708  -0.332   1.143  0.00  0.00    +0.391 N 
ATOM     22  H   UNL     1       3.422  -1.259   0.807  0.00  0.00    -0.080 HD
BRANCH  18  23
ATOM     23  C   UNL     1       4.998  -2.074   4.687  0.00  0.00    +0.034 A 
ATOM     24  C   UNL     1       4.662  -3.411   4.515  0.00  0.00    +0.043 A 
ATOM     25  C   UNL     1       4.962  -4.330   5.503  0.00  0.00    +0.043 A 
ATOM     26  C   UNL     1       5.588  -3.917   6.667  0.00  0.00    +0.020 A 
ATOM     27  C   UNL     1       5.919  -2.586   6.841  0.00  0.00    +0.006 A 
ATOM     28  C   UNL     1       5.626  -1.664   5.856  0.00  0.00    -0.029 A 
ATOM     29  C   UNL     1       5.987  -0.213   6.048  0.00  0.00    +0.045 C 
ATOM     30 CL   UNL     1       4.548  -6.002   5.288  0.00  0.00    -0.083 Cl
ENDBRANCH  18  23
ENDBRANCH   1  21
BRANCH   1  31
ATOM     31  C   UNL     1       1.915   0.685  -0.144  0.00  0.00    +0.143 A 
ATOM     32  N   UNL     1       1.153  -0.352  -0.390  0.00  0.00    -0.115 NA
ATOM     33  N   UNL     1      -0.055   0.068  -0.544  0.00  0.00    -0.023 NA
ATOM     34  N   UNL     1      -0.084   1.347  -0.403  0.00  0.00    -0.043 NA
ATOM     35  N   UNL     1       1.112   1.766  -0.156  0.00  0.00    -0.225 N 
BRANCH  35  36
ATOM     36  C   UNL     1       1.518   3.155   0.070  0.00  0.00    +0.061 C 
ATOM     37  C   UNL     1       2.083   3.297   1.485  0.00  0.00    +0.036 C 
ATOM     38  C   UNL     1       2.592   3.544  -0.949  0.00  0.00    +0.036 C 
BRANCH  36  39
ATOM     39  C   UNL     1       0.306   4.074  -0.090  0.00  0.00    +0.026 C 
ATOM     40  C   UNL     1       0.731   5.524   0.145  0.00  0.00    +0.006 C 
ENDBRANCH  36  39
ENDBRANCH  35  36
ENDBRANCH   1  31
TORSDOF 7
