REMARK  Name = ZINC38570595
REMARK  12 active torsions:
REMARK  status: ('A' for Active; 'I' for Inactive)
REMARK    1  A    between atoms: CB_1  and  CA_2
REMARK    2  A    between atoms: CA_2  and  C_4
REMARK    3  A    between atoms: CA_2  and  N_7
REMARK    4  A    between atoms: C_8  and  CA_10
REMARK    5  A    between atoms: CA_10  and  CB_12
REMARK    6  A    between atoms: CA_10  and  N_16
REMARK    7  A    between atoms: CB_12  and  CG_13
REMARK    8  A    between atoms: CG_13  and  CD1_14
REMARK    9  A    between atoms: CG_13  and  CD2_15
REMARK   10  A    between atoms: C_17  and  C_19
REMARK   11  A    between atoms: C_21  and  C_34
REMARK   12  A    between atoms: C_21  and  C_35
REMARK                            x       y       z     vdW  Elec       q    Type
REMARK                         _______ _______ _______ _____ _____    ______ ____
ROOT
ATOM      1  N   LEU A   1      -0.323  -1.377   4.566  0.00  0.00    -0.302 N 
ATOM      2  C   UNK A   0      -0.066  -1.689   5.852  0.00  0.00    +0.236 C 
ATOM      3  O   UNK A   0       1.078  -1.708   6.254  0.00  0.00    -0.274 OA
ATOM      4  H   LEU A   1      -1.240  -1.291   4.261  0.00  0.00    +0.150 HD
ENDROOT
BRANCH   2   5
ATOM      5  C   UNK A   0      -1.201  -2.013   6.789  0.00  0.00    +0.179 C 
ATOM      6  C   UNK A   0      -1.885  -0.692   7.214  0.00  0.00    +0.040 C 
ATOM      7  S   UNK A   0      -1.480  -0.628   9.014  0.00  0.00    -0.125 S 
ATOM      8  C   UNK A   0      -0.139  -1.893   8.984  0.00  0.00    +0.167 C 
ATOM      9  N   UNK A   0      -0.672  -2.783   7.916  0.00  0.00    -0.269 N 
ATOM     10  C   UNK A   0      -0.499  -4.043   8.371  0.00  0.00    +0.249 C 
ATOM     11  O   UNK A   0      -0.447  -5.038   7.676  0.00  0.00    -0.270 OA
ATOM     12  C   UNK A   0      -0.383  -4.027   9.843  0.00  0.00    +0.043 A 
ATOM     13  C   UNK A   0      -0.156  -2.699  10.251  0.00  0.00    -0.005 A 
ATOM     14  C   UNK A   0      -0.010  -2.382  11.582  0.00  0.00    +0.007 A 
ATOM     15  C   UNK A   0      -0.061  -3.380  12.541  0.00  0.00    +0.000 A 
ATOM     16  C   UNK A   0      -0.255  -4.697  12.166  0.00  0.00    +0.001 A 
ATOM     17  C   UNK A   0      -0.424  -5.035  10.805  0.00  0.00    +0.013 A 
ATOM     18  C   UNK A   0      -1.280   0.502   6.473  0.00  0.00    +0.025 C 
ATOM     19  C   UNK A   0      -3.397  -0.762   6.995  0.00  0.00    +0.025 C 
ENDBRANCH   2   5
BRANCH   1  20
ATOM     20  CA  LEU A   1       0.783  -1.169   3.628  0.00  0.00    +0.159 C 
BRANCH  20  22
ATOM     21  N   LEU A   1       1.195   0.187   1.601  0.00  0.00    -0.301 N 
ATOM     22  C   LEU A   1       0.304  -0.345   2.461  0.00  0.00    +0.234 C 
ATOM     23  O   LEU A   1      -0.883  -0.159   2.296  0.00  0.00    -0.274 OA
ATOM     24  H   LEU A   1       2.146   0.078   1.758  0.00  0.00    +0.150 HD
BRANCH  21  26
ATOM     25  CB  LEU A   1       0.457   2.384   0.818  0.00  0.00    +0.040 C 
ATOM     26  CA  LEU A   1       0.727   0.929   0.427  0.00  0.00    +0.183 C 
BRANCH  26  27
ATOM     27  C   LEU A   1       1.781   0.885  -0.648  0.00  0.00    +0.376 C 
ATOM     28  O   LEU A   1       2.892   0.452  -0.395  0.00  0.00    -0.244 OA
ATOM     29  OXT LEU A   1       1.524   1.284  -1.771  0.00  0.00    -0.244 OA
ENDBRANCH  26  27
ENDBRANCH  21  26
ENDBRANCH  20  22
BRANCH  20  30
ATOM     30  CB  LEU A   1       1.285  -2.524   3.123  0.00  0.00    +0.034 C 
BRANCH  30  31
ATOM     31  CG  LEU A   1       2.462  -2.308   2.170  0.00  0.00    -0.015 C 
ATOM     32  CD1 LEU A   1       3.648  -1.732   2.946  0.00  0.00    +0.007 C 
ATOM     33  CD2 LEU A   1       2.863  -3.646   1.544  0.00  0.00    +0.007 C 
ENDBRANCH  30  31
ENDBRANCH  20  30
ENDBRANCH   1  20
TORSDOF 7
