REMARK  Name = ZINC08861798
REMARK  12 active torsions:
REMARK  status: ('A' for Active; 'I' for Inactive)
REMARK    1  A    between atoms: C_1  and  C_2
REMARK    2  A    between atoms: C_3  and  C_12
REMARK    3  A    between atoms: C_12  and  C_14
REMARK    4  A    between atoms: C_14  and  C_16
REMARK    5  A    between atoms: C_14  and  S_17
REMARK    6  A    between atoms: S_17  and  C_18
REMARK    7  A    between atoms: C_21  and  C_30
REMARK    8  A    between atoms: N_22  and  C_23
REMARK    9  A    between atoms: C_30  and  C_32
REMARK   10  A    between atoms: C_30  and  N_58
REMARK   11  A    between atoms: C_33  and  N_58
REMARK   12  A    between atoms: C_34  and  N_58
REMARK                            x       y       z     vdW  Elec       q    Type
REMARK                         _______ _______ _______ _____ _____    ______ ____
ROOT
ATOM      1  C   UNL     1      -0.403  -0.713   2.881  0.00  0.00    +0.197 A 
ATOM      2  N   UNL     1      -1.269  -1.268   2.066  0.00  0.00    -0.122 NA
ATOM      3  N   UNL     1      -1.413  -2.511   2.361  0.00  0.00    -0.135 NA
ATOM      4  C   UNL     1      -0.662  -2.820   3.380  0.00  0.00    +0.125 A 
ATOM      5  N   UNL     1       0.010  -1.686   3.749  0.00  0.00    -0.275 N 
ENDROOT
BRANCH   5   6
ATOM      6  C   UNL     1       0.931  -1.550   4.800  0.00  0.00    +0.050 A 
ATOM      7  C   UNL     1       2.135  -2.238   4.762  0.00  0.00    +0.029 A 
ATOM      8  C   UNL     1       3.042  -2.098   5.794  0.00  0.00    +0.040 A 
ATOM      9  C   UNL     1       2.745  -1.282   6.872  0.00  0.00    +0.124 A 
ATOM     10  C   UNL     1       1.542  -0.599   6.914  0.00  0.00    +0.040 A 
ATOM     11  C   UNL     1       0.635  -0.731   5.881  0.00  0.00    +0.029 A 
ATOM     12  F   UNL     1       3.631  -1.151   7.883  0.00  0.00    -0.205 F 
ENDBRANCH   5   6
BRANCH   4  13
ATOM     13  C   UNL     1      -0.553  -4.175   4.030  0.00  0.00    -0.003 C 
ATOM     14  C   UNL     1      -1.802  -4.438   4.874  0.00  0.00    -0.005 C 
BRANCH  13  17
ATOM     15  C   UNL     1      -0.209  -6.531   3.591  0.00  0.00    -0.096 C 
ATOM     16  C   UNL     1      -1.622  -5.220   2.126  0.00  0.00    -0.096 C 
ATOM     17  N   UNL     1      -0.414  -5.202   2.977  0.00  0.00    +0.382 N 
ATOM     18  H   UNL     1       0.401  -4.975   2.395  0.00  0.00    -0.082 HD
ENDBRANCH  13  17
ENDBRANCH   4  13
BRANCH   1  19
ATOM     19  S   UNL     1       0.122   0.969   2.865  0.00  0.00    -0.075 S 
BRANCH  19  20
ATOM     20  C   UNL     1      -0.847   1.587   1.467  0.00  0.00    +0.122 C 
ATOM     21  C   UNL     1      -0.387   0.896   0.182  0.00  0.00    +0.028 C 
BRANCH  20  22
ATOM     22  C   UNL     1      -0.646   3.075   1.336  0.00  0.00    +0.178 C 
ATOM     23  O   UNL     1       0.376   3.588   1.742  0.00  0.00    -0.291 OA
BRANCH  22  26
ATOM     24  C   UNL     1      -3.109   4.241   2.814  0.00  0.00    +0.064 C 
ATOM     25  C   UNL     1      -2.760   4.412   1.358  0.00  0.00    +0.024 A 
ATOM     26  C   UNL     1      -1.652   3.876   0.738  0.00  0.00    +0.046 A 
ATOM     27  C   UNL     1      -1.720   4.308  -0.672  0.00  0.00    +0.010 A 
ATOM     28  C   UNL     1      -0.917   4.094  -1.788  0.00  0.00    +0.011 A 
ATOM     29  C   UNL     1      -1.271   4.646  -3.000  0.00  0.00    +0.001 A 
ATOM     30  C   UNL     1      -2.425   5.408  -3.110  0.00  0.00    +0.002 A 
ATOM     31  C   UNL     1      -3.231   5.624  -2.014  0.00  0.00    +0.026 A 
ATOM     32  C   UNL     1      -2.890   5.074  -0.782  0.00  0.00    +0.047 A 
ATOM     33  N   UNL     1      -3.483   5.114   0.464  0.00  0.00    -0.358 N 
ATOM     34  H   UNL     1      -4.308   5.582   0.668  0.00  0.00    +0.166 HD
ENDBRANCH  22  26
ENDBRANCH  20  22
ENDBRANCH  19  20
ENDBRANCH   1  19
TORSDOF 7
