REMARK  Name = ZINC40740576
REMARK  10 active torsions:
REMARK  status: ('A' for Active; 'I' for Inactive)
REMARK    1  A    between atoms: C_1  and  C_2
REMARK    2  A    between atoms: C_2  and  O_3
REMARK    3  A    between atoms: O_3  and  C_4
REMARK    4  A    between atoms: C_6  and  C_21
REMARK    5  A    between atoms: C_9  and  O_10
REMARK    6  A    between atoms: O_10  and  C_11
REMARK    7  A    between atoms: C_11  and  C_12
REMARK    8  A    between atoms: C_21  and  N_22
REMARK    9  A    between atoms: N_22  and  C_23
REMARK   10  A    between atoms: C_23  and  C_24
REMARK                            x       y       z     vdW  Elec       q    Type
REMARK                         _______ _______ _______ _____ _____    ______ ____
ROOT
ATOM      1  C   UNL     1       0.777  -1.811  -1.336  0.00  0.00    +0.163 A 
ATOM      2  C   UNL     1       0.243  -2.669  -0.388  0.00  0.00    +0.051 A 
ATOM      3  C   UNL     1       0.352  -4.037  -0.554  0.00  0.00    -0.060 A 
ATOM      4  C   UNL     1       0.992  -4.553  -1.665  0.00  0.00    +0.021 A 
ATOM      5  C   UNL     1       1.527  -3.702  -2.616  0.00  0.00    +0.063 A 
ATOM      6  C   UNL     1       1.416  -2.329  -2.458  0.00  0.00    +0.176 A 
ATOM      7 BR   UNL     1       2.403  -4.412  -4.134  0.00  0.00    -0.046 Br
ENDROOT
BRANCH   1   8
ATOM      8  O   UNL     1       0.671  -0.465  -1.174  0.00  0.00    -0.489 OA
BRANCH   8  10
ATOM      9  C   UNL     1      -0.019   1.526   0.010  0.00  0.00    +0.048 C 
ATOM     10  C   UNL     1       0.002  -0.004   0.002  0.00  0.00    +0.226 C 
ENDBRANCH   8  10
ENDBRANCH   1   8
BRANCH   6  11
ATOM     11  O   UNL     1       1.936  -1.491  -3.394  0.00  0.00    -0.482 OA
BRANCH  11  12
ATOM     12  C   UNL     1       3.293  -1.080  -3.215  0.00  0.00    +0.269 C 
BRANCH  12  13
ATOM     13  C   UNL     1       3.692  -0.161  -4.341  0.00  0.00    +0.043 A 
ATOM     14  C   UNL     1       4.241  -0.683  -5.500  0.00  0.00    +0.131 A 
ATOM     15  C   UNL     1       4.608   0.162  -6.533  0.00  0.00    +0.039 A 
ATOM     16  C   UNL     1       4.425   1.526  -6.408  0.00  0.00    +0.004 A 
ATOM     17  C   UNL     1       3.877   2.048  -5.251  0.00  0.00    +0.020 A 
ATOM     18  C   UNL     1       3.505   1.204  -4.219  0.00  0.00    +0.050 A 
ATOM     19 CL   UNL     1       2.810   1.859  -2.770  0.00  0.00    -0.083 Cl
ATOM     20  F   UNL     1       4.420  -2.017  -5.621  0.00  0.00    -0.205 F 
ENDBRANCH  12  13
ENDBRANCH  11  12
ENDBRANCH   6  11
BRANCH   3  21
ATOM     21  C   UNL     1      -0.228  -4.968   0.479  0.00  0.00    -0.046 C 
BRANCH  21  22
ATOM     22  N   UNL     1      -1.619  -5.283   0.128  0.00  0.00    +0.384 N 
ATOM     23  H   UNL     1      -2.160  -4.432   0.101  0.00  0.00    -0.085 HD
ATOM     24  H   UNL     1      -1.646  -5.727  -0.777  0.00  0.00    -0.085 HD
BRANCH  22  25
ATOM     25  C   UNL     1      -2.185  -6.191   1.135  0.00  0.00    -0.046 C 
BRANCH  25  26
ATOM     26  C   UNL     1      -3.612  -6.513   0.775  0.00  0.00    -0.062 A 
ATOM     27  C   UNL     1      -4.656  -5.726   1.236  0.00  0.00    +0.021 A 
ATOM     28  C   UNL     1      -5.952  -6.053   0.885  0.00  0.00    +0.111 A 
ATOM     29  N   UNL     1      -6.201  -7.099   0.123  0.00  0.00    -0.263 NA
ATOM     30  C   UNL     1      -5.234  -7.871  -0.333  0.00  0.00    +0.111 A 
ATOM     31  C   UNL     1      -3.913  -7.602  -0.029  0.00  0.00    +0.021 A 
ENDBRANCH  25  26
ENDBRANCH  22  25
ENDBRANCH  21  22
ENDBRANCH   3  21
TORSDOF 9
