REMARK  Name = ZINC49932210
REMARK  5 active torsions:
REMARK  status: ('A' for Active; 'I' for Inactive)
REMARK    1  A    between atoms: C_1  and  C_2
REMARK    2  A    between atoms: C_3  and  C_8
REMARK    3  A    between atoms: C_4  and  C_7
REMARK    4  A    between atoms: C_8  and  S_9
REMARK    5  A    between atoms: S_9  and  C_10
REMARK                            x       y       z     vdW  Elec       q    Type
REMARK                         _______ _______ _______ _____ _____    ______ ____
ROOT
ATOM      1  C   UNL     1       1.516   0.418  -4.816  0.00  0.00    +0.191 A 
ATOM      2  N   UNL     1       2.599   0.668  -5.543  0.00  0.00    -0.207 NA
ATOM      3  C   UNL     1       2.523   1.084  -6.795  0.00  0.00    +0.129 A 
ATOM      4  C   UNL     1       1.245   1.272  -7.391  0.00  0.00    +0.047 A 
ATOM      5  C   UNL     1       0.904   1.715  -8.733  0.00  0.00    +0.021 A 
ATOM      6  C   UNL     1      -0.387   1.820  -9.079  0.00  0.00    +0.048 A 
ATOM      7  S   UNL     1      -1.256   1.324  -7.603  0.00  0.00    -0.077 S 
ATOM      8  C   UNL     1       0.140   0.988  -6.561  0.00  0.00    +0.114 A 
ATOM      9  N   UNL     1       0.299   0.571  -5.320  0.00  0.00    -0.215 NA
ATOM     10  N   UNL     1       3.675   1.333  -7.519  0.00  0.00    -0.343 N 
ATOM     11  H   UNL     1       4.544   1.203  -7.108  0.00  0.00    +0.144 HD
ATOM     12  H   UNL     1       3.614   1.638  -8.438  0.00  0.00    +0.144 HD
ENDROOT
BRANCH   1  13
ATOM     13  S   UNL     1       1.699  -0.133  -3.152  0.00  0.00    -0.081 S 
BRANCH  13  14
ATOM     14  C   UNL     1      -0.005  -0.348  -2.571  0.00  0.00    +0.117 C 
BRANCH  14  17
ATOM     15  C   UNL     1      -0.018   1.503   0.010  0.00  0.00    +0.069 C 
ATOM     16  C   UNL     1       0.002  -0.004   0.002  0.00  0.00    +0.085 A 
ATOM     17  C   UNL     1       0.008  -0.824  -1.141  0.00  0.00    +0.027 A 
ATOM     18  C   UNL     1       0.027  -2.108  -0.735  0.00  0.00    +0.138 A 
ATOM     19  O   UNL     1       0.034  -2.119   0.606  0.00  0.00    -0.359 OA
ATOM     20  N   UNL     1       0.023  -0.775   1.052  0.00  0.00    -0.083 NA
ATOM     21  C   UNL     1       0.039  -3.320  -1.631  0.00  0.00    +0.089 C 
ENDBRANCH  14  17
ENDBRANCH  13  14
ENDBRANCH   1  13
TORSDOF 3
