REMARK  Name = ZINC09715656
REMARK  5 active torsions:
REMARK  status: ('A' for Active; 'I' for Inactive)
REMARK    1  A    between atoms: C_4  and  C_7
REMARK    2  A    between atoms: C_13  and  C_15
REMARK    3  A    between atoms: C_19  and  N_21
REMARK    4  A    between atoms: N_21  and  S_22
REMARK    5  A    between atoms: S_22  and  C_25
REMARK                            x       y       z     vdW  Elec       q    Type
REMARK                         _______ _______ _______ _____ _____    ______ ____
ROOT
ATOM      1  C   UNL     1       1.166   2.090   0.026  0.00  0.00    +0.039 A 
ATOM      2  C   UNL     1      -0.021   1.391   0.253  0.00  0.00    +0.013 A 
ATOM      3  C   UNL     1      -0.018   0.012   0.267  0.00  0.00    +0.003 A 
ATOM      4  C   UNL     1       1.159  -0.684   0.058  0.00  0.00    +0.024 A 
ATOM      5  C   UNL     1       2.346   0.002  -0.169  0.00  0.00    +0.049 A 
ATOM      6  C   UNL     1       2.353   1.389  -0.185  0.00  0.00    +0.037 A 
ENDROOT
BRANCH   1  13
ATOM      7  C   UNL     1      -0.631   5.248  -3.049  0.00  0.00    -0.041 C 
ATOM      8  C   UNL     1      -1.173   4.125  -2.644  0.00  0.00    -0.004 C 
ATOM      9  C   UNL     1      -0.916   3.523  -1.295  0.00  0.00    +0.135 C 
ATOM     10  N   UNL     1       0.195   4.235  -0.647  0.00  0.00    -0.293 N 
ATOM     11  C   UNL     1       0.210   5.704  -0.751  0.00  0.00    +0.113 C 
ATOM     12  C   UNL     1       0.321   6.072  -2.233  0.00  0.00    +0.054 C 
ATOM     13  C   UNL     1       1.165   3.569   0.010  0.00  0.00    +0.247 C 
ATOM     14  O   UNL     1       2.040   4.184   0.589  0.00  0.00    -0.270 OA
BRANCH   7  18
ATOM     15  C   UNL     1      -1.636   6.649  -6.930  0.00  0.00    +0.000 A 
ATOM     16  C   UNL     1      -2.611   6.574  -5.952  0.00  0.00    +0.001 A 
ATOM     17  C   UNL     1      -2.291   6.119  -4.689  0.00  0.00    +0.008 A 
ATOM     18  C   UNL     1      -0.981   5.735  -4.400  0.00  0.00    -0.022 A 
ATOM     19  C   UNL     1      -0.001   5.819  -5.390  0.00  0.00    +0.008 A 
ATOM     20  C   UNL     1      -0.335   6.270  -6.650  0.00  0.00    +0.001 A 
ENDBRANCH   7  18
ENDBRANCH   1  13
BRANCH   5  21
ATOM     21  N   UNL     1       3.532  -0.705  -0.381  0.00  0.00    -0.216 N 
ATOM     22  H   UNL     1       4.346  -0.432   0.070  0.00  0.00    +0.174 HD
BRANCH  21  23
ATOM     23  S   UNL     1       3.547  -2.009  -1.401  0.00  0.00    +0.072 S 
ATOM     24  O   UNL     1       4.884  -2.490  -1.426  0.00  0.00    -0.150 OA
ATOM     25  O   UNL     1       2.450  -2.831  -1.027  0.00  0.00    -0.150 OA
BRANCH  23  26
ATOM     26  C   UNL     1       3.197  -1.408  -3.020  0.00  0.00    +0.112 A 
ATOM     27  C   UNL     1       1.889  -1.343  -3.463  0.00  0.00    +0.032 A 
ATOM     28  C   UNL     1       1.607  -0.867  -4.731  0.00  0.00    +0.051 A 
ATOM     29  C   UNL     1       2.641  -0.467  -5.560  0.00  0.00    +0.162 A 
ATOM     30  C   UNL     1       3.954  -0.537  -5.117  0.00  0.00    +0.164 A 
ATOM     31  C   UNL     1       4.233  -1.009  -3.846  0.00  0.00    +0.078 A 
ATOM     32  O   UNL     1       4.966  -0.139  -5.942  0.00  0.00    -0.488 OA
ATOM     33  C   UNL     1       5.197  -0.960  -7.088  0.00  0.00    +0.232 C 
ATOM     34  C   UNL     1       4.267  -0.572  -8.227  0.00  0.00    +0.082 C 
ATOM     35  C   UNL     1       2.806  -0.832  -7.894  0.00  0.00    +0.232 C 
ATOM     36  O   UNL     1       2.376   0.000  -6.815  0.00  0.00    -0.488 OA
ENDBRANCH  23  26
ENDBRANCH  21  23
ENDBRANCH   5  21
TORSDOF 5
