REMARK  Name = ZINC35450827
REMARK  14 active torsions:
REMARK  status: ('A' for Active; 'I' for Inactive)
REMARK    1  A    between atoms: C_1  and  C_2
REMARK    2  A    between atoms: C_2  and  C_3
REMARK    3  A    between atoms: C_2  and  C_4
REMARK    4  A    between atoms: C_4  and  C_5
REMARK    5  A    between atoms: C_5  and  S_6
REMARK    6  A    between atoms: S_6  and  C_7
REMARK    7  A    between atoms: C_14  and  C_26
REMARK    8  A    between atoms: C_20  and  C_24
REMARK    9  A    between atoms: C_20  and  C_25
REMARK   10  A    between atoms: C_28  and  O_35
REMARK   11  A    between atoms: C_29  and  O_34
REMARK   12  A    between atoms: C_30  and  O_32
REMARK   13  A    between atoms: O_32  and  C_33
REMARK   14  A    between atoms: O_35  and  C_36
REMARK                            x       y       z     vdW  Elec       q    Type
REMARK                         _______ _______ _______ _____ _____    ______ ____
ROOT
ATOM      1  C   UNL     1      -2.929  -4.430  -0.269  0.00  0.00    +0.171 A 
ATOM      2  N   UNL     1      -1.719  -4.943  -0.356  0.00  0.00    -0.208 NA
ATOM      3  C   UNL     1      -1.536  -6.262  -0.479  0.00  0.00    +0.135 A 
ATOM      4  C   UNL     1      -2.630  -7.109  -0.519  0.00  0.00    +0.069 A 
ATOM      5  C   UNL     1      -3.913  -6.559  -0.423  0.00  0.00    +0.258 A 
ATOM      6  O   UNL     1      -4.901  -7.276  -0.452  0.00  0.00    -0.267 OA
ATOM      7  N   UNL     1      -4.038  -5.221  -0.293  0.00  0.00    -0.302 N 
ATOM      8  C   UNL     1      -2.449  -8.590  -0.665  0.00  0.00    +0.093 C 
ATOM      9  C   UNL     1      -1.040  -9.007  -0.325  0.00  0.00    +0.024 C 
ATOM     10  C   UNL     1      -0.033  -8.110  -0.299  0.00  0.00    +0.017 C 
ATOM     11  N   UNL     1      -0.261  -6.787  -0.565  0.00  0.00    -0.302 N 
ATOM     12  C   UNL     1       1.380  -8.537   0.020  0.00  0.00    +0.058 C 
ATOM     13  C   UNL     1       1.352  -9.727   0.982  0.00  0.00    -0.023 C 
ATOM     14  C   UNL     1       0.563 -10.864   0.324  0.00  0.00    +0.086 C 
ATOM     15  C   UNL     1      -0.809 -10.364  -0.035  0.00  0.00    +0.162 C 
ATOM     16  O   UNL     1      -1.737 -11.147  -0.074  0.00  0.00    -0.292 OA
ATOM     17  C   UNL     1       0.671  -9.317   2.289  0.00  0.00    +0.011 C 
ATOM     18  C   UNL     1       2.781 -10.191   1.268  0.00  0.00    +0.011 C 
ATOM     19  H   UNL     1       0.479  -6.213  -0.816  0.00  0.00    +0.153 HD
ATOM     20  H   UNL     1      -4.919  -4.822  -0.222  0.00  0.00    +0.171 HD
ENDROOT
BRANCH   8  21
ATOM     21  C   UNL     1      -2.749  -8.986  -2.088  0.00  0.00    -0.028 A 
ATOM     22  C   UNL     1      -2.005  -8.452  -3.124  0.00  0.00    +0.054 A 
ATOM     23  C   UNL     1      -2.278  -8.813  -4.434  0.00  0.00    +0.165 A 
ATOM     24  C   UNL     1      -3.302  -9.712  -4.706  0.00  0.00    +0.201 A 
ATOM     25  C   UNL     1      -4.048 -10.247  -3.663  0.00  0.00    +0.165 A 
ATOM     26  C   UNL     1      -3.765  -9.885  -2.354  0.00  0.00    +0.054 A 
BRANCH  25  27
ATOM     27  O   UNL     1      -5.051 -11.127  -3.924  0.00  0.00    -0.491 OA
ATOM     28  C   UNL     1      -5.776 -11.636  -2.802  0.00  0.00    +0.277 C 
ENDBRANCH  25  27
BRANCH  24  29
ATOM     29  O   UNL     1      -3.574 -10.069  -5.992  0.00  0.00    -0.501 OA
ATOM     30  H   UNL     1      -3.080 -10.842  -6.298  0.00  0.00    +0.292 HD
ENDBRANCH  24  29
BRANCH  23  31
ATOM     31  O   UNL     1      -1.545  -8.287  -5.452  0.00  0.00    -0.491 OA
ATOM     32  C   UNL     1      -0.509  -7.369  -5.099  0.00  0.00    +0.277 C 
ENDBRANCH  23  31
ENDBRANCH   8  21
BRANCH   1  33
ATOM     33  S   UNL     1      -3.118  -2.686  -0.108  0.00  0.00    -0.088 S 
BRANCH  33  34
ATOM     34  C   UNL     1      -1.416  -2.058  -0.121  0.00  0.00    +0.077 C 
BRANCH  34  35
ATOM     35  C   UNL     1      -1.433  -0.534   0.013  0.00  0.00    +0.014 C 
BRANCH  35  37
ATOM     36  C   UNL     1      -0.019   1.526   0.010  0.00  0.00    +0.007 C 
ATOM     37  C   UNL     1       0.002  -0.004   0.002  0.00  0.00    -0.016 C 
ATOM     38  C   UNL     1       0.742  -0.511   1.242  0.00  0.00    +0.007 C 
ENDBRANCH  35  37
ENDBRANCH  34  35
ENDBRANCH  33  34
ENDBRANCH   1  33
TORSDOF 8
