REMARK  Name = ZINC40110977
REMARK  16 active torsions:
REMARK  status: ('A' for Active; 'I' for Inactive)
REMARK    1  A    between atoms: C_1  and  C_2
REMARK    2  A    between atoms: C_2  and  C_3
REMARK    3  A    between atoms: C_3  and  C_4
REMARK    4  A    between atoms: C_4  and  N_5
REMARK    5  A    between atoms: C_6  and  C_27
REMARK    6  A    between atoms: C_8  and  C_13
REMARK    7  A    between atoms: C_13  and  C_15
REMARK    8  A    between atoms: C_18  and  S_21
REMARK    9  A    between atoms: S_21  and  N_24
REMARK   10  A    between atoms: N_24  and  C_25
REMARK   11  A    between atoms: N_24  and  C_26
REMARK   12  A    between atoms: C_30  and  O_35
REMARK   13  A    between atoms: C_31  and  O_33
REMARK   14  A    between atoms: O_33  and  C_34
REMARK   15  A    between atoms: O_35  and  C_36
REMARK   16  A    between atoms: C_36  and  C_37
REMARK                            x       y       z     vdW  Elec       q    Type
REMARK                         _______ _______ _______ _____ _____    ______ ____
ROOT
ATOM      1  N   UNL     1       2.285  -2.054  -2.985  0.00  0.00    -0.284 N 
ATOM      2  C   UNL     1       1.656  -2.596  -4.196  0.00  0.00    +0.145 C 
ATOM      3  C   UNL     1       2.780  -3.131  -5.051  0.00  0.00    +0.076 C 
ATOM      4  C   UNL     1       3.929  -2.904  -4.373  0.00  0.00    +0.249 C 
ATOM      5  C   UNL     1       3.614  -2.230  -3.095  0.00  0.00    +0.288 C 
ATOM      6  O   UNL     1       4.434  -1.889  -2.266  0.00  0.00    -0.266 OA
ATOM      7  O   UNL     1       5.170  -3.236  -4.799  0.00  0.00    -0.282 OA
ENDROOT
BRANCH   2   8
ATOM      8  C   UNL     1       0.706  -3.708  -3.832  0.00  0.00    -0.019 A 
ATOM      9  C   UNL     1       1.091  -4.675  -2.922  0.00  0.00    +0.009 A 
ATOM     10  C   UNL     1       0.223  -5.696  -2.586  0.00  0.00    +0.050 A 
ATOM     11  C   UNL     1      -1.037  -5.753  -3.160  0.00  0.00    +0.162 A 
ATOM     12  C   UNL     1      -1.425  -4.779  -4.075  0.00  0.00    +0.162 A 
ATOM     13  C   UNL     1      -0.552  -3.755  -4.405  0.00  0.00    +0.055 A 
BRANCH  12  14
ATOM     14  O   UNL     1      -2.660  -4.830  -4.641  0.00  0.00    -0.491 OA
ATOM     15  C   UNL     1      -2.953  -3.859  -5.649  0.00  0.00    +0.277 C 
ENDBRANCH  12  14
BRANCH  11  16
ATOM     16  O   UNL     1      -1.892  -6.757  -2.830  0.00  0.00    -0.484 OA
BRANCH  16  17
ATOM     17  C   UNL     1      -1.426  -7.722  -1.884  0.00  0.00    +0.256 C 
BRANCH  17  18
ATOM     18  C   UNL     1      -2.501  -8.750  -1.644  0.00  0.00    +0.006 C 
ATOM     19  C   UNL     1      -2.195 -10.024  -1.621  0.00  0.00    +0.007 C 
ENDBRANCH  17  18
ENDBRANCH  16  17
ENDBRANCH  11  16
ENDBRANCH   2   8
BRANCH   3  20
ATOM     20  C   UNL     1       2.651  -3.772  -6.363  0.00  0.00    +0.195 C 
ATOM     21  O   UNL     1       2.942  -4.946  -6.498  0.00  0.00    -0.287 OA
BRANCH  20  22
ATOM     22  C   UNL     1       2.169  -2.992  -7.523  0.00  0.00    +0.022 A 
ATOM     23  C   UNL     1       1.955  -1.617  -7.404  0.00  0.00    +0.013 A 
ATOM     24  C   UNL     1       1.505  -0.896  -8.490  0.00  0.00    +0.029 A 
ATOM     25  C   UNL     1       1.265  -1.531  -9.695  0.00  0.00    +0.105 A 
ATOM     26  C   UNL     1       1.475  -2.893  -9.821  0.00  0.00    +0.029 A 
ATOM     27  C   UNL     1       1.931  -3.626  -8.744  0.00  0.00    +0.013 A 
BRANCH  25  28
ATOM     28  S   UNL     1       0.690  -0.602 -11.078  0.00  0.00    +0.060 S 
ATOM     29  O   UNL     1       0.126  -1.535 -11.988  0.00  0.00    -0.153 OA
ATOM     30  O   UNL     1      -0.049   0.492 -10.552  0.00  0.00    -0.153 OA
BRANCH  28  31
ATOM     31  N   UNL     1       2.022   0.041 -11.823  0.00  0.00    -0.183 NA
ATOM     32  C   UNL     1       2.700  -0.707 -12.885  0.00  0.00    +0.131 C 
ATOM     33  C   UNL     1       2.521   1.359 -11.422  0.00  0.00    +0.131 C 
ENDBRANCH  28  31
ENDBRANCH  25  28
ENDBRANCH  20  22
ENDBRANCH   3  20
BRANCH   1  34
ATOM     34  C   UNL     1       1.589  -1.426  -1.860  0.00  0.00    +0.109 C 
BRANCH  34  35
ATOM     35  C   UNL     1       1.465   0.078  -2.112  0.00  0.00    +0.019 C 
BRANCH  35  37
ATOM     36  C   UNL     1       0.614   2.238  -1.188  0.00  0.00    +0.004 C 
ATOM     37  C   UNL     1       0.738   0.734  -0.936  0.00  0.00    -0.002 C 
ENDBRANCH  35  37
ENDBRANCH  34  35
ENDBRANCH   1  34
TORSDOF 12
