REMARK  Name = ZINC45774321
REMARK  5 active torsions:
REMARK  status: ('A' for Active; 'I' for Inactive)
REMARK    1  A    between atoms: C_1  and  C_2
REMARK    2  A    between atoms: C_5  and  C_7
REMARK    3  A    between atoms: C_12  and  N_13
REMARK    4  A    between atoms: N_13  and  S_14
REMARK    5  A    between atoms: S_14  and  C_17
REMARK                            x       y       z     vdW  Elec       q    Type
REMARK                         _______ _______ _______ _____ _____    ______ ____
ROOT
ATOM      1  N   UNL     1       0.065  -4.650  -0.580  0.00  0.00    -0.097 NA
ENDROOT
BRANCH   1   7
ATOM      2  C   UNL     1       0.054  -3.301   1.433  0.00  0.00    +0.063 A 
ATOM      3  C   UNL     1       0.052  -3.222   2.826  0.00  0.00    +0.015 A 
ATOM      4  C   UNL     1       0.070  -4.375   3.581  0.00  0.00    +0.001 A 
ATOM      5  C   UNL     1       0.091  -5.615   2.964  0.00  0.00    +0.002 A 
ATOM      6  C   UNL     1       0.093  -5.708   1.586  0.00  0.00    +0.027 A 
ATOM      7  C   UNL     1       0.068  -4.558   0.810  0.00  0.00    +0.087 A 
BRANCH   2  12
ATOM      8  C   UNL     1      -0.018   1.503   0.010  0.00  0.00    +0.111 C 
ATOM      9  C   UNL     1       0.002  -0.004   0.002  0.00  0.00    +0.215 A 
ATOM     10  N   UNL     1       0.008  -0.768  -1.054  0.00  0.00    -0.112 NA
ATOM     11  N   UNL     1       0.027  -2.002  -0.693  0.00  0.00    -0.107 NA
ATOM     12  C   UNL     1       0.033  -2.069   0.619  0.00  0.00    +0.250 A 
ATOM     13  O   UNL     1       0.023  -0.804   1.083  0.00  0.00    -0.420 OA
ENDBRANCH   2  12
ENDBRANCH   1   7
BRANCH   1  14
ATOM     14  S   UNL     1       0.082  -6.136  -1.311  0.00  0.00    +0.094 S 
ATOM     15  O   UNL     1       1.337  -6.726  -1.000  0.00  0.00    -0.148 OA
ATOM     16  O   UNL     1      -1.154  -6.760  -0.991  0.00  0.00    -0.148 OA
BRANCH  14  17
ATOM     17  C   UNL     1       0.072  -5.860  -3.051  0.00  0.00    +0.148 A 
ATOM     18  C   UNL     1       1.158  -6.242  -3.817  0.00  0.00    +0.035 A 
ATOM     19  C   UNL     1       1.152  -6.027  -5.182  0.00  0.00    +0.043 A 
ATOM     20  C   UNL     1       0.059  -5.429  -5.785  0.00  0.00    +0.161 A 
ATOM     21  C   UNL     1      -1.030  -5.045  -5.019  0.00  0.00    +0.195 A 
ATOM     22  C   UNL     1      -1.025  -5.266  -3.651  0.00  0.00    +0.188 A 
ATOM     23  F   UNL     1      -2.088  -4.899  -2.902  0.00  0.00    -0.200 F 
ATOM     24  F   UNL     1      -2.097  -4.460  -5.606  0.00  0.00    -0.199 F 
ATOM     25  F   UNL     1       0.055  -5.218  -7.120  0.00  0.00    -0.202 F 
ENDBRANCH  14  17
ENDBRANCH   1  14
TORSDOF 4
