REMARK  Name = ZINC35744225
REMARK  12 active torsions:
REMARK  status: ('A' for Active; 'I' for Inactive)
REMARK    1  A    between atoms: C_4  and  C_7
REMARK    2  A    between atoms: C_7  and  N_8
REMARK    3  A    between atoms: N_8  and  C_9
REMARK    4  A    between atoms: N_8  and  C_15
REMARK    5  A    between atoms: C_9  and  C_10
REMARK    6  A    between atoms: C_15  and  C_16
REMARK    7  A    between atoms: C_19  and  C_21
REMARK    8  A    between atoms: C_21  and  C_22
REMARK    9  A    between atoms: C_21  and  C_27
REMARK   10  A    between atoms: C_21  and  O_32
REMARK   11  A    between atoms: C_22  and  C_23
REMARK   12  A    between atoms: C_27  and  C_28
REMARK                            x       y       z     vdW  Elec       q    Type
REMARK                         _______ _______ _______ _____ _____    ______ ____
ROOT
ATOM      1  C   UNL     1       4.706  -0.827   2.821  0.00  0.00    +0.089 A 
ATOM      2  C   UNL     1       4.725  -1.824   3.723  0.00  0.00    +0.043 A 
ATOM      3  C   UNL     1       5.433  -1.344   4.849  0.00  0.00    +0.048 A 
ATOM      4  C   UNL     1       5.804  -0.083   4.567  0.00  0.00    +0.137 A 
ATOM      5  O   UNL     1       5.366   0.224   3.335  0.00  0.00    -0.464 OA
ENDROOT
BRANCH   1   6
ATOM      6  C   UNL     1       4.059  -0.881   1.460  0.00  0.00    -0.002 C 
BRANCH   6   7
ATOM      7  N   UNL     1       2.634  -0.547   1.582  0.00  0.00    +0.392 N 
ATOM      8  H   UNL     1       2.204  -1.153   2.264  0.00  0.00    -0.080 HD
BRANCH   7   9
ATOM      9  C   UNL     1       2.494   0.851   2.011  0.00  0.00    -0.042 C 
BRANCH   9  13
ATOM     10  C   UNL     1      -1.630   1.725   2.701  0.00  0.00    +0.000 A 
ATOM     11  C   UNL     1      -0.843   1.244   3.731  0.00  0.00    +0.000 A 
ATOM     12  C   UNL     1       0.491   0.961   3.508  0.00  0.00    +0.002 A 
ATOM     13  C   UNL     1       1.039   1.159   2.254  0.00  0.00    -0.064 A 
ATOM     14  C   UNL     1       0.252   1.638   1.224  0.00  0.00    +0.002 A 
ATOM     15  C   UNL     1      -1.082   1.922   1.448  0.00  0.00    +0.000 A 
ENDBRANCH   9  13
ENDBRANCH   7   9
BRANCH   7  16
ATOM     16  C   UNL     1       1.976  -0.728   0.281  0.00  0.00    -0.002 C 
BRANCH  16  17
ATOM     17  C   UNL     1       1.996  -2.188  -0.092  0.00  0.00    +0.089 A 
ATOM     18  C   UNL     1       1.015  -3.076   0.151  0.00  0.00    +0.042 A 
ATOM     19  C   UNL     1       1.450  -4.318  -0.365  0.00  0.00    +0.041 A 
ATOM     20  C   UNL     1       2.670  -4.115  -0.892  0.00  0.00    +0.195 A 
ATOM     21  O   UNL     1       2.994  -2.822  -0.730  0.00  0.00    -0.470 OA
ENDBRANCH  16  17
ENDBRANCH   7  16
ENDBRANCH   6   7
ENDBRANCH   1   6
BRANCH   4  22
ATOM     22  C   UNL     1       6.584   0.831   5.478  0.00  0.00    +0.124 C 
BRANCH  22  23
ATOM     23  O   UNL     1       7.445   0.051   6.311  0.00  0.00    -0.381 OA
ATOM     24  H   UNL     1       8.087  -0.481   5.822  0.00  0.00    +0.211 HD
ENDBRANCH  22  23
BRANCH  22  25
ATOM     25  C   UNL     1       7.423   1.794   4.636  0.00  0.00    +0.046 C 
BRANCH  25  26
ATOM     26  C   UNL     1       8.412   0.998   3.783  0.00  0.00    -0.008 C 
ATOM     27  C   UNL     1       9.747   0.713   4.491  0.00  0.00    +0.003 C 
ATOM     28  C   UNL     1      10.432   0.997   3.144  0.00  0.00    +0.001 C 
ATOM     29  C   UNL     1       9.211   1.864   2.795  0.00  0.00    +0.003 C 
ENDBRANCH  25  26
ENDBRANCH  22  25
BRANCH  22  30
ATOM     30  C   UNL     1       5.614   1.629   6.352  0.00  0.00    +0.046 C 
BRANCH  30  31
ATOM     31  C   UNL     1       6.407   2.506   7.323  0.00  0.00    -0.008 C 
ATOM     32  C   UNL     1       6.766   1.797   8.640  0.00  0.00    +0.003 C 
ATOM     33  C   UNL     1       6.449   3.124   9.349  0.00  0.00    +0.001 C 
ATOM     34  C   UNL     1       5.527   3.447   8.162  0.00  0.00    +0.003 C 
ENDBRANCH  30  31
ENDBRANCH  22  30
ENDBRANCH   4  22
TORSDOF 12
