REMARK  Name = ZINC63807644
REMARK  8 active torsions:
REMARK  status: ('A' for Active; 'I' for Inactive)
REMARK    1  A    between atoms: C_1  and  O_2
REMARK    2  A    between atoms: O_2  and  C_3
REMARK    3  A    between atoms: C_9  and  C_12
REMARK    4  A    between atoms: C_12  and  C_13
REMARK    5  A    between atoms: C_13  and  N_14
REMARK    6  A    between atoms: C_15  and  C_30
REMARK    7  A    between atoms: C_19  and  C_25
REMARK    8  A    between atoms: C_33  and  O_36
REMARK                            x       y       z     vdW  Elec       q    Type
REMARK                         _______ _______ _______ _____ _____    ______ ____
ROOT
ATOM      1  N   UNL     1       1.793  -6.755  -0.031  0.00  0.00    -0.288 N 
ATOM      2  C   UNL     1       1.936  -8.174   0.382  0.00  0.00    +0.122 C 
ATOM      3  C   UNL     1       0.842  -8.858  -0.456  0.00  0.00    +0.124 C 
ATOM      4  C   UNL     1       1.167 -10.252  -0.909  0.00  0.00    +0.117 C 
ATOM      5  N   UNL     1       1.202 -10.171  -2.232  0.00  0.00    -0.149 NA
ATOM      6  N   UNL     1       1.092  -8.978  -2.682  0.00  0.00    -0.148 NA
ATOM      7  C   UNL     1       1.019  -8.053  -1.756  0.00  0.00    +0.136 C 
ATOM      8  C   UNL     1       1.189  -6.694  -1.246  0.00  0.00    +0.264 C 
ATOM      9  O   UNL     1       0.849  -5.675  -1.818  0.00  0.00    -0.269 OA
ENDROOT
BRANCH   2  10
ATOM     10  C   UNL     1       3.300  -8.705   0.024  0.00  0.00    -0.026 A 
ATOM     11  C   UNL     1       3.896  -8.330  -1.167  0.00  0.00    +0.009 A 
ATOM     12  C   UNL     1       5.146  -8.815  -1.498  0.00  0.00    +0.046 A 
ATOM     13  C   UNL     1       5.804  -9.679  -0.634  0.00  0.00    +0.117 A 
ATOM     14  C   UNL     1       5.205 -10.053   0.560  0.00  0.00    +0.046 A 
ATOM     15  C   UNL     1       3.956  -9.561   0.888  0.00  0.00    +0.009 A 
BRANCH  13  16
ATOM     16  O   UNL     1       7.034 -10.159  -0.958  0.00  0.00    -0.507 OA
ATOM     17  H   UNL     1       7.765  -9.607  -0.647  0.00  0.00    +0.292 HD
ENDBRANCH  13  16
ENDBRANCH   2  10
BRANCH   4  18
ATOM     18  C   UNL     1       1.385 -11.389  -0.110  0.00  0.00    +0.151 A 
ATOM     19  C   UNL     1       1.689 -12.662  -0.564  0.00  0.00    +0.051 A 
ATOM     20  C   UNL     1       1.820 -13.470   0.572  0.00  0.00    +0.042 A 
ATOM     21  C   UNL     1       1.597 -12.683   1.651  0.00  0.00    +0.196 A 
ATOM     22  O   UNL     1       1.341 -11.435   1.239  0.00  0.00    -0.462 OA
ENDBRANCH   4  18
BRANCH   1  23
ATOM     23  C   UNL     1       2.230  -5.598   0.754  0.00  0.00    +0.113 C 
BRANCH  23  24
ATOM     24  C   UNL     1       1.092  -5.144   1.671  0.00  0.00    +0.052 C 
BRANCH  24  31
ATOM     25  C   UNL     1       0.626  -0.619   1.042  0.00  0.00    +0.121 A 
ATOM     26  C   UNL     1       1.202   0.173   2.051  0.00  0.00    +0.047 A 
ATOM     27  C   UNL     1       1.839  -0.358   3.116  0.00  0.00    +0.029 A 
ATOM     28  C   UNL     1       1.947  -1.815   3.248  0.00  0.00    +0.043 A 
ATOM     29  N   UNL     1       2.500  -2.573   4.161  0.00  0.00    -0.380 N 
ATOM     30  C   UNL     1       2.308  -3.978   3.782  0.00  0.00    +0.144 C 
ATOM     31  C   UNL     1       1.541  -3.954   2.479  0.00  0.00    -0.040 C 
ATOM     32  C   UNL     1       1.340  -2.650   2.185  0.00  0.00    +0.002 A 
ATOM     33  C   UNL     1       0.667  -1.972   1.072  0.00  0.00    +0.055 A 
ATOM     34  H   UNL     1       2.961  -2.259   4.955  0.00  0.00    +0.160 HD
BRANCH  25  36
ATOM     35  C   UNL     1      -0.017   1.425   0.010  0.00  0.00    +0.277 C 
ATOM     36  O   UNL     1       0.002  -0.004   0.002  0.00  0.00    -0.495 OA
ENDBRANCH  25  36
ENDBRANCH  24  31
ENDBRANCH  23  24
ENDBRANCH   1  23
TORSDOF 7
