REMARK  Name = ZINC13659666
REMARK  5 active torsions:
REMARK  status: ('A' for Active; 'I' for Inactive)
REMARK    1  A    between atoms: C_1  and  C_2
REMARK    2  A    between atoms: C_5  and  N_8
REMARK    3  A    between atoms: C_13  and  C_15
REMARK    4  A    between atoms: N_17  and  C_18
REMARK    5  A    between atoms: N_26  and  C_29
REMARK                            x       y       z     vdW  Elec       q    Type
REMARK                         _______ _______ _______ _____ _____    ______ ____
ROOT
ATOM      1  N   UNL     1       0.037  -4.157  -0.023  0.00  0.00    -0.236 N 
ATOM      2  C   UNL     1       0.154  -5.068   1.117  0.00  0.00    +0.217 C 
ATOM      3  C   UNL     1      -0.622  -6.297   0.624  0.00  0.00    +0.073 C 
ATOM      4  H   UNL     1       0.219  -4.825  -2.038  0.00  0.00    +0.170 HD
ATOM      5  C   UNL     1      -0.584  -6.233  -0.714  0.00  0.00    +0.117 C 
ATOM      6  N   UNL     1      -0.052  -5.034  -1.131  0.00  0.00    -0.258 N 
ATOM      7  C   UNL     1      -1.113  -6.848   1.885  0.00  0.00    +0.258 C 
ATOM      8  O   UNL     1      -1.348  -8.020   2.113  0.00  0.00    -0.269 OA
ATOM      9  N   UNL     1      -1.258  -5.822   2.752  0.00  0.00    -0.205 N 
ATOM     10  C   UNL     1      -0.661  -4.671   2.322  0.00  0.00    +0.253 C 
ATOM     11  O   UNL     1      -0.764  -3.562   2.800  0.00  0.00    -0.272 OA
ENDROOT
BRANCH   1  16
ATOM     12  C   UNL     1      -0.060   1.513  -0.005  0.00  0.00    +0.044 C 
ATOM     13  C   UNL     1      -0.034   0.006  -0.010  0.00  0.00    -0.050 A 
ATOM     14  C   UNL     1       0.581  -0.677   1.023  0.00  0.00    +0.005 A 
ATOM     15  C   UNL     1       0.606  -2.058   1.022  0.00  0.00    +0.025 A 
ATOM     16  C   UNL     1       0.013  -2.761  -0.019  0.00  0.00    +0.049 A 
ATOM     17  C   UNL     1      -0.604  -2.072  -1.055  0.00  0.00    +0.025 A 
ATOM     18  C   UNL     1      -0.631  -0.691  -1.045  0.00  0.00    +0.005 A 
ENDBRANCH   1  16
BRANCH   9  19
ATOM     19  C   UNL     1      -1.940  -5.927   3.972  0.00  0.00    +0.044 A 
ATOM     20  C   UNL     1      -2.049  -4.822   4.805  0.00  0.00    +0.025 A 
ATOM     21  C   UNL     1      -2.722  -4.929   6.007  0.00  0.00    +0.017 A 
ATOM     22  C   UNL     1      -3.285  -6.136   6.381  0.00  0.00    +0.018 A 
ATOM     23  C   UNL     1      -3.177  -7.239   5.553  0.00  0.00    +0.017 A 
ATOM     24  C   UNL     1      -2.511  -7.136   4.347  0.00  0.00    +0.025 A 
ATOM     25 BR   UNL     1      -4.204  -6.279   8.027  0.00  0.00    -0.050 Br
ENDBRANCH   9  19
BRANCH   5  26
ATOM     26  C   UNL     1      -1.056  -7.306  -1.622  0.00  0.00    +0.264 C 
ATOM     27  O   UNL     1      -1.516  -8.332  -1.162  0.00  0.00    -0.268 OA
ATOM     28  N   UNL     1      -0.974  -7.143  -2.957  0.00  0.00    -0.280 N 
ATOM     29  H   UNL     1      -0.536  -6.359  -3.324  0.00  0.00    +0.155 HD
BRANCH  28  30
ATOM     30  C   UNL     1      -1.520  -8.103  -3.813  0.00  0.00    +0.034 A 
ATOM     31  C   UNL     1      -2.685  -8.772  -3.457  0.00  0.00    +0.023 A 
ATOM     32  C   UNL     1      -3.222  -9.720  -4.305  0.00  0.00    +0.002 A 
ATOM     33  C   UNL     1      -2.601 -10.005  -5.507  0.00  0.00    +0.000 A 
ATOM     34  C   UNL     1      -1.442  -9.341  -5.865  0.00  0.00    +0.002 A 
ATOM     35  C   UNL     1      -0.903  -8.388  -5.024  0.00  0.00    +0.023 A 
ENDBRANCH  28  30
ENDBRANCH   5  26
TORSDOF 4
