REMARK  Name = ZINC63165376
REMARK  9 active torsions:
REMARK  status: ('A' for Active; 'I' for Inactive)
REMARK    1  A    between atoms: C_1  and  C_2
REMARK    2  A    between atoms: C_2  and  O_3
REMARK    3  A    between atoms: O_3  and  C_4
REMARK    4  A    between atoms: C_4  and  C_6
REMARK    5  A    between atoms: C_7  and  C_16
REMARK    6  A    between atoms: C_16  and  S_17
REMARK    7  A    between atoms: S_17  and  C_18
REMARK    8  A    between atoms: C_21  and  C_26
REMARK    9  A    between atoms: N_22  and  C_23
REMARK                            x       y       z     vdW  Elec       q    Type
REMARK                         _______ _______ _______ _____ _____    ______ ____
ROOT
ATOM      1  C   UNL     1      -1.091  -6.323  -1.139  0.00  0.00    +0.192 A 
ATOM      2  N   UNL     1      -0.289  -6.870  -0.238  0.00  0.00    -0.122 NA
ATOM      3  N   UNL     1      -0.796  -7.968   0.197  0.00  0.00    -0.129 NA
ATOM      4  C   UNL     1      -1.957  -8.193  -0.401  0.00  0.00    +0.163 A 
ATOM      5  N   UNL     1      -2.175  -7.137  -1.268  0.00  0.00    -0.299 N 
ENDROOT
BRANCH   4   6
ATOM      6  C   UNL     1      -2.807  -9.290  -0.191  0.00  0.00    +0.025 C 
ATOM      7  C   UNL     1      -2.607 -10.355   0.687  0.00  0.00    +0.006 A 
ATOM      8  C   UNL     1      -1.566 -10.665   1.589  0.00  0.00    +0.010 A 
ATOM      9  C   UNL     1      -1.637 -11.797   2.335  0.00  0.00    +0.001 A 
ATOM     10  C   UNL     1      -2.720 -12.673   2.236  0.00  0.00    +0.002 A 
ATOM     11  C   UNL     1      -3.755 -12.438   1.391  0.00  0.00    +0.026 A 
ATOM     12  C   UNL     1      -3.752 -11.275   0.579  0.00  0.00    +0.043 A 
ATOM     13  N   UNL     1      -4.621 -10.827  -0.306  0.00  0.00    -0.380 N 
ATOM     14  C   UNL     1      -4.135  -9.561  -0.864  0.00  0.00    +0.152 C 
ATOM     15  H   UNL     1      -5.453 -11.264  -0.546  0.00  0.00    +0.160 HD
ENDBRANCH   4   6
BRANCH   5  16
ATOM     16  C   UNL     1      -3.330  -6.938  -2.147  0.00  0.00    +0.091 C 
ATOM     17  C   UNL     1      -3.183  -5.931  -3.290  0.00  0.00    +0.027 C 
ATOM     18  C   UNL     1      -4.048  -5.589  -2.075  0.00  0.00    +0.027 C 
ENDBRANCH   5  16
BRANCH   1  19
ATOM     19  S   UNL     1      -0.811  -4.814  -2.005  0.00  0.00    -0.081 S 
BRANCH  19  20
ATOM     20  C   UNL     1       0.791  -4.239  -1.378  0.00  0.00    +0.114 C 
BRANCH  20  22
ATOM     21  C   UNL     1       0.771  -1.757  -1.492  0.00  0.00    +0.101 A 
ATOM     22  C   UNL     1       1.154  -2.939  -2.046  0.00  0.00    -0.006 A 
ATOM     23  C   UNL     1       1.891  -2.945  -3.244  0.00  0.00    +0.029 A 
ATOM     24  C   UNL     1       2.378  -4.065  -3.970  0.00  0.00    +0.132 A 
ATOM     25  C   UNL     1       3.087  -3.889  -5.130  0.00  0.00    +0.039 A 
ATOM     26  C   UNL     1       3.351  -2.622  -5.633  0.00  0.00    +0.004 A 
ATOM     27  C   UNL     1       2.893  -1.511  -4.955  0.00  0.00    +0.016 A 
ATOM     28  C   UNL     1       2.178  -1.670  -3.786  0.00  0.00    +0.023 A 
ATOM     29  S   UNL     1       1.421  -0.551  -2.635  0.00  0.00    -0.081 S 
ATOM     30  F   UNL     1       2.142  -5.314  -3.512  0.00  0.00    -0.205 F 
BRANCH  21  31
ATOM     31  C   UNL     1       0.005  -1.531  -0.260  0.00  0.00    +0.346 C 
ATOM     32  O   UNL     1      -0.365  -2.477   0.408  0.00  0.00    -0.244 OA
BRANCH  31  33
ATOM     33  O   UNL     1      -0.288  -0.274   0.130  0.00  0.00    -0.461 OA
BRANCH  33  35
ATOM     34  C   UNL     1      -1.269   1.359   1.618  0.00  0.00    +0.048 C 
ATOM     35  C   UNL     1      -1.036  -0.127   1.339  0.00  0.00    +0.229 C 
ENDBRANCH  33  35
ENDBRANCH  31  33
ENDBRANCH  21  31
ENDBRANCH  20  22
ENDBRANCH  19  20
ENDBRANCH   1  19
TORSDOF 8
