REMARK  Name = ZINC39449361
REMARK  6 active torsions:
REMARK  status: ('A' for Active; 'I' for Inactive)
REMARK    1  A    between atoms: C_1  and  S_2
REMARK    2  A    between atoms: S_2  and  N_3
REMARK    3  A    between atoms: C_11  and  C_14
REMARK    4  A    between atoms: C_14  and  C_15
REMARK    5  A    between atoms: C_22  and  C_27
REMARK    6  A    between atoms: C_32  and  O_33
REMARK                            x       y       z     vdW  Elec       q    Type
REMARK                         _______ _______ _______ _____ _____    ______ ____
ROOT
ATOM      1  N   UNL     1      -1.147  -0.320   0.308  0.00  0.00    -0.245 N 
ATOM      2  C   UNL     1      -1.934  -0.527   1.434  0.00  0.00    +0.122 A 
ATOM      3  C   UNL     1      -3.260  -0.897   1.315  0.00  0.00    +0.082 A 
ATOM      4  C   UNL     1      -3.849  -1.084  -0.018  0.00  0.00    +0.099 A 
ATOM      5  C   UNL     1      -3.027  -0.869  -1.145  0.00  0.00    +0.068 A 
ATOM      6  C   UNL     1      -1.629  -0.467  -0.940  0.00  0.00    +0.271 A 
ATOM      7  O   UNL     1      -0.905  -0.270  -1.898  0.00  0.00    -0.266 OA
ATOM      8  C   UNL     1      -3.564  -1.039  -2.423  0.00  0.00    +0.021 A 
ATOM      9  C   UNL     1      -4.892  -1.415  -2.523  0.00  0.00    -0.024 A 
ATOM     10  C   UNL     1      -5.640  -1.609  -1.370  0.00  0.00    +0.115 A 
ATOM     11  N   UNL     1      -5.116  -1.444  -0.174  0.00  0.00    -0.253 NA
ATOM     12  N   UNL     1      -4.027  -1.082   2.449  0.00  0.00    -0.333 N 
ATOM     13  C   UNL     1      -3.654  -0.353   3.671  0.00  0.00    +0.112 C 
ATOM     14  C   UNL     1      -2.173  -0.626   3.959  0.00  0.00    +0.108 C 
ATOM     15  C   UNL     1      -1.365  -0.352   2.717  0.00  0.00    +0.184 C 
ATOM     16  O   UNL     1      -0.214   0.022   2.819  0.00  0.00    -0.290 OA
ATOM     17  H   UNL     1      -4.793  -1.678   2.440  0.00  0.00    +0.147 HD
ENDROOT
BRANCH  13  18
ATOM     18  C   UNL     1      -3.870   1.124   3.467  0.00  0.00    +0.014 A 
ATOM     19  C   UNL     1      -3.998   1.634   2.190  0.00  0.00    +0.009 A 
ATOM     20  C   UNL     1      -4.195   2.990   2.002  0.00  0.00    +0.001 A 
ATOM     21  C   UNL     1      -4.265   3.838   3.092  0.00  0.00    +0.004 A 
ATOM     22  C   UNL     1      -4.138   3.333   4.371  0.00  0.00    +0.046 A 
ATOM     23  C   UNL     1      -3.945   1.972   4.562  0.00  0.00    +0.122 A 
BRANCH  23  24
ATOM     24  O   UNL     1      -3.825   1.472   5.820  0.00  0.00    -0.506 OA
ATOM     25  H   UNL     1      -2.916   1.450   6.150  0.00  0.00    +0.292 HD
ENDBRANCH  23  24
ENDBRANCH  13  18
BRANCH   1  27
ATOM     26  C   UNL     1       0.374   1.941   0.547  0.00  0.00    +0.110 C 
ATOM     27  S   UNL     1       0.434   0.129   0.508  0.00  0.00    -0.044 S 
ENDBRANCH   1  27
BRANCH   9  28
ATOM     28  C   UNL     1      -5.523  -1.613  -3.878  0.00  0.00    +0.071 C 
BRANCH  28  29
ATOM     29  C   UNL     1      -5.348  -3.046  -4.309  0.00  0.00    -0.043 A 
ATOM     30  C   UNL     1      -4.227  -3.419  -5.027  0.00  0.00    +0.004 A 
ATOM     31  C   UNL     1      -4.066  -4.734  -5.423  0.00  0.00    +0.000 A 
ATOM     32  C   UNL     1      -5.025  -5.675  -5.101  0.00  0.00    +0.000 A 
ATOM     33  C   UNL     1      -6.146  -5.302  -4.382  0.00  0.00    +0.000 A 
ATOM     34  C   UNL     1      -6.304  -3.989  -3.982  0.00  0.00    +0.004 A 
ENDBRANCH  28  29
ENDBRANCH   9  28
TORSDOF 5
