REMARK  Name = ZINC13495836
REMARK  16 active torsions:
REMARK  status: ('A' for Active; 'I' for Inactive)
REMARK    1  A    between atoms: C_1  and  C_2
REMARK    2  A    between atoms: C_2  and  C_3
REMARK    3  A    between atoms: C_3  and  C_5
REMARK    4  A    between atoms: C_3  and  N_74
REMARK    5  A    between atoms: N_9  and  C_10
REMARK    6  A    between atoms: C_10  and  C_11
REMARK    7  A    between atoms: C_10  and  C_12
REMARK    8  A    between atoms: C_10  and  C_13
REMARK    9  A    between atoms: C_13  and  C_14
REMARK   10  A    between atoms: C_15  and  C_16
REMARK   11  A    between atoms: C_15  and  N_74
REMARK   12  A    between atoms: C_16  and  C_17
REMARK   13  A    between atoms: C_23  and  C_24
REMARK   14  A    between atoms: C_23  and  N_74
REMARK   15  A    between atoms: C_28  and  C_37
REMARK   16  A    between atoms: C_30  and  C_36
REMARK                            x       y       z     vdW  Elec       q    Type
REMARK                         _______ _______ _______ _____ _____    ______ ____
ROOT
ATOM      1  N   UNL     1       1.967   0.753   2.692  0.00  0.00    +0.389 N 
ATOM      2  H   UNL     1       1.480   0.856   3.590  0.00  0.00    -0.080 HD
ENDROOT
BRANCH   1   3
ATOM      3  C   UNL     1       1.928   2.044   1.973  0.00  0.00    +0.003 C 
BRANCH   3   4
ATOM      4  C   UNL     1       0.668   2.123   1.151  0.00  0.00    +0.139 A 
ATOM      5  N   UNL     1      -0.552   1.878   1.563  0.00  0.00    -0.115 NA
ATOM      6  N   UNL     1      -1.351   2.050   0.567  0.00  0.00    -0.023 NA
ATOM      7  N   UNL     1      -0.673   2.402  -0.469  0.00  0.00    -0.043 NA
ATOM      8  N   UNL     1       0.576   2.462  -0.148  0.00  0.00    -0.225 N 
BRANCH   8   9
ATOM      9  C   UNL     1       1.685   2.824  -1.034  0.00  0.00    +0.061 C 
ATOM     10  C   UNL     1       2.617   1.622  -1.201  0.00  0.00    +0.036 C 
ATOM     11  C   UNL     1       2.463   3.992  -0.425  0.00  0.00    +0.036 C 
BRANCH   9  12
ATOM     12  C   UNL     1       1.133   3.236  -2.400  0.00  0.00    +0.026 C 
ATOM     13  C   UNL     1       2.292   3.614  -3.325  0.00  0.00    +0.006 C 
ENDBRANCH   9  12
ENDBRANCH   8   9
ENDBRANCH   3   4
BRANCH   3  15
ATOM     14  C   UNL     1       3.239   3.123   3.806  0.00  0.00    +0.002 C 
ATOM     15  C   UNL     1       1.938   3.175   3.003  0.00  0.00    -0.011 C 
ENDBRANCH   3  15
ENDBRANCH   1   3
BRANCH   1  16
ATOM     16  C   UNL     1       1.286  -0.289   1.895  0.00  0.00    -0.073 C 
BRANCH  16  17
ATOM     17  C   UNL     1       1.088  -1.528   2.770  0.00  0.00    +0.016 C 
BRANCH  17  18
ATOM     18  C   UNL     1       0.261  -2.544   2.024  0.00  0.00    -0.049 A 
ATOM     19  C   UNL     1      -1.117  -2.533   2.141  0.00  0.00    +0.003 A 
ATOM     20  C   UNL     1      -1.876  -3.460   1.453  0.00  0.00    +0.000 A 
ATOM     21  C   UNL     1      -1.257  -4.406   0.657  0.00  0.00    +0.000 A 
ATOM     22  C   UNL     1       0.121  -4.421   0.545  0.00  0.00    +0.000 A 
ATOM     23  C   UNL     1       0.879  -3.489   1.228  0.00  0.00    +0.003 A 
ENDBRANCH  17  18
ENDBRANCH  16  17
ENDBRANCH   1  16
BRANCH   1  24
ATOM     24  C   UNL     1       3.368   0.358   2.947  0.00  0.00    -0.037 C 
BRANCH  24  25
ATOM     25  C   UNL     1       4.145   0.303   1.657  0.00  0.00    +0.001 A 
ATOM     26  C   UNL     1       4.850   1.385   1.246  0.00  0.00    +0.017 A 
ATOM     27  C   UNL     1       5.598   1.297  -0.009  0.00  0.00    -0.001 A 
ATOM     28  C   UNL     1       6.348   2.379  -0.482  0.00  0.00    +0.013 A 
ATOM     29  C   UNL     1       7.031   2.267  -1.660  0.00  0.00    -0.050 A 
ATOM     30  C   UNL     1       6.987   1.088  -2.392  0.00  0.00    +0.008 A 
ATOM     31  C   UNL     1       6.255   0.009  -1.946  0.00  0.00    -0.026 A 
ATOM     32  C   UNL     1       5.551   0.101  -0.749  0.00  0.00    +0.052 A 
ATOM     33  N   UNL     1       4.811  -0.963  -0.278  0.00  0.00    -0.322 N 
ATOM     34  H   UNL     1       4.779  -1.787  -0.789  0.00  0.00    +0.169 HD
ATOM     35  C   UNL     1       4.131  -0.874   0.878  0.00  0.00    +0.251 A 
ATOM     36  O   UNL     1       3.487  -1.835   1.264  0.00  0.00    -0.268 OA
ATOM     37  C   UNL     1       6.216  -1.264  -2.750  0.00  0.00    +0.046 C 
ATOM     38  C   UNL     1       7.839   3.433  -2.169  0.00  0.00    +0.044 C 
ENDBRANCH  24  25
ENDBRANCH   1  24
TORSDOF 10
