REMARK  Name = ZINC04193527
REMARK  5 active torsions:
REMARK  status: ('A' for Active; 'I' for Inactive)
REMARK    1  A    between atoms: C_1  and  C_2
REMARK    2  A    between atoms: C_5  and  C_21
REMARK    3  A    between atoms: C_7  and  N_8
REMARK    4  A    between atoms: N_23  and  C_24
REMARK    5  A    between atoms: C_24  and  C_25
REMARK                            x       y       z     vdW  Elec       q    Type
REMARK                         _______ _______ _______ _____ _____    ______ ____
ROOT
ATOM      1  C   UNL     1       0.621   1.446   0.049  0.00  0.00    +0.046 C 
ATOM      2  C   UNL     1       0.314  -0.029   0.019  0.00  0.00    -0.025 A 
ATOM      3  C   UNL     1       0.321  -0.710  -1.182  0.00  0.00    +0.006 A 
ATOM      4  C   UNL     1       0.041  -2.061  -1.218  0.00  0.00    +0.013 A 
ATOM      5  C   UNL     1      -0.253  -2.749  -0.039  0.00  0.00    +0.039 A 
ATOM      6  C   UNL     1      -0.262  -2.069   1.177  0.00  0.00    +0.041 A 
ATOM      7  C   UNL     1       0.027  -0.705   1.207  0.00  0.00    +0.070 A 
ENDROOT
BRANCH   7   8
ATOM      8  N   UNL     1       0.025  -0.029   2.399  0.00  0.00    -0.226 NA
ATOM      9  C   UNL     1       0.690  -0.507   3.426  0.00  0.00    +0.155 C 
ATOM     10  N   UNL     1       1.527  -1.629   3.458  0.00  0.00    -0.318 N 
ATOM     11  C   UNL     1       1.914  -2.048   4.769  0.00  0.00    +0.108 C 
ATOM     12  C   UNL     1       3.009  -3.065   5.048  0.00  0.00    +0.189 C 
ATOM     13  S   UNL     1       3.248  -2.796   6.865  0.00  0.00    -0.028 S 
ATOM     14  O   UNL     1       4.601  -2.431   7.105  0.00  0.00    -0.174 OA
ATOM     15  O   UNL     1       2.681  -3.888   7.574  0.00  0.00    -0.174 OA
ATOM     16  C   UNL     1       2.170  -1.302   7.085  0.00  0.00    +0.182 C 
ATOM     17  C   UNL     1       2.233  -0.771   5.636  0.00  0.00    +0.097 C 
ATOM     18  S   UNL     1       0.734   0.139   5.105  0.00  0.00    -0.084 S 
ATOM     19  H   UNL     1       1.820  -2.086   2.654  0.00  0.00    +0.148 HD
ENDBRANCH   7   8
BRANCH   5  20
ATOM     20  C   UNL     1      -0.554  -4.196  -0.080  0.00  0.00    +0.244 C 
ATOM     21  O   UNL     1      -0.809  -4.794   0.947  0.00  0.00    -0.270 OA
ATOM     22  N   UNL     1      -0.545  -4.853  -1.257  0.00  0.00    -0.306 N 
ATOM     23  H   UNL     1      -0.341  -4.376  -2.077  0.00  0.00    +0.149 HD
BRANCH  22  24
ATOM     24  C   UNL     1      -0.843  -6.287  -1.298  0.00  0.00    +0.160 C 
BRANCH  24  25
ATOM     25  C   UNL     1      -0.767  -6.775  -2.722  0.00  0.00    +0.058 A 
ATOM     26  C   UNL     1       0.403  -7.344  -3.188  0.00  0.00    +0.025 A 
ATOM     27  C   UNL     1       0.462  -7.790  -4.499  0.00  0.00    +0.003 A 
ATOM     28  C   UNL     1      -0.663  -7.646  -5.296  0.00  0.00    +0.020 A 
ATOM     29  C   UNL     1      -1.798  -7.067  -4.761  0.00  0.00    +0.111 A 
ATOM     30  N   UNL     1      -1.820  -6.659  -3.507  0.00  0.00    -0.258 NA
ENDBRANCH  24  25
ENDBRANCH  22  24
ENDBRANCH   5  20
TORSDOF 4
