REMARK  Name = ZINC63708122
REMARK  9 active torsions:
REMARK  status: ('A' for Active; 'I' for Inactive)
REMARK    1  A    between atoms: C_1  and  C_2
REMARK    2  A    between atoms: N_10  and  C_11
REMARK    3  A    between atoms: C_11  and  C_12
REMARK    4  A    between atoms: C_12  and  C_13
REMARK    5  A    between atoms: C_23  and  S_27
REMARK    6  A    between atoms: S_27  and  C_28
REMARK    7  A    between atoms: C_28  and  C_29
REMARK    8  A    between atoms: N_31  and  C_32
REMARK    9  A    between atoms: C_35  and  C_38
REMARK                            x       y       z     vdW  Elec       q    Type
REMARK                         _______ _______ _______ _____ _____    ______ ____
ROOT
ATOM      1  C   UNL     1      -1.402   0.290   4.431  0.00  0.00    +0.092 C 
ATOM      2  N   UNL     1      -1.375  -0.485   5.487  0.00  0.00    -0.332 N 
ATOM      3  C   UNL     1      -1.376   0.255   6.603  0.00  0.00    +0.128 C 
ATOM      4  C   UNL     1      -1.353  -0.080   7.971  0.00  0.00    +0.038 A 
ATOM      5  C   UNL     1      -1.323  -1.425   8.378  0.00  0.00    +0.013 A 
ATOM      6  C   UNL     1      -1.302  -1.729   9.705  0.00  0.00    +0.001 A 
ATOM      7  C   UNL     1      -1.308  -0.737  10.683  0.00  0.00    +0.002 A 
ATOM      8  C   UNL     1      -1.337   0.583  10.357  0.00  0.00    +0.026 A 
ATOM      9  C   UNL     1      -1.361   0.966   8.998  0.00  0.00    +0.048 A 
ATOM     10  N   UNL     1      -1.388   2.248   8.661  0.00  0.00    -0.356 N 
ATOM     11  C   UNL     1      -1.412   2.624   7.241  0.00  0.00    +0.248 C 
ATOM     12  N   UNL     1      -1.405   1.572   6.226  0.00  0.00    -0.204 N 
ATOM     13  N   UNL     1      -1.415   1.582   4.825  0.00  0.00    -0.249 N 
ATOM     14  H   UNL     1      -1.432   2.364   4.251  0.00  0.00    +0.171 HD
ATOM     15  H   UNL     1      -1.393   2.934   9.347  0.00  0.00    +0.162 HD
ATOM     16  H   UNL     1      -1.357  -1.455   5.464  0.00  0.00    +0.168 HD
ENDROOT
BRANCH   1  17
ATOM     17  C   UNL     1      -1.409  -0.186   3.001  0.00  0.00    +0.092 C 
BRANCH  17  18
ATOM     18  C   UNL     1       0.031  -0.327   2.503  0.00  0.00    +0.131 C 
BRANCH  18  28
ATOM     19  C   UNL     1      -0.018   1.503   0.010  0.00  0.00    +0.086 C 
ATOM     20  C   UNL     1       0.002  -0.004   0.002  0.00  0.00    +0.108 A 
ATOM     21  N   UNL     1       0.008  -0.744  -1.069  0.00  0.00    -0.233 NA
ATOM     22  C   UNL     1       0.027  -2.055  -0.717  0.00  0.00    +0.089 A 
ATOM     23  C   UNL     1       0.040  -3.248  -1.446  0.00  0.00    +0.030 A 
ATOM     24  C   UNL     1       0.058  -4.446  -0.789  0.00  0.00    +0.002 A 
ATOM     25  C   UNL     1       0.064  -4.493   0.598  0.00  0.00    +0.002 A 
ATOM     26  C   UNL     1       0.052  -3.329   1.337  0.00  0.00    +0.028 A 
ATOM     27  C   UNL     1       0.033  -2.103   0.687  0.00  0.00    +0.069 A 
ATOM     28  N   UNL     1       0.023  -0.789   1.113  0.00  0.00    -0.327 N 
ENDBRANCH  18  28
ENDBRANCH  17  18
ENDBRANCH   1  17
BRANCH  11  29
ATOM     29  S   UNL     1       0.025   3.686   6.934  0.00  0.00    -0.106 S 
BRANCH  29  30
ATOM     30  C   UNL     1       1.444   2.641   7.365  0.00  0.00    +0.168 C 
BRANCH  30  31
ATOM     31  C   UNL     1       2.720   3.413   7.152  0.00  0.00    +0.225 C 
ATOM     32  O   UNL     1       2.677   4.557   6.749  0.00  0.00    -0.275 OA
ATOM     33  N   UNL     1       3.909   2.834   7.409  0.00  0.00    -0.288 N 
ATOM     34  H   UNL     1       3.944   1.920   7.731  0.00  0.00    +0.151 HD
BRANCH  33  35
ATOM     35  C   UNL     1       5.150   3.585   7.202  0.00  0.00    +0.239 C 
ATOM     36  C   UNL     1       6.200   2.714   6.536  0.00  0.00    +0.045 C 
ATOM     37  C   UNL     1       7.192   2.667   7.428  0.00  0.00    +0.060 C 
ATOM     38  N   UNL     1       6.881   3.386   8.530  0.00  0.00    -0.157 NA
ATOM     39  N   UNL     1       5.771   3.931   8.492  0.00  0.00    -0.160 NA
ATOM     40  C   UNL     1       8.483   1.914   7.234  0.00  0.00    +0.067 C 
ENDBRANCH  33  35
ENDBRANCH  30  31
ENDBRANCH  29  30
ENDBRANCH  11  29
TORSDOF 7
