REMARK  Name = ZINC39237850
REMARK  5 active torsions:
REMARK  status: ('A' for Active; 'I' for Inactive)
REMARK    1  A    between atoms: C_1  and  C_2
REMARK    2  A    between atoms: C_2  and  C_4
REMARK    3  A    between atoms: C_2  and  N_10
REMARK    4  A    between atoms: C_11  and  C_17
REMARK    5  A    between atoms: C_20  and  C_23
REMARK                            x       y       z     vdW  Elec       q    Type
REMARK                         _______ _______ _______ _____ _____    ______ ____
ROOT
ATOM      1  N   UNL     1       0.811  -0.683  -1.013  0.00  0.00    -0.279 N 
ATOM      2  C   UNL     1       1.971  -1.558  -0.773  0.00  0.00    +0.208 C 
ATOM      3  N   UNL     1       2.395  -1.962  -2.125  0.00  0.00    -0.244 N 
ATOM      4  N   UNL     1       1.511  -1.338  -3.014  0.00  0.00    -0.162 NA
ATOM      5  C   UNL     1       0.630  -0.634  -2.387  0.00  0.00    +0.186 C 
ATOM      6  S   UNL     1      -0.647   0.285  -3.182  0.00  0.00    -0.012 SA
ATOM      7  H   UNL     1       3.137  -2.544  -2.354  0.00  0.00    +0.170 HD
ENDROOT
BRANCH   2   8
ATOM      8  C   UNL     1       1.562  -2.780   0.052  0.00  0.00    +0.193 C 
ATOM      9  C   UNL     1       2.768  -3.650   0.356  0.00  0.00    +0.035 C 
ATOM     10  C   UNL     1       2.477  -4.824  -0.236  0.00  0.00    +0.091 C 
ATOM     11  N   UNL     1       1.264  -4.760  -0.845  0.00  0.00    -0.154 NA
ATOM     12  N   UNL     1       0.691  -3.670  -0.734  0.00  0.00    -0.176 NA
BRANCH  10  13
ATOM     13  C   UNL     1       3.356  -6.019  -0.224  0.00  0.00    +0.003 A 
ATOM     14  C   UNL     1       4.581  -5.980   0.438  0.00  0.00    +0.010 A 
ATOM     15  C   UNL     1       5.395  -7.094   0.446  0.00  0.00    +0.002 A 
ATOM     16  C   UNL     1       4.997  -8.249  -0.202  0.00  0.00    +0.015 A 
ATOM     17  C   UNL     1       3.781  -8.295  -0.861  0.00  0.00    +0.019 A 
ATOM     18  C   UNL     1       2.956  -7.187  -0.870  0.00  0.00    +0.025 A 
ATOM     19 BR   UNL     1       3.245  -9.879  -1.745  0.00  0.00    -0.050 Br
ENDBRANCH  10  13
ENDBRANCH   2   8
BRANCH   1  21
ATOM     20  C   UNL     1      -1.003   0.924  -0.684  0.00  0.00    +0.033 C 
ATOM     21  C   UNL     1       0.002  -0.004   0.002  0.00  0.00    +0.104 C 
BRANCH  21  22
ATOM     22  C   UNL     1      -0.739  -1.028   0.822  0.00  0.00    -0.027 A 
ATOM     23  C   UNL     1      -1.389  -2.076   0.197  0.00  0.00    +0.005 A 
ATOM     24  C   UNL     1      -2.068  -3.015   0.949  0.00  0.00    +0.000 A 
ATOM     25  C   UNL     1      -2.098  -2.908   2.327  0.00  0.00    +0.000 A 
ATOM     26  C   UNL     1      -1.447  -1.861   2.953  0.00  0.00    +0.000 A 
ATOM     27  C   UNL     1      -0.764  -0.924   2.200  0.00  0.00    +0.005 A 
ENDBRANCH  21  22
ENDBRANCH   1  21
TORSDOF 4
