REMARK  Name = ZINC22508107
REMARK  2 active torsions:
REMARK  status: ('A' for Active; 'I' for Inactive)
REMARK    1  A    between atoms: N_12  and  C_13
REMARK    2  A    between atoms: C_13  and  C_14
REMARK                            x       y       z     vdW  Elec       q    Type
REMARK                         _______ _______ _______ _____ _____    ______ ____
ROOT
ATOM      1  C   UNL     1       5.541   3.213  -2.010  0.00  0.00    +0.199 C 
ENDROOT
BRANCH   1   2
ATOM      2  C   UNL     1       6.276   3.240  -3.326  0.00  0.00    +0.236 C 
ATOM      3  O   UNL     1       5.729   2.847  -4.334  0.00  0.00    -0.274 OA
ATOM      4  N   UNL     1       7.541   3.700  -3.381  0.00  0.00    -0.263 N 
ATOM      5  C   UNL     1       8.219   3.724  -4.595  0.00  0.00    +0.165 A 
ATOM      6  N   UNL     1       9.447   4.133  -4.850  0.00  0.00    -0.229 NA
ATOM      7  C   UNL     1       9.943   4.086  -6.072  0.00  0.00    +0.054 A 
ATOM      8  C   UNL     1       9.161   3.607  -7.069  0.00  0.00    +0.014 A 
ATOM      9  S   UNL     1       7.670   3.217  -6.163  0.00  0.00    -0.057 S 
ATOM     10  C   UNL     1       9.462   3.442  -8.536  0.00  0.00    +0.044 C 
ATOM     11  C   UNL     1      10.890   2.923  -8.708  0.00  0.00    +0.005 C 
ATOM     12  C   UNL     1      11.155   2.635 -10.187  0.00  0.00    +0.000 C 
ATOM     13  C   UNL     1      12.058   3.726 -10.768  0.00  0.00    +0.000 C 
ATOM     14  C   UNL     1      11.833   5.033 -10.007  0.00  0.00    +0.000 C 
ATOM     15  C   UNL     1      13.144   5.495  -9.370  0.00  0.00    +0.000 C 
ATOM     16  C   UNL     1      12.909   6.792  -8.595  0.00  0.00    +0.000 C 
ATOM     17  C   UNL     1      12.752   6.476  -7.107  0.00  0.00    +0.000 C 
ATOM     18  C   UNL     1      11.322   6.003  -6.837  0.00  0.00    +0.006 C 
ATOM     19  C   UNL     1      11.348   4.554  -6.346  0.00  0.00    +0.056 C 
ATOM     20  H   UNL     1       8.038   4.057  -2.467  0.00  0.00    +0.157 HD
ENDBRANCH   1   2
BRANCH   1  32
ATOM     21  C   UNL     1      -2.089  -0.115   2.170  0.00  0.00    +0.000 C 
ATOM     22  C   UNL     1      -1.473  -0.603   3.483  0.00  0.00    +0.000 C 
ATOM     23  C   UNL     1      -1.249   0.589   4.416  0.00  0.00    +0.000 C 
ATOM     24  C   UNL     1       0.152   1.160   4.187  0.00  0.00    +0.000 C 
ATOM     25  C   UNL     1       0.333   1.487   2.703  0.00  0.00    +0.005 C 
ATOM     26  C   UNL     1       1.431   2.539   2.543  0.00  0.00    +0.044 C 
ATOM     27  C   UNL     1       1.982   2.481   1.141  0.00  0.00    +0.012 A 
ATOM     28  C   UNL     1       1.395   2.049  -0.000  0.00  0.00    +0.028 A 
ATOM     29  N   UNL     1       2.088   2.096  -1.122  0.00  0.00    -0.341 N 
ATOM     30  C   UNL     1       3.326   2.553  -1.140  0.00  0.00    +0.137 A 
ATOM     31  S   UNL     1       3.588   2.964   0.526  0.00  0.00    -0.059 S 
ATOM     32  N   UNL     1       4.194   2.674  -2.214  0.00  0.00    -0.316 N 
ATOM     33  C   UNL     1      -0.019   1.526   0.010  0.00  0.00    +0.054 C 
ATOM     34  C   UNL     1       0.002  -0.004   0.002  0.00  0.00    +0.006 C 
ATOM     35  C   UNL     1      -1.420  -0.532  -0.200  0.00  0.00    +0.000 C 
ATOM     36  C   UNL     1      -1.910  -1.186   1.093  0.00  0.00    +0.000 C 
ATOM     37  H   UNL     1       3.872   2.365  -3.220  0.00  0.00    +0.148 HD
ATOM     38  H   UNL     1       1.636   1.751  -2.063  0.00  0.00    +0.167 HD
ENDBRANCH   1  32
TORSDOF 2
