REMARK  Name = ZINC12496895
REMARK  9 active torsions:
REMARK  status: ('A' for Active; 'I' for Inactive)
REMARK    1  A    between atoms: C_1  and  O_2
REMARK    2  A    between atoms: O_2  and  C_3
REMARK    3  A    between atoms: C_3  and  C_5
REMARK    4  A    between atoms: C_5  and  C_31
REMARK    5  A    between atoms: C_10  and  C_12
REMARK    6  A    between atoms: N_21  and  C_24
REMARK    7  A    between atoms: C_31  and  C_32
REMARK    8  A    between atoms: C_32  and  S_33
REMARK    9  A    between atoms: S_33  and  C_34
REMARK                            x       y       z     vdW  Elec       q    Type
REMARK                         _______ _______ _______ _____ _____    ______ ____
ROOT
ATOM      1  C   UNL     1       3.419   4.314   0.089  0.00  0.00    +0.044 C 
ATOM      2  C   UNL     1       3.497   5.821  -0.080  0.00  0.00    +0.086 C 
ATOM      3  C   UNL     1       4.869   5.898  -0.854  0.00  0.00    +0.077 C 
ATOM      4  C   UNL     1       4.675   4.880  -1.903  0.00  0.00    -0.024 C 
ATOM      5  C   UNL     1       5.188   7.301  -0.728  0.00  0.00    +0.229 C 
ATOM      6  O   UNL     1       5.753   8.005  -1.537  0.00  0.00    -0.275 OA
ATOM      7  N   UNL     1       4.711   7.665   0.507  0.00  0.00    -0.210 N 
ATOM      8  C   UNL     1       3.880   6.724   1.049  0.00  0.00    +0.229 C 
ATOM      9  O   UNL     1       3.526   6.640   2.206  0.00  0.00    -0.275 OA
ATOM     10  N   UNL     1       4.058   3.754  -1.131  0.00  0.00    +0.395 N 
ATOM     11  H   UNL     1       3.351   3.285  -1.709  0.00  0.00    -0.083 HD
ATOM     12  H   UNL     1       4.784   3.079  -0.864  0.00  0.00    -0.083 HD
ENDROOT
BRANCH   4  13
ATOM     13  C   UNL     1       5.995   4.472  -2.505  0.00  0.00    -0.025 A 
ATOM     14  C   UNL     1       7.175   4.775  -1.853  0.00  0.00    +0.005 A 
ATOM     15  C   UNL     1       8.386   4.401  -2.404  0.00  0.00    +0.000 A 
ATOM     16  C   UNL     1       8.418   3.722  -3.608  0.00  0.00    +0.003 A 
ATOM     17  C   UNL     1       7.239   3.417  -4.262  0.00  0.00    +0.038 A 
ATOM     18  C   UNL     1       6.026   3.788  -3.708  0.00  0.00    +0.125 A 
ATOM     19  F   UNL     1       4.872   3.486  -4.343  0.00  0.00    -0.205 F 
ENDBRANCH   4  13
BRANCH   7  20
ATOM     20  C   UNL     1       5.042   8.870   1.144  0.00  0.00    +0.044 A 
ATOM     21  C   UNL     1       4.512   9.165   2.393  0.00  0.00    +0.027 A 
ATOM     22  C   UNL     1       4.842  10.350   3.020  0.00  0.00    +0.040 A 
ATOM     23  C   UNL     1       5.694  11.248   2.400  0.00  0.00    +0.124 A 
ATOM     24  C   UNL     1       6.220  10.959   1.152  0.00  0.00    +0.040 A 
ATOM     25  C   UNL     1       5.896   9.772   0.524  0.00  0.00    +0.027 A 
ATOM     26  F   UNL     1       6.013  12.409   3.014  0.00  0.00    -0.205 F 
ENDBRANCH   7  20
BRANCH   1  27
ATOM     27  C   UNL     1       4.175   3.887   1.321  0.00  0.00    +0.297 C 
ATOM     28  O   UNL     1       4.318   4.659   2.239  0.00  0.00    -0.252 OA
BRANCH  27  30
ATOM     29  C   UNL     1       5.405   2.307   2.614  0.00  0.00    +0.280 C 
ATOM     30  O   UNL     1       4.689   2.650   1.397  0.00  0.00    -0.469 OA
ENDBRANCH  27  30
ENDBRANCH   1  27
BRANCH   1  31
ATOM     31  C   UNL     1       1.959   3.866   0.183  0.00  0.00    +0.010 C 
BRANCH  31  32
ATOM     32  C   UNL     1       1.901   2.343   0.321  0.00  0.00    +0.068 C 
BRANCH  32  33
ATOM     33  S   UNL     1       0.170   1.812   0.432  0.00  0.00    -0.164 S 
ATOM     34  C   UNL     1       0.273   0.008   0.589  0.00  0.00    +0.084 C 
ENDBRANCH  32  33
ENDBRANCH  31  32
ENDBRANCH   1  31
TORSDOF 7
