REMARK  Name = ZINC64508019
REMARK  15 active torsions:
REMARK  status: ('A' for Active; 'I' for Inactive)
REMARK    1  A    between atoms: C_1  and  C_2
REMARK    2  A    between atoms: C_2  and  O_3
REMARK    3  A    between atoms: O_3  and  C_4
REMARK    4  A    between atoms: C_4  and  C_6
REMARK    5  A    between atoms: C_8  and  C_39
REMARK    6  A    between atoms: C_10  and  C_14
REMARK    7  A    between atoms: C_11  and  C_13
REMARK    8  A    between atoms: C_14  and  N_15
REMARK    9  A    between atoms: N_15  and  C_16
REMARK   10  A    between atoms: C_16  and  C_17
REMARK   11  A    between atoms: C_20  and  O_23
REMARK   12  A    between atoms: O_23  and  C_24
REMARK   13  A    between atoms: C_25  and  C_27
REMARK   14  A    between atoms: C_33  and  O_37
REMARK   15  A    between atoms: O_37  and  C_38
REMARK                            x       y       z     vdW  Elec       q    Type
REMARK                         _______ _______ _______ _____ _____    ______ ____
ROOT
ATOM      1  N   UNL     1      -6.634  -5.064   1.074  0.00  0.00    -0.295 N 
ATOM      2  C   UNL     1      -6.294  -5.935   0.103  0.00  0.00    +0.242 C 
ATOM      3  O   UNL     1      -5.491  -5.613  -0.746  0.00  0.00    -0.273 OA
ENDROOT
BRANCH   2   4
ATOM      4  C   UNL     1      -6.912  -7.309   0.074  0.00  0.00    +0.190 C 
ATOM      5  C   UNL     1      -6.377  -8.146   1.215  0.00  0.00    +0.016 C 
ATOM      6  C   UNL     1      -5.759  -9.204   0.647  0.00  0.00    -0.003 A 
ATOM      7  C   UNL     1      -5.048 -10.359   1.211  0.00  0.00    +0.013 A 
ATOM      8  C   UNL     1      -4.520 -11.278   0.375  0.00  0.00    +0.046 A 
ATOM      9  C   UNL     1      -4.634 -11.156  -1.023  0.00  0.00    +0.122 A 
ATOM     10  C   UNL     1      -5.275 -10.116  -1.615  0.00  0.00    +0.071 A 
ATOM     11  C   UNL     1      -5.866  -9.097  -0.827  0.00  0.00    +0.047 A 
ATOM     12  N   UNL     1      -6.528  -8.010  -1.156  0.00  0.00    -0.370 N 
ATOM     13  H   UNL     1      -6.729  -7.720  -2.060  0.00  0.00    +0.161 HD
BRANCH   9  14
ATOM     14  O   UNL     1      -4.082 -12.113  -1.809  0.00  0.00    -0.495 OA
ATOM     15  C   UNL     1      -3.415 -13.190  -1.147  0.00  0.00    +0.277 C 
ENDBRANCH   9  14
ENDBRANCH   2   4
BRANCH   1  16
ATOM     16  C   UNL     1      -6.124  -3.691   1.037  0.00  0.00    +0.118 C 
BRANCH  16  19
ATOM     17  C   UNL     1      -3.317  -2.115   0.887  0.00  0.00    +0.217 C 
ATOM     18  C   UNL     1      -4.391  -2.118   2.000  0.00  0.00    +0.031 C 
ATOM     19  C   UNL     1      -4.882  -3.585   1.925  0.00  0.00    +0.056 C 
ATOM     20  C   UNL     1      -3.719  -4.323   1.301  0.00  0.00    +0.016 C 
ATOM     21  N   UNL     1      -2.899  -3.516   0.753  0.00  0.00    -0.278 NA
ATOM     22  C   UNL     1      -3.551  -5.821   1.322  0.00  0.00    +0.060 C 
ATOM     23  C   UNL     1      -5.522  -1.139   1.678  0.00  0.00    +0.011 C 
BRANCH  17  24
ATOM     24  C   UNL     1      -2.146  -1.256   1.291  0.00  0.00    +0.332 C 
ATOM     25  O   UNL     1      -1.153  -1.766   1.753  0.00  0.00    -0.248 OA
BRANCH  24  26
ATOM     26  O   UNL     1      -2.207   0.076   1.138  0.00  0.00    -0.463 OA
BRANCH  26  28
ATOM     27  C   UNL     1      -1.316   2.317   1.293  0.00  0.00    +0.048 C 
ATOM     28  C   UNL     1      -1.062   0.829   1.542  0.00  0.00    +0.229 C 
ENDBRANCH  26  28
ENDBRANCH  24  26
ENDBRANCH  17  24
ENDBRANCH  16  19
ENDBRANCH   1  16
BRANCH   1  29
ATOM     29  C   UNL     1      -7.514  -5.489   2.165  0.00  0.00    +0.143 C 
BRANCH  29  30
ATOM     30  C   UNL     1      -8.934  -5.098   1.847  0.00  0.00    -0.030 A 
ATOM     31  C   UNL     1      -9.377  -3.818   2.130  0.00  0.00    +0.009 A 
ATOM     32  C   UNL     1     -10.678  -3.457   1.840  0.00  0.00    +0.046 A 
ATOM     33  C   UNL     1     -11.541  -4.378   1.265  0.00  0.00    +0.120 A 
ATOM     34  C   UNL     1     -11.095  -5.661   0.982  0.00  0.00    +0.046 A 
ATOM     35  C   UNL     1      -9.791  -6.016   1.269  0.00  0.00    +0.009 A 
BRANCH  33  36
ATOM     36  O   UNL     1     -12.822  -4.025   0.979  0.00  0.00    -0.495 OA
ATOM     37  C   UNL     1     -13.654  -5.025   0.388  0.00  0.00    +0.277 C 
ENDBRANCH  33  36
ENDBRANCH  29  30
ENDBRANCH   1  29
TORSDOF 10
