REMARK  Name = ZINC13880951
REMARK  3 active torsions:
REMARK  status: ('A' for Active; 'I' for Inactive)
REMARK    1  A    between atoms: C_3  and  C_9
REMARK    2  A    between atoms: C_12  and  C_14
REMARK    3  A    between atoms: N_20  and  C_21
REMARK                            x       y       z     vdW  Elec       q    Type
REMARK                         _______ _______ _______ _____ _____    ______ ____
ROOT
ATOM      1  C   UNL     1       5.870   4.678  -1.235  0.00  0.00    +0.066 C 
ATOM      2  C   UNL     1       5.256   5.341  -2.258  0.00  0.00    +0.081 C 
ATOM      3  C   UNL     1       5.756   6.452  -3.083  0.00  0.00    +0.257 C 
ATOM      4  O   UNL     1       6.866   6.922  -2.911  0.00  0.00    -0.269 OA
ATOM      5  N   UNL     1       4.947   6.917  -4.020  0.00  0.00    -0.260 N 
ATOM      6  C   UNL     1       3.695   6.371  -4.200  0.00  0.00    +0.166 C 
ATOM      7  N   UNL     1       2.774   6.709  -5.075  0.00  0.00    -0.226 NA
ATOM      8  S   UNL     1       3.632   5.089  -2.959  0.00  0.00    -0.049 S 
ATOM      9  H   UNL     1       5.238   7.649  -4.586  0.00  0.00    +0.157 HD
ENDROOT
BRANCH   7  10
ATOM     10  C   UNL     1       1.578   6.043  -5.101  0.00  0.00    +0.067 A 
ATOM     11  C   UNL     1       1.549   4.649  -5.019  0.00  0.00    +0.029 A 
ATOM     12  C   UNL     1       0.341   3.985  -5.045  0.00  0.00    +0.017 A 
ATOM     13  C   UNL     1      -0.842   4.696  -5.154  0.00  0.00    +0.018 A 
ATOM     14  C   UNL     1      -0.820   6.078  -5.236  0.00  0.00    +0.017 A 
ATOM     15  C   UNL     1       0.381   6.755  -5.205  0.00  0.00    +0.029 A 
ATOM     16 BR   UNL     1      -2.494   3.777  -5.190  0.00  0.00    -0.050 Br
ENDBRANCH   7  10
BRANCH   1  20
ATOM     17  C   UNL     1       3.655   2.162  -0.022  0.00  0.00    +0.137 A 
ATOM     18  C   UNL     1       4.714   1.947   0.814  0.00  0.00    +0.050 A 
ATOM     19  C   UNL     1       5.704   2.872   0.471  0.00  0.00    +0.050 A 
ATOM     20  C   UNL     1       5.201   3.624  -0.575  0.00  0.00    +0.130 A 
ATOM     21  O   UNL     1       3.962   3.171  -0.858  0.00  0.00    -0.455 OA
BRANCH  17  24
ATOM     22  C   UNL     1      -0.017   1.379   0.010  0.00  0.00    +0.002 A 
ATOM     23  C   UNL     1       1.166   2.089   0.002  0.00  0.00    +0.013 A 
ATOM     24  C   UNL     1       2.386   1.409  -0.013  0.00  0.00    +0.037 A 
ATOM     25  C   UNL     1       2.399   0.011  -0.021  0.00  0.00    +0.070 A 
ATOM     26  C   UNL     1       1.207  -0.687  -0.013  0.00  0.00    +0.060 A 
ATOM     27  C   UNL     1       0.002  -0.004   0.002  0.00  0.00    +0.021 A 
ATOM     28 CL   UNL     1       1.219  -2.423  -0.022  0.00  0.00    -0.082 Cl
ATOM     29 CL   UNL     1       3.909  -0.846  -0.040  0.00  0.00    -0.081 Cl
ENDBRANCH  17  24
ENDBRANCH   1  20
TORSDOF 3
