REMARK  Name = ZINC12678658
REMARK  8 active torsions:
REMARK  status: ('A' for Active; 'I' for Inactive)
REMARK    1  A    between atoms: N_9  and  C_28
REMARK    2  A    between atoms: C_10  and  S_12
REMARK    3  A    between atoms: S_12  and  C_13
REMARK    4  A    between atoms: C_13  and  C_14
REMARK    5  A    between atoms: C_14  and  C_16
REMARK    6  A    between atoms: C_16  and  C_26
REMARK    7  A    between atoms: C_28  and  C_29
REMARK    8  A    between atoms: C_29  and  C_30
REMARK                            x       y       z     vdW  Elec       q    Type
REMARK                         _______ _______ _______ _____ _____    ______ ____
ROOT
ATOM      1  C   UNL     1       2.381   1.422  -0.013  0.00  0.00    +0.001 A 
ATOM      2  C   UNL     1       1.161   2.086   0.002  0.00  0.00    +0.002 A 
ATOM      3  C   UNL     1      -0.017   1.394   0.010  0.00  0.00    +0.028 A 
ATOM      4  C   UNL     1       0.002  -0.004   0.002  0.00  0.00    +0.079 A 
ATOM      5  C   UNL     1       1.245  -0.677  -0.013  0.00  0.00    +0.065 A 
ATOM      6  C   UNL     1       2.432   0.055  -0.021  0.00  0.00    +0.015 A 
ATOM      7  C   UNL     1       1.239  -2.146  -0.021  0.00  0.00    +0.262 A 
ATOM      8  O   UNL     1       2.277  -2.782  -0.034  0.00  0.00    -0.267 OA
ATOM      9  N   UNL     1       0.036  -2.766  -0.012  0.00  0.00    -0.287 N 
ATOM     10  C   UNL     1      -1.119  -2.036   0.003  0.00  0.00    +0.173 A 
ATOM     11  N   UNL     1      -1.136  -0.726   0.009  0.00  0.00    -0.223 NA
ENDROOT
BRANCH  10  12
ATOM     12  S   UNL     1      -2.656  -2.897   0.014  0.00  0.00    -0.080 S 
BRANCH  12  13
ATOM     13  C   UNL     1      -3.801  -1.496   0.033  0.00  0.00    +0.157 C 
BRANCH  13  14
ATOM     14  C   UNL     1      -5.219  -2.005   0.045  0.00  0.00    +0.187 C 
ATOM     15  O   UNL     1      -5.435  -3.202   0.041  0.00  0.00    -0.290 OA
BRANCH  14  16
ATOM     16  C   UNL     1      -6.292  -1.098   0.060  0.00  0.00    +0.131 C 
ATOM     17  C   UNL     1      -7.615  -1.574   0.071  0.00  0.00    +0.114 C 
ATOM     18  N   UNL     1      -7.981  -2.882   0.062  0.00  0.00    -0.300 N 
ATOM     19  C   UNL     1      -9.369  -2.947   0.081  0.00  0.00    +0.054 A 
ATOM     20  C   UNL     1     -10.269  -4.004   0.084  0.00  0.00    +0.025 A 
ATOM     21  C   UNL     1     -11.626  -3.752   0.098  0.00  0.00    +0.002 A 
ATOM     22  C   UNL     1     -12.094  -2.449   0.110  0.00  0.00    +0.002 A 
ATOM     23  C   UNL     1     -11.208  -1.390   0.107  0.00  0.00    +0.025 A 
ATOM     24  C   UNL     1      -9.842  -1.633   0.092  0.00  0.00    +0.054 A 
ATOM     25  N   UNL     1      -8.730  -0.798   0.086  0.00  0.00    -0.300 N 
ATOM     26  H   UNL     1      -7.377  -3.641   0.048  0.00  0.00    +0.153 HD
ATOM     27  H   UNL     1      -8.747   0.172   0.092  0.00  0.00    +0.153 HD
BRANCH  16  28
ATOM     28  C   UNL     1      -6.037   0.311   0.065  0.00  0.00    +0.106 C 
ATOM     29  N   UNL     1      -5.836   1.429   0.068  0.00  0.00    -0.191 NA
ENDBRANCH  16  28
ENDBRANCH  14  16
ENDBRANCH  13  14
ENDBRANCH  12  13
ENDBRANCH  10  12
BRANCH   9  30
ATOM     30  C   UNL     1      -0.028  -4.229  -0.019  0.00  0.00    +0.131 C 
BRANCH  30  31
ATOM     31  C   UNL     1      -0.037  -4.746   1.421  0.00  0.00    +0.052 C 
BRANCH  31  32
ATOM     32  C   UNL     1      -0.103  -6.252   1.414  0.00  0.00    -0.072 C 
ATOM     33  C   UNL     1       1.009  -6.909   1.500  0.00  0.00    -0.028 C 
ATOM     34  C   UNL     1       1.104  -8.406   1.496  0.00  0.00    +0.027 C 
ATOM     35  C   UNL     1      -0.263  -9.021   1.804  0.00  0.00    +0.004 C 
ATOM     36  C   UNL     1      -1.308  -8.362   0.895  0.00  0.00    +0.005 C 
ATOM     37  C   UNL     1      -1.454  -6.896   1.315  0.00  0.00    +0.030 C 
ENDBRANCH  31  32
ENDBRANCH  30  31
ENDBRANCH   9  30
TORSDOF 8
