REMARK  Name = ZINC33514855
REMARK  8 active torsions:
REMARK  status: ('A' for Active; 'I' for Inactive)
REMARK    1  A    between atoms: C_1  and  C_2
REMARK    2  A    between atoms: C_5  and  N_8
REMARK    3  A    between atoms: C_9  and  C_19
REMARK    4  A    between atoms: N_10  and  C_11
REMARK    5  A    between atoms: C_14  and  O_17
REMARK    6  A    between atoms: O_17  and  C_18
REMARK    7  A    between atoms: C_29  and  C_31
REMARK    8  A    between atoms: C_36  and  O_37
REMARK                            x       y       z     vdW  Elec       q    Type
REMARK                         _______ _______ _______ _____ _____    ______ ____
ROOT
ATOM      1  N   UNL     1      -1.249   2.149   0.813  0.00  0.00    -0.220 N 
ATOM      2  C   UNL     1      -1.296   3.521   0.628  0.00  0.00    +0.141 C 
ATOM      3  N   UNL     1      -2.385   4.083   0.157  0.00  0.00    -0.231 NA
ATOM      4  C   UNL     1      -2.356   1.405   0.618  0.00  0.00    +0.260 C 
ATOM      5  O   UNL     1      -3.371   1.923   0.197  0.00  0.00    -0.269 OA
ENDROOT
BRANCH   2   6
ATOM      6  C   UNL     1      -0.125   4.351   0.961  0.00  0.00    +0.023 A 
ATOM      7  C   UNL     1       0.465   5.163   0.001  0.00  0.00    +0.012 A 
ATOM      8  C   UNL     1       1.566   5.946   0.319  0.00  0.00    +0.001 A 
ATOM      9  C   UNL     1       2.114   5.944   1.565  0.00  0.00    +0.008 A 
ATOM     10  C   UNL     1       1.572   5.142   2.584  0.00  0.00    -0.017 A 
ATOM     11  C   UNL     1       0.445   4.330   2.306  0.00  0.00    -0.007 A 
ATOM     12  C   UNL     1      -0.097   3.530   3.319  0.00  0.00    +0.009 A 
ATOM     13  C   UNL     1       0.466   3.540   4.560  0.00  0.00    +0.001 A 
ATOM     14  C   UNL     1       1.574   4.338   4.837  0.00  0.00    +0.001 A 
ATOM     15  C   UNL     1       2.127   5.128   3.875  0.00  0.00    +0.008 A 
ENDBRANCH   2   6
BRANCH   1  20
ATOM     16  C   UNL     1       3.606  -0.321   2.399  0.00  0.00    +0.044 C 
ATOM     17  C   UNL     1       2.316   0.334   1.977  0.00  0.00    -0.050 A 
ATOM     18  C   UNL     1       2.290   1.152   0.862  0.00  0.00    +0.005 A 
ATOM     19  C   UNL     1       1.110   1.754   0.473  0.00  0.00    +0.024 A 
ATOM     20  C   UNL     1      -0.052   1.536   1.202  0.00  0.00    +0.043 A 
ATOM     21  C   UNL     1      -0.023   0.713   2.320  0.00  0.00    +0.024 A 
ATOM     22  C   UNL     1       1.161   0.115   2.704  0.00  0.00    +0.005 A 
ENDBRANCH   1  20
BRANCH   3  23
ATOM     23  C   UNL     1      -2.483   5.446   0.105  0.00  0.00    +0.066 A 
ATOM     24  C   UNL     1      -2.327   6.204   1.268  0.00  0.00    +0.031 A 
ATOM     25  C   UNL     1      -2.422   7.578   1.210  0.00  0.00    +0.048 A 
ATOM     26  C   UNL     1      -2.684   8.208   0.000  0.00  0.00    +0.120 A 
ATOM     27  C   UNL     1      -2.846   7.458  -1.157  0.00  0.00    +0.048 A 
ATOM     28  C   UNL     1      -2.747   6.084  -1.110  0.00  0.00    +0.031 A 
BRANCH  26  29
ATOM     29  O   UNL     1      -2.782   9.562  -0.051  0.00  0.00    -0.495 OA
ATOM     30  C   UNL     1      -2.495  10.280   1.151  0.00  0.00    +0.277 C 
ENDBRANCH  26  29
ENDBRANCH   3  23
BRANCH   4  31
ATOM     31  C   UNL     1      -2.334  -0.039   0.917  0.00  0.00    +0.079 A 
ATOM     32  C   UNL     1      -1.214  -0.808   0.591  0.00  0.00    +0.017 A 
ATOM     33  C   UNL     1      -1.199  -2.156   0.876  0.00  0.00    +0.001 A 
ATOM     34  C   UNL     1      -2.294  -2.755   1.477  0.00  0.00    +0.004 A 
ATOM     35  C   UNL     1      -3.409  -2.009   1.800  0.00  0.00    +0.046 A 
ATOM     36  C   UNL     1      -3.441  -0.650   1.524  0.00  0.00    +0.129 A 
BRANCH  36  37
ATOM     37  O   UNL     1      -4.536   0.085   1.840  0.00  0.00    -0.506 OA
ATOM     38  H   UNL     1      -5.403  -0.397   2.317  0.00  0.00    +0.292 HD
ENDBRANCH  36  37
ENDBRANCH   4  31
TORSDOF 6
