REMARK  Name = ZINC39673841
REMARK  8 active torsions:
REMARK  status: ('A' for Active; 'I' for Inactive)
REMARK    1  A    between atoms: C_1  and  C_2
REMARK    2  A    between atoms: C_2  and  C_3
REMARK    3  A    between atoms: C_3  and  C_4
REMARK    4  A    between atoms: C_4  and  C_6
REMARK    5  A    between atoms: C_4  and  N_7
REMARK    6  A    between atoms: C_8  and  C_10
REMARK    7  A    between atoms: C_21  and  C_23
REMARK    8  A    between atoms: C_26  and  C_28
REMARK                            x       y       z     vdW  Elec       q    Type
REMARK                         _______ _______ _______ _____ _____    ______ ____
ROOT
ATOM      1  C   UNL     1       0.393  -4.266   2.563  0.00  0.00    +0.100 C 
ATOM      2  C   UNL     1      -0.660  -4.298   3.694  0.00  0.00    +0.121 C 
ATOM      3  N   UNL     1      -1.171  -5.689   3.689  0.00  0.00    -0.294 N 
ATOM      4  C   UNL     1       0.030  -6.523   3.441  0.00  0.00    +0.115 C 
ATOM      5  C   UNL     1       0.845  -5.727   2.402  0.00  0.00    -0.004 C 
ATOM      6  C   UNL     1       0.533  -6.225   0.994  0.00  0.00    -0.010 C 
ATOM      7  C   UNL     1       1.043  -7.661   0.841  0.00  0.00    -0.082 C 
ATOM      8  N   UNL     1       2.490  -7.696   1.085  0.00  0.00    +0.379 N 
ATOM      9  C   UNL     1       2.775  -7.304   2.471  0.00  0.00    -0.082 C 
ATOM     10  C   UNL     1       2.337  -5.854   2.693  0.00  0.00    -0.010 C 
ATOM     11  C   UNL     1      -2.441  -6.103   3.871  0.00  0.00    +0.282 C 
ATOM     12  O   UNL     1      -2.704  -7.291   3.839  0.00  0.00    -0.267 OA
ATOM     13  H   UNL     1       2.834  -8.631   0.925  0.00  0.00    -0.086 HD
ATOM     14  H   UNL     1       2.952  -7.058   0.455  0.00  0.00    -0.086 HD
ENDROOT
BRANCH  11  15
ATOM     15  C   UNL     1      -3.504  -5.123   4.106  0.00  0.00    +0.190 A 
ATOM     16  C   UNL     1      -4.836  -5.409   4.311  0.00  0.00    +0.055 A 
ATOM     17  C   UNL     1      -5.488  -4.185   4.492  0.00  0.00    +0.051 A 
ATOM     18  C   UNL     1      -4.540  -3.207   4.392  0.00  0.00    +0.139 A 
ATOM     19  O   UNL     1      -3.349  -3.784   4.165  0.00  0.00    -0.450 OA
BRANCH  18  20
ATOM     20  C   UNL     1      -4.784  -1.756   4.519  0.00  0.00    +0.052 A 
ATOM     21  C   UNL     1      -5.810  -1.151   3.790  0.00  0.00    +0.014 A 
ATOM     22  C   UNL     1      -6.033   0.205   3.913  0.00  0.00    +0.001 A 
ATOM     23  C   UNL     1      -5.242   0.967   4.756  0.00  0.00    +0.003 A 
ATOM     24  C   UNL     1      -4.223   0.376   5.481  0.00  0.00    +0.039 A 
ATOM     25  C   UNL     1      -3.992  -0.982   5.373  0.00  0.00    +0.134 A 
ATOM     26  F   UNL     1      -3.001  -1.560   6.086  0.00  0.00    -0.205 F 
ENDBRANCH  18  20
ENDBRANCH  11  15
BRANCH   1  28
ATOM     27  N   UNL     1       0.530  -3.114   0.378  0.00  0.00    -0.312 N 
ATOM     28  C   UNL     1      -0.227  -3.765   1.284  0.00  0.00    +0.218 C 
ATOM     29  O   UNL     1      -1.407  -3.947   1.069  0.00  0.00    -0.275 OA
ATOM     30  H   UNL     1       1.474  -2.969   0.549  0.00  0.00    +0.149 HD
BRANCH  27  31
ATOM     31  C   UNL     1      -0.072  -2.627  -0.866  0.00  0.00    +0.070 C 
ATOM     32  C   UNL     1      -0.702  -1.254  -0.623  0.00  0.00    +0.028 C 
BRANCH  31  33
ATOM     33  C   UNL     1       1.008  -2.510  -1.943  0.00  0.00    +0.022 C 
BRANCH  33  35
ATOM     34  C   UNL     1       2.630  -3.784  -3.352  0.00  0.00    +0.004 C 
ATOM     35  C   UNL     1       1.551  -3.901  -2.275  0.00  0.00    -0.002 C 
ENDBRANCH  33  35
ENDBRANCH  31  33
ENDBRANCH  27  31
ENDBRANCH   1  28
TORSDOF 6
