REMARK  Name = ZINC40841742
REMARK  6 active torsions:
REMARK  status: ('A' for Active; 'I' for Inactive)
REMARK    1  A    between atoms: N_11  and  C_12
REMARK    2  A    between atoms: C_12  and  C_13
REMARK    3  A    between atoms: C_15  and  C_18
REMARK    4  A    between atoms: C_21  and  C_24
REMARK    5  A    between atoms: N_28  and  C_29
REMARK    6  A    between atoms: C_29  and  C_30
REMARK                            x       y       z     vdW  Elec       q    Type
REMARK                         _______ _______ _______ _____ _____    ______ ____
ROOT
ATOM      1  C   UNL     1      -0.016   1.361   0.009  0.00  0.00    +0.002 A 
ATOM      2  C   UNL     1       1.168   2.084   0.002  0.00  0.00    +0.002 A 
ATOM      3  C   UNL     1       2.384   1.434  -0.013  0.00  0.00    +0.028 A 
ATOM      4  C   UNL     1       2.426   0.044  -0.021  0.00  0.00    +0.071 A 
ATOM      5  C   UNL     1       1.226  -0.689  -0.013  0.00  0.00    +0.090 A 
ATOM      6  C   UNL     1       0.002  -0.004   0.002  0.00  0.00    +0.030 A 
ATOM      7  N   UNL     1       1.243  -2.038  -0.020  0.00  0.00    -0.226 NA
ATOM      8  C   UNL     1       2.373  -2.697  -0.035  0.00  0.00    +0.185 A 
ATOM      9  C   UNL     1       3.655  -1.967  -0.044  0.00  0.00    +0.292 A 
ATOM     10  O   UNL     1       4.710  -2.573  -0.057  0.00  0.00    -0.264 OA
ATOM     11  N   UNL     1       3.641  -0.616  -0.036  0.00  0.00    -0.295 N 
ATOM     12  N   UNL     1       2.367  -4.081  -0.042  0.00  0.00    -0.321 N 
ATOM     13  H   UNL     1       3.204  -4.570  -0.052  0.00  0.00    +0.148 HD
ENDROOT
BRANCH  11  14
ATOM     14  C   UNL     1       4.896   0.140  -0.045  0.00  0.00    +0.224 C 
BRANCH  14  15
ATOM     15  C   UNL     1       5.340   0.392   1.373  0.00  0.00    +0.248 A 
ATOM     16  N   UNL     1       6.114  -0.384   2.078  0.00  0.00    -0.190 NA
ATOM     17  C   UNL     1       6.307   0.145   3.299  0.00  0.00    +0.202 A 
ATOM     18  N   UNL     1       5.646   1.274   3.376  0.00  0.00    -0.056 NA
ATOM     19  O   UNL     1       5.011   1.454   2.119  0.00  0.00    -0.336 OA
BRANCH  17  20
ATOM     20  C   UNL     1       7.129  -0.452   4.381  0.00  0.00    +0.022 A 
ATOM     21  C   UNL     1       7.789  -1.662   4.171  0.00  0.00    +0.012 A 
ATOM     22  C   UNL     1       8.552  -2.212   5.181  0.00  0.00    +0.013 A 
ATOM     23  C   UNL     1       8.663  -1.566   6.399  0.00  0.00    +0.055 A 
ATOM     24  C   UNL     1       8.010  -0.365   6.612  0.00  0.00    +0.013 A 
ATOM     25  C   UNL     1       7.249   0.197   5.608  0.00  0.00    +0.012 A 
BRANCH  23  26
ATOM     26  C   UNL     1       9.497  -2.173   7.497  0.00  0.00    +0.417 C 
ATOM     27  F   UNL     1      10.813  -1.708   7.395  0.00  0.00    -0.166 F 
ATOM     28  F   UNL     1       8.969  -1.807   8.740  0.00  0.00    -0.166 F 
ATOM     29  F   UNL     1       9.485  -3.567   7.377  0.00  0.00    -0.166 F 
ENDBRANCH  23  26
ENDBRANCH  17  20
ENDBRANCH  14  15
ENDBRANCH  11  14
BRANCH  12  30
ATOM     30  C   UNL     1       1.094  -4.807  -0.032  0.00  0.00    +0.138 C 
BRANCH  30  31
ATOM     31  C   UNL     1       1.362  -6.290  -0.043  0.00  0.00    -0.030 A 
ATOM     32  C   UNL     1       1.479  -6.963  -1.245  0.00  0.00    +0.008 A 
ATOM     33  C   UNL     1       1.725  -8.322  -1.255  0.00  0.00    +0.038 A 
ATOM     34  C   UNL     1       1.855  -9.011  -0.061  0.00  0.00    +0.123 A 
ATOM     35  C   UNL     1       1.738  -8.336   1.142  0.00  0.00    +0.038 A 
ATOM     36  C   UNL     1       1.497  -6.975   1.150  0.00  0.00    +0.008 A 
ATOM     37  F   UNL     1       2.095 -10.340  -0.070  0.00  0.00    -0.205 F 
ENDBRANCH  30  31
ENDBRANCH  12  30
TORSDOF 6
