REMARK  Name = ZINC36588963
REMARK  10 active torsions:
REMARK  status: ('A' for Active; 'I' for Inactive)
REMARK    1  A    between atoms: C_1  and  C_2
REMARK    2  A    between atoms: C_2  and  C_3
REMARK    3  A    between atoms: C_2  and  C_4
REMARK    4  A    between atoms: C_2  and  N_5
REMARK    5  A    between atoms: N_5  and  C_6
REMARK    6  A    between atoms: C_6  and  C_8
REMARK    7  A    between atoms: C_6  and  C_17
REMARK    8  A    between atoms: C_11  and  N_14
REMARK    9  A    between atoms: N_19  and  C_20
REMARK   10  A    between atoms: C_26  and  C_28
REMARK                            x       y       z     vdW  Elec       q    Type
REMARK                         _______ _______ _______ _____ _____    ______ ____
ROOT
ATOM      1  C   UNL     1       1.349  -1.527   0.259  0.00  0.00    +0.193 C 
ENDROOT
BRANCH   1   2
ATOM      2  C   UNL     1       1.681  -2.828   0.944  0.00  0.00    -0.018 A 
ATOM      3  C   UNL     1       0.680  -3.569   1.543  0.00  0.00    +0.008 A 
ATOM      4  C   UNL     1       0.984  -4.762   2.171  0.00  0.00    +0.033 A 
ATOM      5  C   UNL     1       2.290  -5.214   2.201  0.00  0.00    +0.126 A 
ATOM      6  C   UNL     1       3.292  -4.473   1.602  0.00  0.00    +0.033 A 
ATOM      7  C   UNL     1       2.986  -3.282   0.969  0.00  0.00    +0.008 A 
BRANCH   5   8
ATOM      8  N   UNL     1       2.616  -6.491   2.875  0.00  0.00    +0.056 N 
ATOM      9  O   UNL     1       1.740  -7.138   3.400  0.00  0.00    -0.126 OA
ATOM     10  O   UNL     1       3.758  -6.886   2.901  0.00  0.00    -0.126 OA
ENDBRANCH   5   8
ENDBRANCH   1   2
BRANCH   1  11
ATOM     11  C   UNL     1       1.467  -0.395   1.246  0.00  0.00    +0.238 C 
ATOM     12  O   UNL     1       0.510   0.314   1.474  0.00  0.00    -0.273 OA
ATOM     13  N   UNL     1       2.637  -0.170   1.877  0.00  0.00    -0.311 N 
ATOM     14  H   UNL     1       3.403  -0.737   1.695  0.00  0.00    +0.149 HD
BRANCH  13  15
ATOM     15  C   UNL     1       2.752   0.931   2.837  0.00  0.00    +0.073 C 
ATOM     16  C   UNL     1       3.073   2.227   2.090  0.00  0.00    +0.022 C 
ATOM     17  C   UNL     1       3.193   3.377   3.092  0.00  0.00    +0.002 C 
ATOM     18  C   UNL     1       4.314   3.071   4.088  0.00  0.00    +0.000 C 
ATOM     19  C   UNL     1       3.992   1.775   4.835  0.00  0.00    +0.002 C 
ATOM     20  C   UNL     1       3.872   0.625   3.833  0.00  0.00    +0.022 C 
ENDBRANCH  13  15
ENDBRANCH   1  11
BRANCH   1  21
ATOM     21  N   UNL     1      -0.020  -1.583  -0.258  0.00  0.00    -0.277 N 
ATOM     22  C   UNL     1      -1.036  -1.925   0.559  0.00  0.00    +0.248 C 
ATOM     23  O   UNL     1      -0.968  -1.681   1.748  0.00  0.00    -0.270 OA
BRANCH  22  24
ATOM     24  C   UNL     1      -2.233  -2.597   0.010  0.00  0.00    +0.037 A 
ATOM     25  C   UNL     1      -2.419  -2.678  -1.371  0.00  0.00    +0.013 A 
ATOM     26  C   UNL     1      -3.538  -3.307  -1.877  0.00  0.00    +0.001 A 
ATOM     27  C   UNL     1      -4.474  -3.856  -1.019  0.00  0.00    +0.000 A 
ATOM     28  C   UNL     1      -4.296  -3.778   0.351  0.00  0.00    +0.001 A 
ATOM     29  C   UNL     1      -3.178  -3.158   0.870  0.00  0.00    +0.013 A 
ENDBRANCH  22  24
BRANCH  21  31
ATOM     30  C   UNL     1       0.757  -0.268  -2.168  0.00  0.00    +0.031 C 
ATOM     31  C   UNL     1      -0.285  -1.268  -1.664  0.00  0.00    +0.030 C 
ATOM     32  C   UNL     1      -1.682  -0.658  -1.795  0.00  0.00    +0.031 C 
ATOM     33  C   UNL     1      -0.208  -2.549  -2.497  0.00  0.00    +0.031 C 
ENDBRANCH  21  31
ENDBRANCH   1  21
TORSDOF 7
