REMARK  Name = ZINC06197816
REMARK  10 active torsions:
REMARK  status: ('A' for Active; 'I' for Inactive)
REMARK    1  A    between atoms: C_1  and  C_2
REMARK    2  A    between atoms: C_2  and  C_3
REMARK    3  A    between atoms: C_10  and  C_15
REMARK    4  A    between atoms: C_15  and  N_67
REMARK    5  A    between atoms: C_16  and  C_17
REMARK    6  A    between atoms: C_16  and  N_67
REMARK    7  A    between atoms: C_26  and  C_27
REMARK    8  A    between atoms: C_26  and  N_67
REMARK    9  A    between atoms: N_31  and  C_32
REMARK   10  A    between atoms: C_32  and  C_33
REMARK                            x       y       z     vdW  Elec       q    Type
REMARK                         _______ _______ _______ _____ _____    ______ ____
ROOT
ATOM      1  N   UNL     1      -2.567   5.008  -1.393  0.00  0.00    +0.390 N 
ATOM      2  H   UNL     1      -2.597   3.986  -1.489  0.00  0.00    -0.080 HD
ENDROOT
BRANCH   1   3
ATOM      3  C   UNL     1      -3.931   5.547  -1.576  0.00  0.00    -0.036 C 
BRANCH   3  11
ATOM      4  C   UNL     1      -7.819   3.434   2.750  0.00  0.00    -0.047 A 
ATOM      5  C   UNL     1      -8.162   2.261   2.091  0.00  0.00    +0.005 A 
ATOM      6  C   UNL     1      -7.619   1.961   0.860  0.00  0.00    +0.026 A 
ATOM      7  C   UNL     1      -6.718   2.841   0.270  0.00  0.00    +0.049 A 
ATOM      8  C   UNL     1      -6.373   4.029   0.941  0.00  0.00    -0.001 A 
ATOM      9  C   UNL     1      -6.936   4.313   2.189  0.00  0.00    +0.013 A 
ATOM     10  C   UNL     1      -5.424   4.949   0.311  0.00  0.00    +0.017 A 
ATOM     11  C   UNL     1      -4.910   4.622  -0.900  0.00  0.00    +0.001 A 
ATOM     12  C   UNL     1      -5.294   3.420  -1.533  0.00  0.00    +0.251 A 
ATOM     13  O   UNL     1      -4.824   3.147  -2.624  0.00  0.00    -0.268 OA
ATOM     14  N   UNL     1      -6.160   2.566  -0.960  0.00  0.00    -0.322 N 
ATOM     15  H   UNL     1      -6.403   1.719  -1.433  0.00  0.00    +0.169 HD
BRANCH   4  17
ATOM     16  C   UNL     1      -7.537   3.160   5.198  0.00  0.00    +0.009 C 
ATOM     17  C   UNL     1      -8.425   3.740   4.095  0.00  0.00    +0.032 C 
ENDBRANCH   4  17
ENDBRANCH   3  11
ENDBRANCH   1   3
BRANCH   1  18
ATOM     18  C   UNL     1      -2.067   5.348  -0.044  0.00  0.00    -0.042 C 
BRANCH  18  19
ATOM     19  C   UNL     1      -1.915   6.840   0.102  0.00  0.00    -0.060 A 
ATOM     20  C   UNL     1      -2.947   7.590   0.635  0.00  0.00    +0.005 A 
ATOM     21  C   UNL     1      -2.813   8.959   0.772  0.00  0.00    +0.050 A 
ATOM     22  C   UNL     1      -1.642   9.584   0.373  0.00  0.00    +0.166 A 
ATOM     23  C   UNL     1      -0.602   8.829  -0.165  0.00  0.00    +0.166 A 
ATOM     24  C   UNL     1      -0.746   7.458  -0.302  0.00  0.00    +0.051 A 
ATOM     25  O   UNL     1       0.429   9.667  -0.476  0.00  0.00    -0.453 OA
ATOM     26  C   UNL     1       0.170  10.882   0.251  0.00  0.00    +0.466 C 
ATOM     27  O   UNL     1      -1.262  10.894   0.398  0.00  0.00    -0.453 OA
ENDBRANCH  18  19
ENDBRANCH   1  18
BRANCH   1  28
ATOM     28  C   UNL     1      -1.663   5.561  -2.422  0.00  0.00    +0.001 C 
BRANCH  28  29
ATOM     29  C   UNL     1      -0.466   4.654  -2.550  0.00  0.00    +0.135 A 
ATOM     30  N   UNL     1       0.632   4.702  -1.836  0.00  0.00    -0.115 NA
ATOM     31  N   UNL     1       1.414   3.762  -2.245  0.00  0.00    -0.023 NA
ATOM     32  N   UNL     1       0.846   3.122  -3.206  0.00  0.00    -0.044 NA
ATOM     33  N   UNL     1      -0.315   3.641  -3.424  0.00  0.00    -0.229 N 
BRANCH  33  34
ATOM     34  C   UNL     1      -1.286   3.211  -4.433  0.00  0.00    +0.178 C 
BRANCH  34  35
ATOM     35  C   UNL     1      -1.037   3.970  -5.737  0.00  0.00    +0.140 C 
ATOM     36  C   UNL     1      -2.125   3.608  -6.770  0.00  0.00    +0.035 C 
ATOM     37  C   UNL     1      -1.313   3.529  -8.091  0.00  0.00    +0.031 C 
ATOM     38  C   UNL     1       0.037   2.973  -7.574  0.00  0.00    +0.160 C 
ATOM     39  O   UNL     1       0.228   3.587  -6.289  0.00  0.00    -0.375 OA
ENDBRANCH  34  35
ENDBRANCH  33  34
ENDBRANCH  28  29
ENDBRANCH   1  28
TORSDOF 9
