REMARK  Name = ZINC46722347
REMARK  6 active torsions:
REMARK  status: ('A' for Active; 'I' for Inactive)
REMARK    1  A    between atoms: C_4  and  C_7
REMARK    2  A    between atoms: C_7  and  C_9
REMARK    3  A    between atoms: C_7  and  C_26
REMARK    4  A    between atoms: C_9  and  N_10
REMARK    5  A    between atoms: N_10  and  S_11
REMARK    6  A    between atoms: S_11  and  C_14
REMARK                            x       y       z     vdW  Elec       q    Type
REMARK                         _______ _______ _______ _____ _____    ______ ____
ROOT
ATOM      1  C   UNL     1       3.791  -1.579  -1.292  0.00  0.00    +0.118 C 
ENDROOT
BRANCH   1   2
ATOM      2  N   UNL     1       3.810  -0.724  -2.481  0.00  0.00    -0.189 NA
ATOM      3  H   UNL     1       3.558   0.210  -2.411  0.00  0.00    +0.148 HD
BRANCH   2   4
ATOM      4  S   UNL     1       4.261  -1.351  -3.946  0.00  0.00    +0.060 S 
ATOM      5  O   UNL     1       4.152  -0.296  -4.891  0.00  0.00    -0.153 OA
ATOM      6  O   UNL     1       5.476  -2.056  -3.728  0.00  0.00    -0.153 OA
BRANCH   4   7
ATOM      7  C   UNL     1       3.054  -2.554  -4.392  0.00  0.00    +0.127 A 
ATOM      8  C   UNL     1       2.260  -2.353  -5.507  0.00  0.00    +0.077 A 
ATOM      9  C   UNL     1       1.311  -3.297  -5.857  0.00  0.00    +0.144 A 
ATOM     10  C   UNL     1       1.159  -4.448  -5.086  0.00  0.00    +0.077 A 
ATOM     11  C   UNL     1       1.956  -4.645  -3.971  0.00  0.00    +0.049 A 
ATOM     12  C   UNL     1       2.907  -3.699  -3.629  0.00  0.00    +0.069 A 
ATOM     13 CL   UNL     1       3.913  -3.947  -2.237  0.00  0.00    -0.081 Cl
ATOM     14  N   UNL     1       0.193  -5.396  -5.452  0.00  0.00    -0.280 N 
ATOM     15  C   UNL     1      -0.342  -5.341  -6.692  0.00  0.00    +0.255 C 
ATOM     16  O   UNL     1      -1.201  -6.131  -7.020  0.00  0.00    -0.272 OA
ATOM     17  C   UNL     1       0.133  -4.292  -7.665  0.00  0.00    +0.325 C 
ATOM     18  O   UNL     1       0.523  -3.116  -6.951  0.00  0.00    -0.481 OA
ATOM     19  H   UNL     1      -0.087  -6.082  -4.826  0.00  0.00    +0.155 HD
ENDBRANCH   4   7
ENDBRANCH   2   4
ENDBRANCH   1   2
BRANCH   1  20
ATOM     20  C   UNL     1       3.711  -0.707  -0.038  0.00  0.00    +0.066 C 
BRANCH  20  21
ATOM     21  C   UNL     1       3.816  -1.579   1.188  0.00  0.00    -0.014 A 
ATOM     22  C   UNL     1       2.988  -2.579   1.529  0.00  0.00    +0.088 A 
ATOM     23  N   UNL     1       3.398  -3.143   2.706  0.00  0.00    -0.360 N 
ATOM     24  H   UNL     1       2.958  -3.883   3.153  0.00  0.00    +0.165 HD
ATOM     25  C   UNL     1       4.528  -2.502   3.163  0.00  0.00    +0.047 A 
ATOM     26  C   UNL     1       4.843  -1.499   2.229  0.00  0.00    +0.003 A 
ATOM     27  C   UNL     1       5.958  -0.683   2.431  0.00  0.00    +0.010 A 
ATOM     28  C   UNL     1       6.741  -0.866   3.536  0.00  0.00    +0.001 A 
ATOM     29  C   UNL     1       6.437  -1.858   4.459  0.00  0.00    +0.002 A 
ATOM     30  C   UNL     1       5.336  -2.668   4.283  0.00  0.00    +0.026 A 
ENDBRANCH  20  21
BRANCH  20  34
ATOM     31  C   UNL     1      -0.017   1.378   0.010  0.00  0.00    +0.000 A 
ATOM     32  C   UNL     1       1.171   2.086   0.002  0.00  0.00    +0.000 A 
ATOM     33  C   UNL     1       2.377   1.411  -0.013  0.00  0.00    +0.004 A 
ATOM     34  C   UNL     1       2.396   0.029  -0.020  0.00  0.00    -0.039 A 
ATOM     35  C   UNL     1       1.208  -0.679  -0.012  0.00  0.00    +0.004 A 
ATOM     36  C   UNL     1       0.002  -0.004   0.002  0.00  0.00    +0.000 A 
ENDBRANCH  20  34
ENDBRANCH   1  20
TORSDOF 6
