REMARK  Name = ZINC36699126
REMARK  5 active torsions:
REMARK  status: ('A' for Active; 'I' for Inactive)
REMARK    1  A    between atoms: C_1  and  C_2
REMARK    2  A    between atoms: C_5  and  S_8
REMARK    3  A    between atoms: S_8  and  N_11
REMARK    4  A    between atoms: C_18  and  N_21
REMARK    5  A    between atoms: C_22  and  C_24
REMARK                            x       y       z     vdW  Elec       q    Type
REMARK                         _______ _______ _______ _____ _____    ______ ____
ROOT
ATOM      1  N   UNL     1       1.655  -5.030  -0.028  0.00  0.00    -0.203 N 
ATOM      2  C   UNL     1       2.335  -5.343  -1.292  0.00  0.00    +0.132 C 
ATOM      3  C   UNL     1       3.134  -6.636  -1.086  0.00  0.00    +0.025 C 
ATOM      4  C   UNL     1       4.207  -6.391  -0.025  0.00  0.00    +0.038 C 
ATOM      5  C   UNL     1       3.596  -5.784   1.211  0.00  0.00    -0.025 A 
ATOM      6  C   UNL     1       2.372  -5.131   1.169  0.00  0.00    +0.056 A 
ATOM      7  C   UNL     1       1.839  -4.572   2.324  0.00  0.00    +0.048 A 
ATOM      8  C   UNL     1       2.532  -4.664   3.522  0.00  0.00    +0.036 A 
ATOM      9  C   UNL     1       3.759  -5.316   3.561  0.00  0.00    +0.024 A 
ATOM     10  C   UNL     1       4.282  -5.879   2.411  0.00  0.00    +0.007 A 
ENDROOT
BRANCH   8  11
ATOM     11  N   UNL     1       1.999  -4.102   4.686  0.00  0.00    -0.278 N 
ATOM     12  C   UNL     1       2.818  -3.554   5.606  0.00  0.00    +0.304 C 
ATOM     13  O   UNL     1       4.007  -3.461   5.381  0.00  0.00    -0.265 OA
ATOM     14  H   UNL     1       1.040  -4.107   4.831  0.00  0.00    +0.155 HD
BRANCH  12  15
ATOM     15  C   UNL     1       2.262  -3.063   6.901  0.00  0.00    +0.306 C 
ATOM     16  O   UNL     1       1.063  -3.071   7.089  0.00  0.00    -0.265 OA
ATOM     17  N   UNL     1       3.091  -2.608   7.861  0.00  0.00    -0.263 N 
ATOM     18  C   UNL     1       4.540  -2.444   7.711  0.00  0.00    +0.119 C 
ATOM     19  C   UNL     1       5.027  -1.905   9.066  0.00  0.00    +0.056 C 
ATOM     20  C   UNL     1       3.774  -1.803   9.907  0.00  0.00    -0.024 A 
ATOM     21  C   UNL     1       2.695  -2.220   9.142  0.00  0.00    +0.040 A 
ATOM     22  C   UNL     1       1.419  -2.208   9.709  0.00  0.00    +0.024 A 
ATOM     23  C   UNL     1       1.238  -1.782  11.008  0.00  0.00    +0.002 A 
ATOM     24  C   UNL     1       2.321  -1.364  11.759  0.00  0.00    +0.000 A 
ATOM     25  C   UNL     1       3.589  -1.382  11.209  0.00  0.00    +0.005 A 
ENDBRANCH  12  15
ENDBRANCH   8  11
BRANCH   1  26
ATOM     26  S   UNL     1       0.067  -4.559  -0.021  0.00  0.00    +0.075 S 
ATOM     27  O   UNL     1      -0.473  -4.972   1.226  0.00  0.00    -0.150 OA
ATOM     28  O   UNL     1      -0.484  -4.972  -1.264  0.00  0.00    -0.150 OA
BRANCH  26  33
ATOM     29  C   UNL     1      -0.007   1.474  -0.021  0.00  0.00    +0.044 C 
ATOM     30  C   UNL     1       0.011  -0.033  -0.021  0.00  0.00    -0.050 A 
ATOM     31  C   UNL     1       0.016  -0.724  -1.218  0.00  0.00    +0.005 A 
ATOM     32  C   UNL     1       0.033  -2.106  -1.218  0.00  0.00    +0.029 A 
ATOM     33  C   UNL     1       0.046  -2.797  -0.021  0.00  0.00    +0.109 A 
ATOM     34  C   UNL     1       0.043  -2.106   1.176  0.00  0.00    +0.029 A 
ATOM     35  C   UNL     1       0.030  -0.724   1.176  0.00  0.00    +0.005 A 
ENDBRANCH  26  33
ENDBRANCH   1  26
TORSDOF 4
