REMARK  Name = ZINC24223685
REMARK  7 active torsions:
REMARK  status: ('A' for Active; 'I' for Inactive)
REMARK    1  A    between atoms: C_1  and  C_2
REMARK    2  A    between atoms: C_5  and  N_9
REMARK    3  A    between atoms: C_6  and  C_8
REMARK    4  A    between atoms: C_19  and  S_20
REMARK    5  A    between atoms: S_20  and  C_21
REMARK    6  A    between atoms: C_21  and  C_23
REMARK    7  A    between atoms: C_21  and  C_24
REMARK                            x       y       z     vdW  Elec       q    Type
REMARK                         _______ _______ _______ _____ _____    ______ ____
ROOT
ATOM      1  N   UNL     1      -2.458   3.824   0.046  0.00  0.00    -0.255 N 
ATOM      2  C   UNL     1      -3.034   4.142   1.228  0.00  0.00    +0.267 A 
ATOM      3  O   UNL     1      -2.511   3.842   2.286  0.00  0.00    -0.267 OA
ATOM      4  C   UNL     1      -4.312   4.865   1.188  0.00  0.00    +0.065 A 
ATOM      5  C   UNL     1      -4.983   5.240   2.352  0.00  0.00    +0.015 A 
ATOM      6  C   UNL     1      -6.173   5.908   2.258  0.00  0.00    +0.001 A 
ATOM      7  C   UNL     1      -6.719   6.214   1.018  0.00  0.00    +0.002 A 
ATOM      8  C   UNL     1      -6.083   5.858  -0.138  0.00  0.00    +0.028 A 
ATOM      9  C   UNL     1      -4.865   5.175  -0.075  0.00  0.00    +0.079 A 
ATOM     10  N   UNL     1      -4.202   4.803  -1.195  0.00  0.00    -0.223 NA
ATOM     11  C   UNL     1      -3.061   4.162  -1.134  0.00  0.00    +0.177 A 
ENDROOT
BRANCH   1  16
ATOM     12  C   UNL     1       2.490   1.045  -0.016  0.00  0.00    +0.044 C 
ATOM     13  C   UNL     1       1.176   1.783   0.000  0.00  0.00    -0.050 A 
ATOM     14  C   UNL     1       1.161   3.166   0.007  0.00  0.00    +0.005 A 
ATOM     15  C   UNL     1      -0.041   3.845   0.023  0.00  0.00    +0.027 A 
ATOM     16  C   UNL     1      -1.236   3.138   0.031  0.00  0.00    +0.055 A 
ATOM     17  C   UNL     1      -1.218   1.749   0.017  0.00  0.00    -0.026 A 
ATOM     18  C   UNL     1      -0.013   1.076   0.008  0.00  0.00    +0.008 A 
ATOM     19  C   UNL     1      -2.513   0.978   0.019  0.00  0.00    +0.046 C 
ENDBRANCH   1  16
BRANCH  11  20
ATOM     20  S   UNL     1      -2.266   3.716  -2.642  0.00  0.00    -0.075 S 
BRANCH  20  21
ATOM     21  C   UNL     1      -3.455   4.383  -3.833  0.00  0.00    +0.137 C 
ATOM     22  C   UNL     1      -3.500   5.907  -3.709  0.00  0.00    +0.029 C 
BRANCH  21  23
ATOM     23  C   UNL     1      -3.033   4.005  -5.229  0.00  0.00    +0.236 C 
ATOM     24  O   UNL     1      -1.886   3.681  -5.449  0.00  0.00    -0.274 OA
ATOM     25  N   UNL     1      -3.932   4.026  -6.234  0.00  0.00    -0.224 N 
ATOM     26  C   UNL     1      -3.650   3.686  -7.636  0.00  0.00    +0.136 C 
ATOM     27  C   UNL     1      -5.007   3.872  -8.341  0.00  0.00    +0.125 C 
ATOM     28  N   UNL     1      -5.908   4.305  -7.263  0.00  0.00    -0.297 N 
ATOM     29  C   UNL     1      -5.222   4.364  -6.114  0.00  0.00    +0.309 C 
ATOM     30  O   UNL     1      -5.725   4.696  -5.058  0.00  0.00    -0.252 OA
ATOM     31  H   UNL     1      -6.964   4.520  -7.481  0.00  0.00    +0.150 HD
ENDBRANCH  21  23
ENDBRANCH  20  21
ENDBRANCH  11  20
TORSDOF 4
