REMARK  Name = ZINC38971074
REMARK  6 active torsions:
REMARK  status: ('A' for Active; 'I' for Inactive)
REMARK    1  A    between atoms: C_1  and  C_2
REMARK    2  A    between atoms: C_4  and  C_32
REMARK    3  A    between atoms: C_6  and  N_8
REMARK    4  A    between atoms: N_8  and  C_9
REMARK    5  A    between atoms: N_12  and  S_13
REMARK    6  A    between atoms: S_13  and  C_16
REMARK                            x       y       z     vdW  Elec       q    Type
REMARK                         _______ _______ _______ _____ _____    ______ ____
ROOT
ATOM      1  C   UNL     1       0.159  -2.076   3.662  0.00  0.00    +0.237 C 
ATOM      2  C   UNL     1       1.329  -2.656   4.423  0.00  0.00    +0.192 C 
ATOM      3  N   UNL     1       2.520  -2.656   3.901  0.00  0.00    -0.110 NA
ATOM      4  N   UNL     1       1.121  -3.169   5.646  0.00  0.00    -0.226 NA
ATOM      5  C   UNL     1      -0.075  -3.180   6.196  0.00  0.00    +0.089 A 
ATOM      6  C   UNL     1      -0.259  -3.731   7.489  0.00  0.00    +0.030 A 
ATOM      7  C   UNL     1      -1.484  -3.745   8.058  0.00  0.00    +0.002 A 
ATOM      8  C   UNL     1      -2.624  -3.228   7.420  0.00  0.00    +0.002 A 
ATOM      9  C   UNL     1      -2.561  -2.681   6.186  0.00  0.00    +0.027 A 
ATOM     10  C   UNL     1      -1.262  -2.627   5.498  0.00  0.00    +0.063 A 
ATOM     11  N   UNL     1      -1.163  -2.106   4.308  0.00  0.00    -0.359 N 
ATOM     12  H   UNL     1      -1.943  -1.746   3.858  0.00  0.00    +0.162 HD
ENDROOT
BRANCH   3  13
ATOM     13  S   UNL     1       3.794  -3.294   4.746  0.00  0.00    +0.102 S 
ATOM     14  O   UNL     1       3.991  -2.457   5.878  0.00  0.00    -0.146 OA
ATOM     15  O   UNL     1       3.546  -4.688   4.864  0.00  0.00    -0.146 OA
BRANCH  13  16
ATOM     16  C   UNL     1       5.228  -3.121   3.736  0.00  0.00    +0.132 A 
ATOM     17  C   UNL     1       6.266  -2.305   4.145  0.00  0.00    +0.050 A 
ATOM     18  C   UNL     1       7.391  -2.169   3.352  0.00  0.00    +0.043 A 
ATOM     19  C   UNL     1       7.478  -2.850   2.150  0.00  0.00    +0.021 A 
ATOM     20  C   UNL     1       6.440  -3.666   1.742  0.00  0.00    +0.023 A 
ATOM     21  C   UNL     1       5.316  -3.806   2.538  0.00  0.00    +0.068 A 
ATOM     22 CL   UNL     1       4.015  -4.836   2.029  0.00  0.00    -0.082 Cl
ATOM     23 CL   UNL     1       8.695  -1.144   3.864  0.00  0.00    -0.083 Cl
ENDBRANCH  13  16
ENDBRANCH   3  13
BRANCH   1  24
ATOM     24  N   UNL     1       0.051  -2.796   2.390  0.00  0.00    -0.318 N 
ATOM     25  H   UNL     1       0.027  -3.766   2.383  0.00  0.00    +0.148 HD
BRANCH  24  31
ATOM     26  C   UNL     1      -0.364   1.494   0.029  0.00  0.00    +0.044 C 
ATOM     27  C   UNL     1      -0.217  -0.006   0.014  0.00  0.00    -0.048 A 
ATOM     28  C   UNL     1      -0.150  -0.681  -1.190  0.00  0.00    +0.006 A 
ATOM     29  C   UNL     1      -0.016  -2.058  -1.209  0.00  0.00    -0.048 A 
ATOM     30  C   UNL     1       0.051  -2.762  -0.023  0.00  0.00    +0.026 A 
ATOM     31  C   UNL     1      -0.016  -2.087   1.189  0.00  0.00    +0.029 A 
ATOM     32  C   UNL     1      -0.145  -0.704   1.204  0.00  0.00    +0.026 A 
ATOM     33  C   UNL     1       0.057  -2.789  -2.524  0.00  0.00    +0.044 C 
ENDBRANCH  24  31
ENDBRANCH   1  24
TORSDOF 4
