REMARK  Name = ZINC63228848
REMARK  6 active torsions:
REMARK  status: ('A' for Active; 'I' for Inactive)
REMARK    1  A    between atoms: C_1  and  C_2
REMARK    2  A    between atoms: C_9  and  C_14
REMARK    3  A    between atoms: N_16  and  C_17
REMARK    4  A    between atoms: C_17  and  C_18
REMARK    5  A    between atoms: C_18  and  C_20
REMARK    6  A    between atoms: C_18  and  C_27
REMARK                            x       y       z     vdW  Elec       q    Type
REMARK                         _______ _______ _______ _____ _____    ______ ____
ROOT
ATOM      1  C   UNL     1      -0.407  -8.705   2.239  0.00  0.00    +0.117 C 
ENDROOT
BRANCH   1   4
ATOM      2  C   UNL     1      -0.820  -6.372   1.671  0.00  0.00    +0.244 C 
ATOM      3  O   UNL     1      -1.906  -6.701   1.234  0.00  0.00    -0.270 OA
ATOM      4  N   UNL     1       0.004  -7.300   2.196  0.00  0.00    -0.310 N 
ATOM      5  H   UNL     1       0.870  -7.037   2.545  0.00  0.00    +0.149 HD
BRANCH   2  13
ATOM      6  C   UNL     1      -0.019   1.526   0.010  0.00  0.00    +0.029 C 
ATOM      7  C   UNL     1       0.002  -0.004   0.002  0.00  0.00    +0.134 C 
ATOM      8  C   UNL     1      -1.408  -0.527   0.019  0.00  0.00    +0.230 C 
ATOM      9  O   UNL     1      -2.287   0.178  -0.430  0.00  0.00    -0.274 OA
ATOM     10  N   UNL     1      -1.745  -1.721   0.500  0.00  0.00    -0.284 N 
ATOM     11  C   UNL     1      -0.877  -2.666   1.042  0.00  0.00    +0.048 A 
ATOM     12  C   UNL     1      -1.262  -3.997   1.085  0.00  0.00    +0.037 A 
ATOM     13  C   UNL     1      -0.406  -4.957   1.629  0.00  0.00    +0.039 A 
ATOM     14  C   UNL     1       0.842  -4.580   2.133  0.00  0.00    +0.014 A 
ATOM     15  C   UNL     1       1.226  -3.258   2.090  0.00  0.00    +0.017 A 
ATOM     16  C   UNL     1       0.377  -2.304   1.547  0.00  0.00    +0.030 A 
ATOM     17  S   UNL     1       0.874  -0.610   1.478  0.00  0.00    -0.111 S 
ATOM     18  H   UNL     1      -2.685  -1.956   0.470  0.00  0.00    +0.155 HD
ENDBRANCH   2  13
ENDBRANCH   1   4
BRANCH   1  19
ATOM     19  C   UNL     1       0.703  -9.543   2.878  0.00  0.00    +0.066 C 
BRANCH  19  20
ATOM     20  C   UNL     1       0.232 -10.966   3.034  0.00  0.00    -0.033 C 
ATOM     21  C   UNL     1       0.113 -11.661   4.188  0.00  0.00    -0.000 A 
ATOM     22  C   UNL     1       0.378 -11.314   5.589  0.00  0.00    +0.010 A 
ATOM     23  C   UNL     1       0.159 -12.243   6.547  0.00  0.00    +0.001 A 
ATOM     24  C   UNL     1      -0.312 -13.526   6.236  0.00  0.00    +0.002 A 
ATOM     25  C   UNL     1      -0.577 -13.919   4.972  0.00  0.00    +0.026 A 
ATOM     26  C   UNL     1      -0.384 -13.022   3.886  0.00  0.00    +0.043 A 
ATOM     27  N   UNL     1      -0.565 -13.163   2.595  0.00  0.00    -0.380 N 
ATOM     28  C   UNL     1      -0.209 -11.903   1.932  0.00  0.00    +0.145 C 
ATOM     29  H   UNL     1      -0.886 -13.964   2.152  0.00  0.00    +0.160 HD
ENDBRANCH  19  20
BRANCH  19  30
ATOM     30  C   UNL     1       1.926  -9.511   1.997  0.00  0.00    -0.020 A 
ATOM     31  C   UNL     1       1.854  -9.979   0.698  0.00  0.00    +0.006 A 
ATOM     32  C   UNL     1       2.975  -9.950  -0.110  0.00  0.00    +0.000 A 
ATOM     33  C   UNL     1       4.169  -9.455   0.381  0.00  0.00    +0.001 A 
ATOM     34  C   UNL     1       4.242  -8.987   1.680  0.00  0.00    +0.020 A 
ATOM     35  C   UNL     1       3.118  -9.010   2.487  0.00  0.00    +0.045 A 
ATOM     36 CL   UNL     1       3.207  -8.417   4.116  0.00  0.00    -0.083 Cl
ENDBRANCH  19  30
ENDBRANCH   1  19
TORSDOF 5
