REMARK  Name = ZINC01192407
REMARK  10 active torsions:
REMARK  status: ('A' for Active; 'I' for Inactive)
REMARK    1  A    between atoms: C_1  and  C_2
REMARK    2  A    between atoms: C_5  and  N_8
REMARK    3  A    between atoms: C_10  and  C_14
REMARK    4  A    between atoms: C_11  and  C_13
REMARK    5  A    between atoms: C_14  and  C_16
REMARK    6  A    between atoms: C_14  and  C_25
REMARK    7  A    between atoms: C_21  and  N_22
REMARK    8  A    between atoms: C_27  and  C_39
REMARK    9  A    between atoms: N_29  and  C_32
REMARK   10  A    between atoms: C_35  and  C_38
REMARK                            x       y       z     vdW  Elec       q    Type
REMARK                         _______ _______ _______ _____ _____    ______ ____
ROOT
ATOM      1  C   UNL     1      -0.090  -8.700   2.738  0.00  0.00    +0.076 C 
ENDROOT
BRANCH   1   4
ATOM      2  N   UNL     1      -2.303  -5.772   3.098  0.00  0.00    -0.219 N 
ATOM      3  C   UNL     1      -1.380  -6.613   3.606  0.00  0.00    +0.276 A 
ATOM      4  C   UNL     1      -1.074  -7.567   2.607  0.00  0.00    +0.048 A 
ATOM      5  C   UNL     1      -1.816  -7.284   1.517  0.00  0.00    +0.039 A 
ATOM      6  N   UNL     1      -2.586  -6.189   1.790  0.00  0.00    -0.294 N 
ATOM      7  C   UNL     1      -1.803  -8.050   0.219  0.00  0.00    +0.065 C 
ATOM      8  O   UNL     1      -0.896  -6.561   4.722  0.00  0.00    -0.266 OA
ATOM      9  H   UNL     1      -3.217  -5.771   1.184  0.00  0.00    +0.187 HD
BRANCH   2  14
ATOM     10  C   UNL     1      -4.642  -1.355   5.780  0.00  0.00    +0.044 C 
ATOM     11  C   UNL     1      -4.020  -2.528   5.067  0.00  0.00    -0.050 A 
ATOM     12  C   UNL     1      -4.391  -2.821   3.768  0.00  0.00    +0.005 A 
ATOM     13  C   UNL     1      -3.824  -3.896   3.112  0.00  0.00    +0.028 A 
ATOM     14  C   UNL     1      -2.879  -4.683   3.759  0.00  0.00    +0.067 A 
ATOM     15  C   UNL     1      -2.509  -4.385   5.064  0.00  0.00    +0.028 A 
ATOM     16  C   UNL     1      -3.076  -3.306   5.713  0.00  0.00    +0.005 A 
ENDBRANCH   2  14
ENDBRANCH   1   4
BRANCH   1  17
ATOM     17  C   UNL     1      -0.417  -9.518   3.989  0.00  0.00    +0.135 C 
ATOM     18  C   UNL     1       0.526 -10.697   4.117  0.00  0.00    +0.047 C 
ATOM     19  N   UNL     1      -0.186 -11.755   4.067  0.00  0.00    -0.181 NA
ATOM     20  N   UNL     1      -1.544 -11.494   3.918  0.00  0.00    -0.160 N 
ATOM     21  C   UNL     1      -1.783 -10.163   3.863  0.00  0.00    +0.249 C 
ATOM     22  O   UNL     1      -2.854  -9.607   3.739  0.00  0.00    -0.273 OA
ATOM     23  C   UNL     1       2.023 -10.632   4.272  0.00  0.00    +0.063 C 
BRANCH  20  24
ATOM     24  C   UNL     1      -2.535 -12.480   3.838  0.00  0.00    +0.060 A 
ATOM     25  C   UNL     1      -3.867 -12.117   3.683  0.00  0.00    +0.026 A 
ATOM     26  C   UNL     1      -4.842 -13.091   3.604  0.00  0.00    +0.005 A 
ATOM     27  C   UNL     1      -4.494 -14.428   3.680  0.00  0.00    -0.050 A 
ATOM     28  C   UNL     1      -3.169 -14.792   3.834  0.00  0.00    +0.005 A 
ATOM     29  C   UNL     1      -2.188 -13.823   3.908  0.00  0.00    +0.026 A 
ATOM     30  C   UNL     1      -5.561 -15.489   3.594  0.00  0.00    +0.044 C 
ENDBRANCH  20  24
ENDBRANCH   1  17
BRANCH   1  31
ATOM     31  C   UNL     1       1.306  -8.143   2.852  0.00  0.00    -0.008 A 
ATOM     32  C   UNL     1       1.587  -7.173   3.795  0.00  0.00    +0.006 A 
ATOM     33  C   UNL     1       2.868  -6.662   3.900  0.00  0.00    +0.000 A 
ATOM     34  C   UNL     1       3.866  -7.122   3.062  0.00  0.00    +0.002 A 
ATOM     35  C   UNL     1       3.585  -8.093   2.120  0.00  0.00    +0.033 A 
ATOM     36  C   UNL     1       2.306  -8.607   2.018  0.00  0.00    +0.130 A 
BRANCH  36  37
ATOM     37  N   UNL     1       2.006  -9.651   1.012  0.00  0.00    +0.057 N 
ATOM     38  O   UNL     1       2.754 -10.591   0.875  0.00  0.00    -0.126 OA
ATOM     39  O   UNL     1       1.012  -9.564   0.328  0.00  0.00    -0.126 OA
ENDBRANCH  36  37
ENDBRANCH   1  31
TORSDOF 6
