REMARK  Name = ZINC39426826
REMARK  2 active torsions:
REMARK  status: ('A' for Active; 'I' for Inactive)
REMARK    1  A    between atoms: C_10  and  C_12
REMARK    2  A    between atoms: C_13  and  N_25
REMARK                            x       y       z     vdW  Elec       q    Type
REMARK                         _______ _______ _______ _____ _____    ______ ____
ROOT
ATOM      1  C   UNL     1       5.116   0.916  -0.148  0.00  0.00    +0.098 A 
ATOM      2  C   UNL     1       6.360   1.493  -0.274  0.00  0.00    +0.053 A 
ATOM      3  C   UNL     1       6.443   2.943  -0.362  0.00  0.00    +0.029 A 
ATOM      4  C   UNL     1       7.589   3.761  -0.490  0.00  0.00    +0.017 A 
ATOM      5  C   UNL     1       7.445   5.133  -0.560  0.00  0.00    -0.025 A 
ATOM      6  C   UNL     1       6.185   5.700  -0.507  0.00  0.00    +0.046 A 
ATOM      7  N   UNL     1       5.115   4.927  -0.382  0.00  0.00    -0.244 NA
ATOM      8  C   UNL     1       5.203   3.619  -0.310  0.00  0.00    +0.111 A 
ATOM      9  S   UNL     1       4.010   2.313  -0.153  0.00  0.00    -0.062 S 
ATOM     10  C   UNL     1       5.961   7.187  -0.597  0.00  0.00    +0.056 C 
ATOM     11  C   UNL     1       7.255   7.943  -0.303  0.00  0.00    +0.006 C 
ATOM     12  C   UNL     1       8.365   7.365  -1.189  0.00  0.00    +0.005 C 
ATOM     13  C   UNL     1       8.698   5.961  -0.690  0.00  0.00    +0.037 C 
ENDROOT
BRANCH   1  23
ATOM     14  C   UNL     1       1.808  -4.655  -0.058  0.00  0.00    +0.000 A 
ATOM     15  C   UNL     1       3.189  -4.582  -0.065  0.00  0.00    +0.002 A 
ATOM     16  C   UNL     1       3.818  -3.356  -0.060  0.00  0.00    +0.024 A 
ATOM     17  C   UNL     1       3.067  -2.178  -0.048  0.00  0.00    +0.040 A 
ATOM     18  C   UNL     1       1.684  -2.263  -0.041  0.00  0.00    -0.024 A 
ATOM     19  C   UNL     1       1.057  -3.494  -0.046  0.00  0.00    +0.005 A 
ATOM     20  C   UNL     1       1.117  -0.861  -0.029  0.00  0.00    +0.056 C 
ATOM     21  C   UNL     1       2.351   0.056  -0.030  0.00  0.00    +0.119 C 
ATOM     22  N   UNL     1       3.502  -0.850  -0.042  0.00  0.00    -0.266 N 
ATOM     23  C   UNL     1       4.792  -0.460  -0.046  0.00  0.00    +0.259 C 
ATOM     24  O   UNL     1       5.680  -1.290   0.038  0.00  0.00    -0.269 OA
ENDBRANCH   1  23
BRANCH   2  25
ATOM     25  N   UNL     1       7.506   0.712  -0.315  0.00  0.00    -0.356 N 
ATOM     26  H   UNL     1       7.437  -0.254  -0.255  0.00  0.00    +0.142 HD
ATOM     27  H   UNL     1       8.377   1.131  -0.403  0.00  0.00    +0.142 HD
ENDBRANCH   2  25
TORSDOF 2
