REMARK  Name = ZINC02636118
REMARK  8 active torsions:
REMARK  status: ('A' for Active; 'I' for Inactive)
REMARK    1  A    between atoms: C_1  and  C_2
REMARK    2  A    between atoms: C_2  and  C_4
REMARK    3  A    between atoms: C_2  and  S_17
REMARK    4  A    between atoms: N_6  and  C_7
REMARK    5  A    between atoms: C_7  and  C_8
REMARK    6  A    between atoms: S_17  and  C_18
REMARK    7  A    between atoms: C_21  and  C_29
REMARK    8  A    between atoms: N_22  and  C_23
REMARK                            x       y       z     vdW  Elec       q    Type
REMARK                         _______ _______ _______ _____ _____    ______ ____
ROOT
ATOM      1  S   UNL     1       0.843  -0.707   1.486  0.00  0.00    -0.073 S 
ENDROOT
BRANCH   1   2
ATOM      2  C   UNL     1      -0.150  -0.127   2.821  0.00  0.00    +0.197 A 
ATOM      3  N   UNL     1      -1.195   0.665   2.729  0.00  0.00    -0.122 NA
ATOM      4  N   UNL     1      -1.685   0.888   3.897  0.00  0.00    -0.128 NA
ATOM      5  C   UNL     1      -0.983   0.254   4.807  0.00  0.00    +0.171 A 
ATOM      6  N   UNL     1       0.019  -0.422   4.146  0.00  0.00    -0.270 N 
BRANCH   6   7
ATOM      7  C   UNL     1       1.007  -1.239   4.713  0.00  0.00    +0.051 A 
ATOM      8  C   UNL     1       0.660  -2.454   5.289  0.00  0.00    +0.026 A 
ATOM      9  C   UNL     1       1.635  -3.256   5.847  0.00  0.00    +0.002 A 
ATOM     10  C   UNL     1       2.957  -2.851   5.832  0.00  0.00    +0.000 A 
ATOM     11  C   UNL     1       3.307  -1.642   5.260  0.00  0.00    +0.002 A 
ATOM     12  C   UNL     1       2.336  -0.838   4.695  0.00  0.00    +0.026 A 
ENDBRANCH   6   7
BRANCH   5  13
ATOM     13  C   UNL     1      -1.227   0.259   6.265  0.00  0.00    +0.038 A 
ATOM     14  C   UNL     1      -0.222  -0.138   7.156  0.00  0.00    +0.014 A 
ATOM     15  C   UNL     1      -0.501  -0.116   8.511  0.00  0.00    +0.020 A 
ATOM     16  C   UNL     1      -1.751   0.295   8.938  0.00  0.00    +0.111 A 
ATOM     17  N   UNL     1      -2.679   0.663   8.076  0.00  0.00    -0.263 NA
ATOM     18  C   UNL     1      -2.460   0.665   6.777  0.00  0.00    +0.122 A 
ENDBRANCH   5  13
ENDBRANCH   1   2
BRANCH   1  20
ATOM     19  C   UNL     1       0.242   1.568   0.090  0.00  0.00    +0.029 C 
ATOM     20  C   UNL     1       0.088   0.047   0.018  0.00  0.00    +0.137 C 
BRANCH  20  21
ATOM     21  C   UNL     1       0.774  -0.469  -1.220  0.00  0.00    +0.226 C 
ATOM     22  O   UNL     1       1.880  -0.960  -1.141  0.00  0.00    -0.275 OA
ATOM     23  N   UNL     1       0.158  -0.384  -2.416  0.00  0.00    -0.310 N 
ATOM     24  H   UNL     1      -0.726   0.010  -2.480  0.00  0.00    +0.149 HD
BRANCH  23  25
ATOM     25  C   UNL     1       0.825  -0.885  -3.620  0.00  0.00    +0.139 C 
BRANCH  25  26
ATOM     26  C   UNL     1      -0.069  -0.673  -4.815  0.00  0.00    -0.027 A 
ATOM     27  C   UNL     1      -0.974  -1.651  -5.181  0.00  0.00    +0.009 A 
ATOM     28  C   UNL     1      -1.797  -1.461  -6.276  0.00  0.00    +0.050 A 
ATOM     29  C   UNL     1      -1.716  -0.288  -7.009  0.00  0.00    +0.166 A 
ATOM     30  C   UNL     1      -0.803   0.698  -6.640  0.00  0.00    +0.167 A 
ATOM     31  C   UNL     1       0.014   0.502  -5.538  0.00  0.00    +0.054 A 
ATOM     32  O   UNL     1      -0.916   1.744  -7.510  0.00  0.00    -0.453 OA
ATOM     33  C   UNL     1      -1.615   1.219  -8.654  0.00  0.00    +0.466 C 
ATOM     34  O   UNL     1      -2.399   0.140  -8.110  0.00  0.00    -0.453 OA
ENDBRANCH  25  26
ENDBRANCH  23  25
ENDBRANCH  20  21
ENDBRANCH   1  20
TORSDOF 7
