REMARK  Name = ZINC43193534
REMARK  15 active torsions:
REMARK  status: ('A' for Active; 'I' for Inactive)
REMARK    1  A    between atoms: C_1  and  C_2
REMARK    2  A    between atoms: C_4  and  C_30
REMARK    3  A    between atoms: C_7  and  C_20
REMARK    4  A    between atoms: C_10  and  C_11
REMARK    5  A    between atoms: C_10  and  O_19
REMARK    6  A    between atoms: C_16  and  O_17
REMARK    7  A    between atoms: O_17  and  C_18
REMARK    8  A    between atoms: C_22  and  O_28
REMARK    9  A    between atoms: C_25  and  O_26
REMARK   10  A    between atoms: O_26  and  C_27
REMARK   11  A    between atoms: O_28  and  C_29
REMARK   12  A    between atoms: C_32  and  O_38
REMARK   13  A    between atoms: C_35  and  O_36
REMARK   14  A    between atoms: O_36  and  C_37
REMARK   15  A    between atoms: O_38  and  C_39
REMARK                            x       y       z     vdW  Elec       q    Type
REMARK                         _______ _______ _______ _____ _____    ______ ____
ROOT
ATOM      1  C   UNL     1      -0.019   1.526   0.010  0.00  0.00    +0.009 C 
ATOM      2  C   UNL     1       0.002  -0.004   0.002  0.00  0.00    +0.012 C 
ATOM      3  C   UNL     1       0.720  -0.498  -1.256  0.00  0.00    -0.030 C 
ATOM      4  N   UNL     1       0.744  -1.966  -1.265  0.00  0.00    +0.389 N 
ATOM      5  C   UNL     1       1.516  -2.459  -0.118  0.00  0.00    -0.033 C 
ATOM      6  C   UNL     1       0.829  -2.040   1.183  0.00  0.00    +0.029 C 
ATOM      7  C   UNL     1       0.745  -0.512   1.241  0.00  0.00    +0.094 C 
ATOM      8  H   UNL     1      -0.201  -2.317  -1.209  0.00  0.00    -0.084 HD
ATOM      9  H   UNL     1       1.170  -2.289  -2.121  0.00  0.00    -0.084 HD
ENDROOT
BRANCH   7  10
ATOM     10  C   UNL     1      -0.002  -0.095   2.482  0.00  0.00    +0.026 A 
ATOM     11  C   UNL     1       0.613   0.711   3.421  0.00  0.00    +0.010 A 
ATOM     12  C   UNL     1      -0.070   1.094   4.560  0.00  0.00    +0.001 A 
ATOM     13  C   UNL     1      -1.372   0.672   4.762  0.00  0.00    +0.004 A 
ATOM     14  C   UNL     1      -1.991  -0.134   3.827  0.00  0.00    +0.046 A 
ATOM     15  C   UNL     1      -1.309  -0.515   2.680  0.00  0.00    +0.126 A 
BRANCH  15  16
ATOM     16  O   UNL     1      -1.918  -1.303   1.756  0.00  0.00    -0.495 OA
ATOM     17  C   UNL     1      -3.265  -1.698   2.026  0.00  0.00    +0.277 C 
ENDBRANCH  15  16
ENDBRANCH   7  10
BRANCH   5  18
ATOM     18  C   UNL     1       1.600  -3.963  -0.179  0.00  0.00    -0.016 A 
ATOM     19  C   UNL     1       0.693  -4.675  -0.940  0.00  0.00    +0.051 A 
ATOM     20  C   UNL     1       0.770  -6.058  -0.996  0.00  0.00    +0.121 A 
ATOM     21  C   UNL     1       1.759  -6.727  -0.289  0.00  0.00    +0.049 A 
ATOM     22  C   UNL     1       2.666  -6.015   0.470  0.00  0.00    +0.049 A 
ATOM     23  C   UNL     1       2.592  -4.631   0.523  0.00  0.00    +0.122 A 
BRANCH  23  24
ATOM     24  O   UNL     1       3.489  -3.929   1.266  0.00  0.00    -0.495 OA
ATOM     25  C   UNL     1       4.483  -4.682   1.964  0.00  0.00    +0.277 C 
ENDBRANCH  23  24
BRANCH  20  26
ATOM     26  O   UNL     1      -0.123  -6.760  -1.744  0.00  0.00    -0.495 OA
ATOM     27  C   UNL     1       0.015  -8.182  -1.756  0.00  0.00    +0.277 C 
ENDBRANCH  20  26
ENDBRANCH   5  18
BRANCH   3  28
ATOM     28  C   UNL     1      -0.008  -0.001  -2.478  0.00  0.00    -0.016 A 
ATOM     29  C   UNL     1      -0.951  -0.802  -3.094  0.00  0.00    +0.051 A 
ATOM     30  C   UNL     1      -1.621  -0.344  -4.218  0.00  0.00    +0.121 A 
ATOM     31  C   UNL     1      -1.346   0.918  -4.723  0.00  0.00    +0.049 A 
ATOM     32  C   UNL     1      -0.404   1.718  -4.108  0.00  0.00    +0.049 A 
ATOM     33  C   UNL     1       0.263   1.263  -2.980  0.00  0.00    +0.122 A 
BRANCH  33  34
ATOM     34  O   UNL     1       1.186   2.053  -2.370  0.00  0.00    -0.495 OA
ATOM     35  C   UNL     1       1.415   3.342  -2.942  0.00  0.00    +0.277 C 
ENDBRANCH  33  34
BRANCH  30  36
ATOM     36  O   UNL     1      -2.549  -1.132  -4.824  0.00  0.00    -0.495 OA
ATOM     37  C   UNL     1      -3.201  -0.597  -5.978  0.00  0.00    +0.277 C 
ENDBRANCH  30  36
ENDBRANCH   3  28
BRANCH   7  38
ATOM     38  O   UNL     1       2.063   0.038   1.267  0.00  0.00    -0.384 OA
ATOM     39  H   UNL     1       2.591  -0.243   2.027  0.00  0.00    +0.211 HD
ENDBRANCH   7  38
TORSDOF 9
