REMARK  Name = ZINC39237548
REMARK  7 active torsions:
REMARK  status: ('A' for Active; 'I' for Inactive)
REMARK    1  A    between atoms: C_1  and  C_2
REMARK    2  A    between atoms: C_5  and  S_8
REMARK    3  A    between atoms: S_8  and  C_9
REMARK    4  A    between atoms: C_9  and  C_10
REMARK    5  A    between atoms: C_16  and  S_18
REMARK    6  A    between atoms: S_18  and  C_19
REMARK    7  A    between atoms: C_21  and  C_32
REMARK                            x       y       z     vdW  Elec       q    Type
REMARK                         _______ _______ _______ _____ _____    ______ ____
ROOT
ATOM      1  C   UNL     1      -3.706  -8.071   0.975  0.00  0.00    +0.171 C 
ATOM      2  C   UNL     1      -4.962  -8.757   0.473  0.00  0.00    -0.009 C 
ATOM      3  C   UNL     1      -6.150  -8.485   1.157  0.00  0.00    +0.003 A 
ATOM      4  C   UNL     1      -7.365  -9.080   0.756  0.00  0.00    +0.030 A 
ATOM      5  C   UNL     1      -8.508  -8.797   1.439  0.00  0.00    +0.042 A 
ATOM      6  C   UNL     1      -8.504  -7.928   2.529  0.00  0.00    +0.022 A 
ATOM      7  C   UNL     1      -7.363  -7.324   2.962  0.00  0.00    +0.025 A 
ATOM      8  C   UNL     1      -6.144  -7.570   2.304  0.00  0.00    +0.041 A 
ATOM      9  N   UNL     1      -5.025  -6.976   2.731  0.00  0.00    -0.284 N 
ATOM     10  C   UNL     1      -3.846  -7.154   2.169  0.00  0.00    +0.235 C 
ATOM     11  O   UNL     1      -2.869  -6.579   2.612  0.00  0.00    -0.274 OA
ATOM     12 CL   UNL     1     -10.000  -9.532   0.942  0.00  0.00    -0.084 Cl
ATOM     13  H   UNL     1      -5.084  -6.382   3.495  0.00  0.00    +0.155 HD
ENDROOT
BRANCH   2  14
ATOM     14  C   UNL     1      -4.932  -9.635  -0.639  0.00  0.00    -0.020 A 
ATOM     15  C   UNL     1      -4.586  -9.152  -1.912  0.00  0.00    +0.008 A 
ATOM     16  C   UNL     1      -4.561 -10.013  -2.987  0.00  0.00    +0.001 A 
ATOM     17  C   UNL     1      -4.873 -11.352  -2.815  0.00  0.00    +0.000 A 
ATOM     18  C   UNL     1      -5.215 -11.838  -1.564  0.00  0.00    +0.001 A 
ATOM     19  C   UNL     1      -5.242 -10.995  -0.475  0.00  0.00    +0.008 A 
ENDBRANCH   2  14
BRANCH   1  20
ATOM     20  S   UNL     1      -2.500  -9.358   1.401  0.00  0.00    -0.070 S 
BRANCH  20  27
ATOM     21  C   UNL     1       0.086  -6.436   1.834  0.00  0.00    +0.059 A 
ATOM     22  C   UNL     1       1.246  -7.062   2.192  0.00  0.00    +0.094 A 
ATOM     23  C   UNL     1       1.253  -8.462   2.312  0.00  0.00    +0.252 A 
ATOM     24  O   UNL     1       2.272  -9.053   2.631  0.00  0.00    -0.268 OA
ATOM     25  N   UNL     1       0.112  -9.141   2.070  0.00  0.00    -0.302 N 
ATOM     26  H   UNL     1       0.095 -10.108   2.147  0.00  0.00    +0.171 HD
ATOM     27  C   UNL     1      -1.015  -8.464   1.716  0.00  0.00    +0.170 A 
ATOM     28  N   UNL     1      -1.015  -7.149   1.610  0.00  0.00    -0.227 NA
BRANCH  21  29
ATOM     29  C   UNL     1       0.051  -4.936   1.698  0.00  0.00    +0.130 C 
BRANCH  29  30
ATOM     30  S   UNL     1       0.020  -4.488  -0.059  0.00  0.00    -0.119 S 
BRANCH  30  35
ATOM     31  C   UNL     1      -0.114   1.546  -0.027  0.00  0.00    +0.044 C 
ATOM     32  C   UNL     1      -0.080   0.040  -0.035  0.00  0.00    -0.050 A 
ATOM     33  C   UNL     1      -0.079  -0.644  -1.237  0.00  0.00    +0.004 A 
ATOM     34  C   UNL     1      -0.048  -2.024  -1.248  0.00  0.00    +0.015 A 
ATOM     35  C   UNL     1      -0.018  -2.727  -0.050  0.00  0.00    +0.008 A 
ATOM     36  C   UNL     1      -0.019  -2.037   1.157  0.00  0.00    +0.015 A 
ATOM     37  C   UNL     1      -0.044  -0.656   1.160  0.00  0.00    +0.004 A 
ENDBRANCH  30  35
ENDBRANCH  29  30
ENDBRANCH  21  29
ENDBRANCH  20  27
ENDBRANCH   1  20
TORSDOF 6
