REMARK  Name = ZINC39873558
REMARK  3 active torsions:
REMARK  status: ('A' for Active; 'I' for Inactive)
REMARK    1  A    between atoms: C_1  and  C_2
REMARK    2  A    between atoms: C_5  and  N_8
REMARK    3  A    between atoms: C_9  and  C_25
REMARK                            x       y       z     vdW  Elec       q    Type
REMARK                         _______ _______ _______ _____ _____    ______ ____
ROOT
ATOM      1  N   UNL     1       0.057  -4.168  -0.021  0.00  0.00    -0.253 N 
ATOM      2  C   UNL     1       0.069  -5.040   1.166  0.00  0.00    +0.150 C 
ATOM      3  C   UNL     1       0.089  -6.439   0.643  0.00  0.00    +0.072 A 
ATOM      4  C   UNL     1       0.117  -7.729   1.338  0.00  0.00    +0.199 A 
ATOM      5  O   UNL     1      -0.050  -7.844   2.539  0.00  0.00    -0.287 OA
ATOM      6  C   UNL     1       0.366  -8.884   0.438  0.00  0.00    +0.066 A 
ATOM      7  C   UNL     1       0.619 -10.149   0.967  0.00  0.00    +0.035 A 
ATOM      8  C   UNL     1       0.853 -11.208   0.117  0.00  0.00    +0.042 A 
ATOM      9  C   UNL     1       0.838 -11.013  -1.258  0.00  0.00    +0.023 A 
ATOM     10  C   UNL     1       0.589  -9.769  -1.791  0.00  0.00    +0.048 A 
ATOM     11  C   UNL     1       0.345  -8.682  -0.952  0.00  0.00    +0.140 A 
ATOM     12  O   UNL     1       0.093  -7.472  -1.502  0.00  0.00    -0.450 OA
ATOM     13  C   UNL     1       0.084  -6.373  -0.722  0.00  0.00    +0.199 A 
ATOM     14  C   UNL     1       0.061  -4.955  -1.117  0.00  0.00    +0.287 C 
ATOM     15  O   UNL     1       0.051  -4.551  -2.263  0.00  0.00    -0.266 OA
ATOM     16 CL   UNL     1       1.168 -12.788   0.766  0.00  0.00    -0.084 Cl
ENDROOT
BRANCH   1  21
ATOM     17  C   UNL     1      -0.018   1.503   0.010  0.00  0.00    +0.044 C 
ATOM     18  C   UNL     1       0.002  -0.004   0.002  0.00  0.00    -0.050 A 
ATOM     19  C   UNL     1       0.006  -0.687  -1.200  0.00  0.00    +0.005 A 
ATOM     20  C   UNL     1       0.024  -2.068  -1.212  0.00  0.00    +0.024 A 
ATOM     21  C   UNL     1       0.039  -2.771  -0.013  0.00  0.00    +0.038 A 
ATOM     22  C   UNL     1       0.036  -2.081   1.193  0.00  0.00    +0.024 A 
ATOM     23  C   UNL     1       0.023  -0.700   1.197  0.00  0.00    +0.005 A 
ENDBRANCH   1  21
BRANCH   2  24
ATOM     24  C   UNL     1       1.299  -4.774   1.994  0.00  0.00    -0.022 A 
ATOM     25  C   UNL     1       2.513  -4.545   1.373  0.00  0.00    +0.008 A 
ATOM     26  C   UNL     1       3.642  -4.301   2.132  0.00  0.00    +0.038 A 
ATOM     27  C   UNL     1       3.557  -4.286   3.514  0.00  0.00    +0.123 A 
ATOM     28  C   UNL     1       2.341  -4.515   4.134  0.00  0.00    +0.038 A 
ATOM     29  C   UNL     1       1.212  -4.754   3.373  0.00  0.00    +0.008 A 
ATOM     30  F   UNL     1       4.661  -4.048   4.256  0.00  0.00    -0.205 F 
ENDBRANCH   2  24
TORSDOF 2
