REMARK  Name = ZINC04718091
REMARK  6 active torsions:
REMARK  status: ('A' for Active; 'I' for Inactive)
REMARK    1  A    between atoms: C_1  and  C_2
REMARK    2  A    between atoms: C_2  and  O_3
REMARK    3  A    between atoms: O_3  and  C_4
REMARK    4  A    between atoms: C_4  and  C_6
REMARK    5  A    between atoms: C_8  and  C_28
REMARK    6  A    between atoms: C_15  and  C_21
REMARK                            x       y       z     vdW  Elec       q    Type
REMARK                         _______ _______ _______ _____ _____    ______ ____
ROOT
ATOM      1  C   UNL     1      -1.036  -2.201   0.718  0.00  0.00    +0.179 C 
ATOM      2  C   UNL     1      -0.408  -2.725  -0.577  0.00  0.00    +0.082 C 
ATOM      3  C   UNL     1       1.012  -2.168  -0.692  0.00  0.00    +0.063 C 
ATOM      4  C   UNL     1       0.968  -0.660  -0.675  0.00  0.00    +0.018 C 
ATOM      5  C   UNL     1       0.002  -0.004   0.002  0.00  0.00    +0.021 C 
ATOM      6  C   UNL     1      -0.997  -0.697   0.706  0.00  0.00    +0.176 C 
ATOM      7  O   UNL     1      -1.842  -0.072   1.315  0.00  0.00    -0.291 OA
ATOM      8  C   UNL     1      -0.018   1.506   0.010  0.00  0.00    +0.063 C 
ATOM      9  C   UNL     1       1.417   2.034  -0.001  0.00  0.00    +0.109 C 
ATOM     10  C   UNL     1       2.197   1.321  -1.075  0.00  0.00    +0.218 C 
ATOM     11  O   UNL     1       3.067   1.909  -1.682  0.00  0.00    -0.275 OA
ATOM     12  N   UNL     1       1.929   0.035  -1.363  0.00  0.00    -0.289 N 
ATOM     13  H   UNL     1       2.425  -0.408  -2.069  0.00  0.00    +0.155 HD
ENDROOT
BRANCH   8  14
ATOM     14  C   UNL     1      -0.747   2.006  -1.211  0.00  0.00    -0.038 A 
ATOM     15  C   UNL     1      -1.880   2.785  -1.069  0.00  0.00    +0.004 A 
ATOM     16  C   UNL     1      -2.549   3.243  -2.188  0.00  0.00    +0.002 A 
ATOM     17  C   UNL     1      -2.084   2.923  -3.451  0.00  0.00    +0.020 A 
ATOM     18  C   UNL     1      -0.951   2.144  -3.593  0.00  0.00    +0.041 A 
ATOM     19  C   UNL     1      -0.278   1.690  -2.472  0.00  0.00    +0.024 A 
ATOM     20 CL   UNL     1      -0.367   1.741  -5.178  0.00  0.00    -0.084 Cl
ENDBRANCH   8  14
BRANCH   2  21
ATOM     21  C   UNL     1      -1.228  -2.269  -1.757  0.00  0.00    +0.109 A 
ATOM     22  C   UNL     1      -1.833  -3.071  -2.651  0.00  0.00    +0.045 A 
ATOM     23  C   UNL     1      -2.488  -2.229  -3.579  0.00  0.00    +0.041 A 
ATOM     24  C   UNL     1      -2.236  -0.963  -3.201  0.00  0.00    +0.195 A 
ATOM     25  O   UNL     1      -1.472  -0.993  -2.097  0.00  0.00    -0.467 OA
ENDBRANCH   2  21
BRANCH   1  26
ATOM     26  C   UNL     1      -2.466  -2.668   0.811  0.00  0.00    +0.318 C 
ATOM     27  O   UNL     1      -2.934  -3.359  -0.063  0.00  0.00    -0.250 OA
BRANCH  26  28
ATOM     28  O   UNL     1      -3.219  -2.317   1.865  0.00  0.00    -0.464 OA
BRANCH  28  30
ATOM     29  C   UNL     1      -5.284  -2.305   3.156  0.00  0.00    +0.048 C 
ATOM     30  C   UNL     1      -4.587  -2.803   1.889  0.00  0.00    +0.229 C 
ENDBRANCH  28  30
ENDBRANCH  26  28
ENDBRANCH   1  26
TORSDOF 5
