REMARK  Name = ZINC54591886
REMARK  10 active torsions:
REMARK  status: ('A' for Active; 'I' for Inactive)
REMARK    1  A    between atoms: C_1  and  C_2
REMARK    2  A    between atoms: C_7  and  N_8
REMARK    3  A    between atoms: N_8  and  C_9
REMARK    4  A    between atoms: C_12  and  C_32
REMARK    5  A    between atoms: C_14  and  C_22
REMARK    6  A    between atoms: C_16  and  C_20
REMARK    7  A    between atoms: C_16  and  O_21
REMARK    8  A    between atoms: N_24  and  C_25
REMARK    9  A    between atoms: C_30  and  C_31
REMARK   10  A    between atoms: C_37  and  N_38
REMARK                            x       y       z     vdW  Elec       q    Type
REMARK                         _______ _______ _______ _____ _____    ______ ____
ROOT
ATOM      1  C   UNL     1      -0.373  -0.608   3.720  0.00  0.00    +0.248 C 
ATOM      2  O   UNL     1      -0.367  -1.954   3.804  0.00  0.00    -0.270 OA
ATOM      3  C   UNL     1      -0.230   0.153   4.861  0.00  0.00    +0.065 C 
ATOM      4  C   UNL     1       0.076  -0.543   6.155  0.00  0.00    +0.074 C 
ATOM      5  C   UNL     1       0.615   0.460   7.177  0.00  0.00    +0.119 C 
ATOM      6  C   UNL     1      -0.341   1.657   7.242  0.00  0.00    +0.082 C 
ATOM      7  C   UNL     1      -0.229   2.447   5.937  0.00  0.00    +0.114 C 
ATOM      8  C   UNL     1      -0.370   1.524   4.760  0.00  0.00    +0.168 C 
ATOM      9  O   UNL     1      -0.622   2.005   3.672  0.00  0.00    -0.292 OA
ATOM     10  C   UNL     1      -1.776   1.158   7.418  0.00  0.00    +0.042 C 
ENDROOT
BRANCH   4  11
ATOM     11  C   UNL     1       1.111  -1.612   5.915  0.00  0.00    -0.009 A 
ATOM     12  C   UNL     1       2.314  -1.287   5.315  0.00  0.00    +0.006 A 
ATOM     13  C   UNL     1       3.263  -2.267   5.095  0.00  0.00    +0.000 A 
ATOM     14  C   UNL     1       3.010  -3.572   5.474  0.00  0.00    +0.002 A 
ATOM     15  C   UNL     1       1.809  -3.897   6.075  0.00  0.00    +0.033 A 
ATOM     16  C   UNL     1       0.861  -2.916   6.299  0.00  0.00    +0.130 A 
BRANCH  16  17
ATOM     17  N   UNL     1      -0.424  -3.262   6.947  0.00  0.00    +0.057 N 
ATOM     18  O   UNL     1      -0.593  -4.370   7.401  0.00  0.00    -0.126 OA
ATOM     19  O   UNL     1      -1.306  -2.438   7.021  0.00  0.00    -0.126 OA
ENDBRANCH  16  17
ENDBRANCH   4  11
BRANCH   5  20
ATOM     20  C   UNL     1       0.702  -0.195   8.531  0.00  0.00    +0.224 C 
ATOM     21  O   UNL     1       0.367  -1.353   8.668  0.00  0.00    -0.275 OA
ATOM     22  N   UNL     1       1.153   0.506   9.591  0.00  0.00    -0.285 N 
ATOM     23  H   UNL     1       1.379   1.444   9.491  0.00  0.00    +0.155 HD
BRANCH  22  24
ATOM     24  C   UNL     1       1.296  -0.120  10.834  0.00  0.00    +0.036 A 
ATOM     25  C   UNL     1       0.521  -1.230  11.147  0.00  0.00    +0.023 A 
ATOM     26  C   UNL     1       0.664  -1.845  12.375  0.00  0.00    +0.002 A 
ATOM     27  C   UNL     1       1.577  -1.358  13.292  0.00  0.00    +0.000 A 
ATOM     28  C   UNL     1       2.350  -0.254  12.983  0.00  0.00    +0.005 A 
ATOM     29  C   UNL     1       2.216   0.362  11.754  0.00  0.00    -0.029 A 
ATOM     30  C   UNL     1       3.064   1.562  11.416  0.00  0.00    +0.045 C 
ENDBRANCH  22  24
ENDBRANCH   5  20
BRANCH   1  31
ATOM     31  N   UNL     1      -0.520   0.001   2.505  0.00  0.00    -0.281 N 
ATOM     32  H   UNL     1       0.167   0.602   2.177  0.00  0.00    +0.155 HD
BRANCH  31  39
ATOM     33  C   UNL     1      -0.847   1.465   0.087  0.00  0.00    +0.045 C 
ATOM     34  C   UNL     1      -1.861   0.451   0.548  0.00  0.00    -0.029 A 
ATOM     35  C   UNL     1      -2.988   0.205  -0.213  0.00  0.00    +0.005 A 
ATOM     36  C   UNL     1      -3.919  -0.726   0.209  0.00  0.00    +0.000 A 
ATOM     37  C   UNL     1      -3.726  -1.414   1.394  0.00  0.00    +0.002 A 
ATOM     38  C   UNL     1      -2.603  -1.172   2.159  0.00  0.00    +0.023 A 
ATOM     39  C   UNL     1      -1.662  -0.242   1.735  0.00  0.00    +0.037 A 
ENDBRANCH  31  39
ENDBRANCH   1  31
BRANCH   6  40
ATOM     40  O   UNL     1       0.016   2.496   8.342  0.00  0.00    -0.388 OA
ATOM     41  H   UNL     1      -0.549   3.274   8.443  0.00  0.00    +0.210 HD
ENDBRANCH   6  40
TORSDOF 7
