REMARK  Name = ZINC23586886
REMARK  8 active torsions:
REMARK  status: ('A' for Active; 'I' for Inactive)
REMARK    1  A    between atoms: C_1  and  C_2
REMARK    2  A    between atoms: C_5  and  N_8
REMARK    3  A    between atoms: C_9  and  C_31
REMARK    4  A    between atoms: C_10  and  N_14
REMARK    5  A    between atoms: C_11  and  C_13
REMARK    6  A    between atoms: C_15  and  C_17
REMARK    7  A    between atoms: C_17  and  S_18
REMARK    8  A    between atoms: S_18  and  C_19
REMARK                            x       y       z     vdW  Elec       q    Type
REMARK                         _______ _______ _______ _____ _____    ______ ____
ROOT
ATOM      1  N   UNL     1       0.113   0.765  -0.282  0.00  0.00    -0.282 N 
ATOM      2  C   UNL     1      -1.068   1.158   0.235  0.00  0.00    +0.228 C 
ATOM      3  O   UNL     1      -1.173   2.255   0.742  0.00  0.00    -0.275 OA
ATOM      4  H   UNL     1       0.203  -0.221  -0.761  0.00  0.00    +0.155 HD
ENDROOT
BRANCH   1   7
ATOM      5  N   UNL     1       3.234   2.405   0.205  0.00  0.00    -0.235 N 
ATOM      6  C   UNL     1       2.432   1.315   0.344  0.00  0.00    +0.063 A 
ATOM      7  C   UNL     1       1.231   1.617  -0.211  0.00  0.00    +0.078 A 
ATOM      8  C   UNL     1       1.304   2.928  -0.707  0.00  0.00    +0.082 A 
ATOM      9  N   UNL     1       2.498   3.399  -0.453  0.00  0.00    -0.170 NA
ATOM     10  C   UNL     1       0.195   3.668  -1.409  0.00  0.00    +0.069 C 
ATOM     11  C   UNL     1       2.809   0.009   0.995  0.00  0.00    +0.068 C 
BRANCH   5  16
ATOM     12  C   UNL     1       8.606   2.852   1.980  0.00  0.00    +0.044 C 
ATOM     13  C   UNL     1       7.180   2.733   1.509  0.00  0.00    -0.050 A 
ATOM     14  C   UNL     1       6.747   1.566   0.907  0.00  0.00    +0.005 A 
ATOM     15  C   UNL     1       5.440   1.454   0.474  0.00  0.00    +0.028 A 
ATOM     16  C   UNL     1       4.561   2.515   0.644  0.00  0.00    +0.066 A 
ATOM     17  C   UNL     1       5.000   3.688   1.244  0.00  0.00    +0.028 A 
ATOM     18  C   UNL     1       6.307   3.792   1.679  0.00  0.00    +0.005 A 
ENDBRANCH   5  16
ENDBRANCH   1   7
BRANCH   2  19
ATOM     19  C   UNL     1      -2.257   0.234   0.185  0.00  0.00    +0.171 C 
BRANCH  19  20
ATOM     20  S   UNL     1      -3.682   1.043   0.955  0.00  0.00    -0.096 S 
BRANCH  20  21
ATOM     21  C   UNL     1      -4.893  -0.223   0.763  0.00  0.00    +0.109 A 
ATOM     22  C   UNL     1      -6.220  -0.030   1.237  0.00  0.00    +0.043 A 
ATOM     23  C   UNL     1      -6.788   1.146   1.916  0.00  0.00    -0.025 A 
ATOM     24  C   UNL     1      -8.083   1.078   2.265  0.00  0.00    -0.004 A 
ATOM     25  S   UNL     1      -8.625  -0.528   1.727  0.00  0.00    -0.073 S 
ATOM     26  C   UNL     1      -7.102  -1.106   1.029  0.00  0.00    +0.113 A 
ATOM     27  N   UNL     1      -6.708  -2.215   0.432  0.00  0.00    -0.228 NA
ATOM     28  C   UNL     1      -5.463  -2.338   0.013  0.00  0.00    +0.223 A 
ATOM     29  N   UNL     1      -4.583  -1.366   0.170  0.00  0.00    -0.229 NA
ATOM     30  C   UNL     1      -8.554   2.335   2.946  0.00  0.00    +0.043 C 
ATOM     31  C   UNL     1      -7.482   3.391   2.597  0.00  0.00    +0.010 C 
ATOM     32  C   UNL     1      -6.242   2.508   2.353  0.00  0.00    +0.037 C 
ENDBRANCH  20  21
ENDBRANCH  19  20
ENDBRANCH   2  19
TORSDOF 5
