REMARK  Name = ZINC48770463
REMARK  5 active torsions:
REMARK  status: ('A' for Active; 'I' for Inactive)
REMARK    1  A    between atoms: C_1  and  C_2
REMARK    2  A    between atoms: C_2  and  O_3
REMARK    3  A    between atoms: O_3  and  C_4
REMARK    4  A    between atoms: C_6  and  C_11
REMARK    5  A    between atoms: C_9  and  O_10
REMARK                            x       y       z     vdW  Elec       q    Type
REMARK                         _______ _______ _______ _____ _____    ______ ____
ROOT
ATOM      1  C   UNL     1       0.777  -1.811  -1.336  0.00  0.00    +0.162 A 
ATOM      2  C   UNL     1       0.244  -2.666  -0.389  0.00  0.00    +0.061 A 
ATOM      3  C   UNL     1       0.354  -4.046  -0.559  0.00  0.00    +0.023 A 
ATOM      4  C   UNL     1       1.000  -4.558  -1.683  0.00  0.00    +0.015 A 
ATOM      5  C   UNL     1       1.530  -3.701  -2.625  0.00  0.00    +0.050 A 
ATOM      6  C   UNL     1       1.417  -2.329  -2.460  0.00  0.00    +0.158 A 
ENDROOT
BRANCH   3   7
ATOM      7  C   UNL     1      -0.215  -4.966   0.454  0.00  0.00    +0.162 A 
ATOM      8  N   UNL     1      -0.096  -6.275   0.278  0.00  0.00    -0.232 NA
ATOM      9  C   UNL     1      -0.592  -7.125   1.163  0.00  0.00    +0.050 A 
ATOM     10  C   UNL     1      -1.241  -6.630   2.282  0.00  0.00    +0.011 A 
ATOM     11  C   UNL     1      -1.349  -5.255   2.437  0.00  0.00    +0.136 A 
ATOM     12  N   UNL     1      -0.826  -4.460   1.517  0.00  0.00    -0.216 NA
ATOM     13 CL   UNL     1      -2.153  -4.586   3.822  0.00  0.00    -0.062 Cl
ATOM     14  C   UNL     1      -1.721  -7.774   3.144  0.00  0.00    +0.040 C 
ATOM     15  C   UNL     1      -1.681  -9.016   2.227  0.00  0.00    +0.011 C 
ATOM     16  C   UNL     1      -0.593  -8.636   1.200  0.00  0.00    +0.056 C 
ENDBRANCH   3   7
BRANCH   6  17
ATOM     17  O   UNL     1       1.935  -1.488  -3.393  0.00  0.00    -0.503 OA
ATOM     18  H   UNL     1       2.854  -1.237  -3.229  0.00  0.00    +0.292 HD
ENDBRANCH   6  17
BRANCH   1  19
ATOM     19  O   UNL     1       0.671  -0.465  -1.174  0.00  0.00    -0.489 OA
BRANCH  19  21
ATOM     20  C   UNL     1      -0.019   1.526   0.010  0.00  0.00    +0.048 C 
ATOM     21  C   UNL     1       0.002  -0.004   0.002  0.00  0.00    +0.226 C 
ENDBRANCH  19  21
ENDBRANCH   1  19
TORSDOF 4
