REMARK  Name = ZINC63513826
REMARK  8 active torsions:
REMARK  status: ('A' for Active; 'I' for Inactive)
REMARK    1  A    between atoms: C_1  and  C_2
REMARK    2  A    between atoms: N_11  and  C_13
REMARK    3  A    between atoms: C_13  and  C_14
REMARK    4  A    between atoms: N_16  and  C_17
REMARK    5  A    between atoms: C_17  and  C_18
REMARK    6  A    between atoms: C_18  and  C_19
REMARK    7  A    between atoms: C_24  and  C_30
REMARK    8  A    between atoms: C_27  and  C_29
REMARK                            x       y       z     vdW  Elec       q    Type
REMARK                         _______ _______ _______ _____ _____    ______ ____
ROOT
ATOM      1  C   UNL     1       2.988  -2.875  -1.449  0.00  0.00    +0.235 C 
ATOM      2  O   UNL     1       2.273  -2.529  -2.365  0.00  0.00    -0.274 OA
ATOM      3  N   UNL     1       4.181  -3.447  -1.704  0.00  0.00    -0.313 N 
ATOM      4  H   UNL     1       4.753  -3.724  -0.971  0.00  0.00    +0.149 HD
ENDROOT
BRANCH   1   5
ATOM      5  C   UNL     1       2.542  -2.665  -0.025  0.00  0.00    +0.243 C 
BRANCH   5  16
ATOM      6  C   UNL     1      -0.018   1.503   0.010  0.00  0.00    +0.068 C 
ATOM      7  C   UNL     1       0.002  -0.004   0.002  0.00  0.00    +0.066 A 
ATOM      8  C   UNL     1      -1.255  -0.753   0.004  0.00  0.00    +0.010 A 
ATOM      9  C   UNL     1      -2.495  -0.111   0.013  0.00  0.00    +0.010 A 
ATOM     10  C   UNL     1      -3.642  -0.854   0.014  0.00  0.00    +0.001 A 
ATOM     11  C   UNL     1      -3.592  -2.242   0.007  0.00  0.00    +0.001 A 
ATOM     12  C   UNL     1      -2.383  -2.903  -0.002  0.00  0.00    +0.014 A 
ATOM     13  C   UNL     1      -1.200  -2.165  -0.004  0.00  0.00    +0.050 A 
ATOM     14  C   UNL     1       0.119  -2.809  -0.014  0.00  0.00    +0.275 A 
ATOM     15  O   UNL     1       0.216  -4.024  -0.021  0.00  0.00    -0.266 OA
ATOM     16  N   UNL     1       1.221  -2.031  -0.015  0.00  0.00    -0.220 N 
ATOM     17  N   UNL     1       1.136  -0.638  -0.012  0.00  0.00    -0.172 NA
ENDBRANCH   5  16
ENDBRANCH   1   5
BRANCH   3  18
ATOM     18  C   UNL     1       4.615  -3.651  -3.088  0.00  0.00    +0.108 C 
BRANCH  18  19
ATOM     19  C   UNL     1       5.994  -4.313  -3.099  0.00  0.00    +0.052 C 
BRANCH  19  20
ATOM     20  C   UNL     1       6.440  -4.522  -4.523  0.00  0.00    -0.037 C 
ATOM     21  C   UNL     1       5.763  -4.187  -5.645  0.00  0.00    -0.000 A 
ATOM     22  C   UNL     1       4.458  -3.553  -5.866  0.00  0.00    +0.010 A 
ATOM     23  C   UNL     1       4.038  -3.342  -7.135  0.00  0.00    +0.001 A 
ATOM     24  C   UNL     1       4.815  -3.715  -8.240  0.00  0.00    +0.014 A 
ATOM     25  C   UNL     1       6.024  -4.302  -8.116  0.00  0.00    +0.078 A 
ATOM     26  C   UNL     1       6.565  -4.571  -6.829  0.00  0.00    +0.055 A 
ATOM     27  N   UNL     1       7.694  -5.122  -6.453  0.00  0.00    -0.377 N 
ATOM     28  C   UNL     1       7.738  -5.144  -4.987  0.00  0.00    +0.103 C 
ATOM     29  C   UNL     1       8.926  -4.325  -4.480  0.00  0.00    +0.035 C 
ATOM     30  H   UNL     1       8.385  -5.455  -7.046  0.00  0.00    +0.160 HD
BRANCH  25  31
ATOM     31  C   UNL     1       6.805  -4.677  -9.350  0.00  0.00    +0.419 C 
ATOM     32  F   UNL     1       6.077  -4.318 -10.489  0.00  0.00    -0.166 F 
ATOM     33  F   UNL     1       8.031  -4.002  -9.348  0.00  0.00    -0.166 F 
ATOM     34  F   UNL     1       7.033  -6.057  -9.357  0.00  0.00    -0.166 F 
ENDBRANCH  25  31
ENDBRANCH  19  20
ENDBRANCH  18  19
ENDBRANCH   3  18
TORSDOF 6
