REMARK  Name = ZINC61594185
REMARK  10 active torsions:
REMARK  status: ('A' for Active; 'I' for Inactive)
REMARK    1  A    between atoms: C_1  and  C_2
REMARK    2  A    between atoms: C_2  and  C_3
REMARK    3  A    between atoms: C_3  and  C_5
REMARK    4  A    between atoms: C_3  and  N_24
REMARK    5  A    between atoms: C_5  and  C_7
REMARK    6  A    between atoms: C_5  and  S_14
REMARK    7  A    between atoms: C_10  and  C_13
REMARK    8  A    between atoms: S_14  and  C_15
REMARK    9  A    between atoms: N_21  and  C_22
REMARK   10  A    between atoms: C_22  and  C_23
REMARK                            x       y       z     vdW  Elec       q    Type
REMARK                         _______ _______ _______ _____ _____    ______ ____
ROOT
ATOM      1  C   UNL     1       0.565  -2.057   1.112  0.00  0.00    +0.070 C 
ENDROOT
BRANCH   1   2
ATOM      2  C   UNL     1       1.291  -2.429  -0.155  0.00  0.00    -0.036 A 
ATOM      3  C   UNL     1       2.598  -2.020  -0.348  0.00  0.00    +0.005 A 
ATOM      4  C   UNL     1       3.264  -2.361  -1.511  0.00  0.00    +0.003 A 
ATOM      5  C   UNL     1       2.624  -3.112  -2.479  0.00  0.00    -0.050 A 
ATOM      6  C   UNL     1       1.317  -3.521  -2.286  0.00  0.00    +0.003 A 
ATOM      7  C   UNL     1       0.653  -3.183  -1.121  0.00  0.00    +0.005 A 
ATOM      8  C   UNL     1       3.349  -3.483  -3.747  0.00  0.00    +0.044 C 
ENDBRANCH   1   2
BRANCH   1   9
ATOM      9  C   UNL     1       0.215  -0.568   1.081  0.00  0.00    -0.057 C 
BRANCH   9  10
ATOM     10  N   UNL     1      -0.536  -0.267  -0.146  0.00  0.00    +0.381 N 
ATOM     11  H   UNL     1       0.059  -0.410  -0.948  0.00  0.00    -0.090 HD
ATOM     12  H   UNL     1      -1.337  -0.877  -0.208  0.00  0.00    -0.090 HD
ATOM     13  H   UNL     1      -0.846   0.693  -0.123  0.00  0.00    -0.090 HD
ENDBRANCH   9  10
BRANCH   9  15
ATOM     14  C   UNL     1       1.151   1.745   1.210  0.00  0.00    +0.002 C 
ATOM     15  C   UNL     1       1.502   0.259   1.107  0.00  0.00    -0.018 C 
ENDBRANCH   9  15
ENDBRANCH   1   9
BRANCH   1  16
ATOM     16  S   UNL     1       1.629  -2.398   2.541  0.00  0.00    -0.080 S 
BRANCH  16  17
ATOM     17  C   UNL     1       0.593  -2.077   3.930  0.00  0.00    +0.193 A 
ATOM     18  N   UNL     1      -0.667  -1.752   3.878  0.00  0.00    -0.145 NA
ATOM     19  N   UNL     1      -1.125  -1.584   5.192  0.00  0.00    -0.226 N 
ATOM     20  H   UNL     1      -2.025  -1.341   5.460  0.00  0.00    +0.194 HD
ATOM     21  C   UNL     1      -0.085  -1.824   6.017  0.00  0.00    +0.345 A 
ATOM     22  O   UNL     1      -0.104  -1.773   7.234  0.00  0.00    -0.245 OA
ATOM     23  N   UNL     1       0.979  -2.135   5.250  0.00  0.00    -0.271 N 
BRANCH  23  24
ATOM     24  C   UNL     1       2.319  -2.472   5.737  0.00  0.00    +0.125 C 
ATOM     25  C   UNL     1       3.153  -1.196   5.860  0.00  0.00    +0.027 C 
ENDBRANCH  23  24
ENDBRANCH  16  17
ENDBRANCH   1  16
TORSDOF 7
