REMARK  Name = ZINC12131970
REMARK  13 active torsions:
REMARK  status: ('A' for Active; 'I' for Inactive)
REMARK    1  A    between atoms: C_1  and  C_2
REMARK    2  A    between atoms: C_2  and  C_3
REMARK    3  A    between atoms: C_2  and  C_4
REMARK    4  A    between atoms: C_4  and  C_5
REMARK    5  A    between atoms: C_8  and  C_11
REMARK    6  A    between atoms: C_11  and  C_13
REMARK    7  A    between atoms: C_11  and  N_14
REMARK    8  A    between atoms: C_15  and  C_17
REMARK    9  A    between atoms: C_17  and  S_18
REMARK   10  A    between atoms: S_18  and  C_19
REMARK   11  A    between atoms: C_22  and  C_30
REMARK   12  A    between atoms: N_23  and  C_24
REMARK   13  A    between atoms: C_30  and  N_69
REMARK                            x       y       z     vdW  Elec       q    Type
REMARK                         _______ _______ _______ _____ _____    ______ ____
ROOT
ATOM      1  S   UNL     1      -5.609   6.906   6.275  0.00  0.00    -0.076 S 
ENDROOT
BRANCH   1   2
ATOM      2  C   UNL     1      -5.660   8.641   5.970  0.00  0.00    +0.197 A 
ATOM      3  N   UNL     1      -4.847   9.322   5.195  0.00  0.00    -0.122 NA
ATOM      4  N   UNL     1      -5.176  10.564   5.201  0.00  0.00    -0.135 NA
ATOM      5  C   UNL     1      -6.203  10.754   5.980  0.00  0.00    +0.122 A 
ATOM      6  N   UNL     1      -6.550   9.534   6.500  0.00  0.00    -0.276 N 
BRANCH   6   7
ATOM      7  C   UNL     1      -7.598   9.260   7.389  0.00  0.00    +0.050 A 
ATOM      8  C   UNL     1      -8.915   9.453   6.994  0.00  0.00    +0.026 A 
ATOM      9  C   UNL     1      -9.946   9.177   7.871  0.00  0.00    +0.002 A 
ATOM     10  C   UNL     1      -9.667   8.719   9.145  0.00  0.00    +0.000 A 
ATOM     11  C   UNL     1      -8.356   8.531   9.544  0.00  0.00    +0.002 A 
ATOM     12  C   UNL     1      -7.322   8.800   8.670  0.00  0.00    +0.026 A 
ENDBRANCH   6   7
BRANCH   5  13
ATOM     13  C   UNL     1      -6.882  12.069   6.259  0.00  0.00    -0.001 C 
BRANCH  13  18
ATOM     14  C   UNL     1      -4.779  12.802   7.242  0.00  0.00    -0.078 C 
ATOM     15  C   UNL     1      -4.371  13.919   8.236  0.00  0.00    -0.020 C 
ATOM     16  C   UNL     1      -5.542  14.922   8.128  0.00  0.00    -0.020 C 
ATOM     17  C   UNL     1      -6.725  14.102   7.580  0.00  0.00    -0.078 C 
ATOM     18  N   UNL     1      -6.236  12.731   7.433  0.00  0.00    +0.384 N 
ATOM     19  H   UNL     1      -6.449  12.193   8.281  0.00  0.00    -0.081 HD
ENDBRANCH  13  18
ENDBRANCH   5  13
ENDBRANCH   1   2
BRANCH   1  20
ATOM     20  C   UNL     1      -4.195   6.447   5.242  0.00  0.00    +0.173 C 
BRANCH  20  22
ATOM     21  N   UNL     1      -2.948   4.391   4.660  0.00  0.00    -0.308 N 
ATOM     22  C   UNL     1      -3.956   4.963   5.348  0.00  0.00    +0.224 C 
ATOM     23  O   UNL     1      -4.672   4.283   6.053  0.00  0.00    -0.275 OA
ATOM     24  H   UNL     1      -2.376   4.936   4.096  0.00  0.00    +0.149 HD
BRANCH  21  25
ATOM     25  C   UNL     1      -2.716   2.949   4.763  0.00  0.00    +0.100 C 
ATOM     26  C   UNL     1      -1.849   2.658   5.990  0.00  0.00    +0.033 C 
BRANCH  25  30
ATOM     27  C   UNL     1      -0.718   1.572   1.248  0.00  0.00    -0.047 A 
ATOM     28  C   UNL     1      -0.360   2.779   1.819  0.00  0.00    +0.004 A 
ATOM     29  C   UNL     1      -1.010   3.227   2.953  0.00  0.00    +0.006 A 
ATOM     30  C   UNL     1      -2.012   2.463   3.523  0.00  0.00    -0.027 A 
ATOM     31  C   UNL     1      -2.366   1.254   2.955  0.00  0.00    +0.006 A 
ATOM     32  C   UNL     1      -1.719   0.808   1.818  0.00  0.00    +0.004 A 
BRANCH  27  33
ATOM     33  C   UNL     1      -0.013   1.086   0.008  0.00  0.00    +0.038 C 
BRANCH  33  35
ATOM     34  C   UNL     1       0.031   1.205  -2.487  0.00  0.00    +0.007 C 
ATOM     35  C   UNL     1      -0.753   1.593  -1.232  0.00  0.00    -0.013 C 
ATOM     36  C   UNL     1      -2.147   0.964  -1.286  0.00  0.00    +0.007 C 
ENDBRANCH  33  35
ENDBRANCH  27  33
ENDBRANCH  25  30
ENDBRANCH  21  25
ENDBRANCH  20  22
ENDBRANCH   1  20
TORSDOF 10
