REMARK  Name = ZINC33302487
REMARK  6 active torsions:
REMARK  status: ('A' for Active; 'I' for Inactive)
REMARK    1  A    between atoms: C_1  and  C_2
REMARK    2  A    between atoms: C_5  and  N_8
REMARK    3  A    between atoms: C_22  and  C_25
REMARK    4  A    between atoms: N_27  and  C_28
REMARK    5  A    between atoms: C_28  and  C_29
REMARK    6  A    between atoms: C_29  and  C_30
REMARK                            x       y       z     vdW  Elec       q    Type
REMARK                         _______ _______ _______ _____ _____    ______ ____
ROOT
ATOM      1  N   UNL     1       1.106   2.047   0.432  0.00  0.00    -0.248 N 
ATOM      2  C   UNL     1       1.113   3.400   0.385  0.00  0.00    +0.274 A 
ATOM      3  O   UNL     1       2.107   4.032   0.702  0.00  0.00    -0.266 OA
ATOM      4  C   UNL     1      -0.046   4.053  -0.028  0.00  0.00    +0.103 A 
ATOM      5  C   UNL     1      -1.201   3.340  -0.396  0.00  0.00    +0.087 A 
ATOM      6  C   UNL     1      -2.294   4.124  -0.792  0.00  0.00    +0.036 A 
ATOM      7  C   UNL     1      -2.195   5.471  -0.801  0.00  0.00    +0.048 A 
ATOM      8  S   UNL     1      -0.522   5.747  -0.243  0.00  0.00    -0.090 S 
ATOM      9  N   UNL     1      -1.114   1.972  -0.324  0.00  0.00    -0.215 NA
ATOM     10  C   UNL     1      -0.024   1.371   0.065  0.00  0.00    +0.206 A 
ATOM     11  N   UNL     1      -0.012  -0.003   0.112  0.00  0.00    -0.300 N 
ATOM     12  C   UNL     1      -0.990  -0.570  -0.826  0.00  0.00    +0.108 C 
ATOM     13  C   UNL     1      -0.848  -2.093  -0.853  0.00  0.00    +0.020 C 
ATOM     14  C   UNL     1      -1.082  -2.648   0.555  0.00  0.00    +0.016 C 
ATOM     15  C   UNL     1      -0.082  -2.005   1.521  0.00  0.00    +0.092 C 
ATOM     16  C   UNL     1      -0.246  -0.484   1.479  0.00  0.00    +0.120 C 
ENDROOT
BRANCH   1  21
ATOM     17  C   UNL     1       5.726  -0.789   2.112  0.00  0.00    +0.044 C 
ATOM     18  C   UNL     1       4.499  -0.036   1.665  0.00  0.00    -0.050 A 
ATOM     19  C   UNL     1       4.077  -0.121   0.351  0.00  0.00    +0.005 A 
ATOM     20  C   UNL     1       2.953   0.568  -0.060  0.00  0.00    +0.026 A 
ATOM     21  C   UNL     1       2.247   1.347   0.846  0.00  0.00    +0.053 A 
ATOM     22  C   UNL     1       2.676   1.435   2.164  0.00  0.00    +0.026 A 
ATOM     23  C   UNL     1       3.798   0.739   2.571  0.00  0.00    +0.005 A 
ENDBRANCH   1  21
BRANCH  15  24
ATOM     24  C   UNL     1      -0.343  -2.502   2.919  0.00  0.00    +0.218 C 
ATOM     25  O   UNL     1      -0.629  -1.717   3.798  0.00  0.00    -0.275 OA
ATOM     26  N   UNL     1      -0.259  -3.819   3.193  0.00  0.00    -0.315 N 
ATOM     27  H   UNL     1      -0.000  -4.531   2.396  0.00  0.00    +0.149 HD
BRANCH  26  28
ATOM     28  C   UNL     1      -0.513  -4.302   4.553  0.00  0.00    +0.108 C 
BRANCH  28  29
ATOM     29  C   UNL     1      -0.353  -5.823   4.592  0.00  0.00    +0.049 C 
BRANCH  29  30
ATOM     30  C   UNL     1      -0.614  -6.320   5.990  0.00  0.00    -0.072 C 
ATOM     31  C   UNL     1      -1.806  -6.736   6.274  0.00  0.00    -0.028 C 
ATOM     32  C   UNL     1      -2.219  -7.249   7.623  0.00  0.00    +0.027 C 
ATOM     33  C   UNL     1      -0.983  -7.606   8.452  0.00  0.00    +0.004 C 
ATOM     34  C   UNL     1      -0.005  -6.426   8.398  0.00  0.00    +0.005 C 
ATOM     35  C   UNL     1       0.527  -6.307   6.966  0.00  0.00    +0.030 C 
ENDBRANCH  29  30
ENDBRANCH  28  29
ENDBRANCH  26  28
ENDBRANCH  15  24
TORSDOF 5
