REMARK  Name = ZINC09395744
REMARK  12 active torsions:
REMARK  status: ('A' for Active; 'I' for Inactive)
REMARK    1  A    between atoms: C_1  and  C_2
REMARK    2  A    between atoms: C_2  and  C_3
REMARK    3  A    between atoms: C_3  and  N_4
REMARK    4  A    between atoms: C_17  and  S_18
REMARK    5  A    between atoms: S_18  and  C_19
REMARK    6  A    between atoms: C_19  and  C_21
REMARK    7  A    between atoms: C_19  and  C_22
REMARK    8  A    between atoms: N_24  and  C_25
REMARK    9  A    between atoms: C_28  and  C_31
REMARK   10  A    between atoms: C_31  and  C_32
REMARK   11  A    between atoms: C_31  and  C_33
REMARK   12  A    between atoms: C_31  and  C_34
REMARK                            x       y       z     vdW  Elec       q    Type
REMARK                         _______ _______ _______ _____ _____    ______ ____
ROOT
ATOM      1  N   UNL     1       3.594   3.524   0.009  0.00  0.00    -0.277 N 
ATOM      2  C   UNL     1       3.661   2.177  -0.006  0.00  0.00    +0.263 A 
ATOM      3  O   UNL     1       4.737   1.611  -0.018  0.00  0.00    -0.267 OA
ATOM      4  C   UNL     1       2.406   1.403  -0.008  0.00  0.00    +0.064 A 
ATOM      5  C   UNL     1       2.416   0.009  -0.022  0.00  0.00    +0.015 A 
ATOM      6  C   UNL     1       1.221  -0.680  -0.023  0.00  0.00    +0.001 A 
ATOM      7  C   UNL     1       0.017   0.005  -0.010  0.00  0.00    +0.002 A 
ATOM      8  C   UNL     1      -0.006   1.386   0.004  0.00  0.00    +0.027 A 
ATOM      9  C   UNL     1       1.186   2.095   0.006  0.00  0.00    +0.064 A 
ATOM     10  N   UNL     1       1.191   3.489   0.020  0.00  0.00    -0.256 N 
ATOM     11  C   UNL     1       2.372   4.179   0.021  0.00  0.00    +0.240 A 
ATOM     12  N   UNL     1       2.087   5.462   0.036  0.00  0.00    -0.109 NA
ATOM     13  N   UNL     1       0.694   5.599   0.044  0.00  0.00    -0.120 NA
ATOM     14  C   UNL     1       0.168   4.398   0.035  0.00  0.00    +0.198 A 
ENDROOT
BRANCH   1  15
ATOM     15  C   UNL     1       4.832   4.307   0.011  0.00  0.00    +0.128 C 
BRANCH  15  17
ATOM     16  C   UNL     1       6.563   5.383   1.457  0.00  0.00    +0.005 C 
ATOM     17  C   UNL     1       5.270   4.565   1.454  0.00  0.00    +0.018 C 
ENDBRANCH  15  17
ENDBRANCH   1  15
BRANCH  14  18
ATOM     18  S   UNL     1      -1.553   4.021   0.040  0.00  0.00    -0.073 S 
BRANCH  18  19
ATOM     19  C   UNL     1      -2.358   5.646   0.060  0.00  0.00    +0.137 C 
ATOM     20  C   UNL     1      -2.031   6.361   1.373  0.00  0.00    +0.029 C 
BRANCH  19  21
ATOM     21  C   UNL     1      -3.850   5.469  -0.057  0.00  0.00    +0.230 C 
ATOM     22  O   UNL     1      -4.368   4.432   0.300  0.00  0.00    -0.274 OA
ATOM     23  N   UNL     1      -4.609   6.463  -0.559  0.00  0.00    -0.285 N 
ATOM     24  H   UNL     1      -4.205   7.316  -0.782  0.00  0.00    +0.155 HD
BRANCH  23  25
ATOM     25  C   UNL     1      -5.980   6.264  -0.759  0.00  0.00    +0.033 A 
ATOM     26  C   UNL     1      -6.620   6.861  -1.837  0.00  0.00    +0.023 A 
ATOM     27  C   UNL     1      -7.972   6.659  -2.034  0.00  0.00    +0.006 A 
ATOM     28  C   UNL     1      -8.690   5.872  -1.153  0.00  0.00    -0.042 A 
ATOM     29  C   UNL     1      -8.057   5.280  -0.075  0.00  0.00    +0.006 A 
ATOM     30  C   UNL     1      -6.704   5.474   0.124  0.00  0.00    +0.023 A 
BRANCH  28  31
ATOM     31  C   UNL     1     -10.167   5.658  -1.367  0.00  0.00    -0.013 C 
ATOM     32  C   UNL     1     -10.939   6.177  -0.152  0.00  0.00    +0.015 C 
ATOM     33  C   UNL     1     -10.615   6.416  -2.618  0.00  0.00    +0.015 C 
ATOM     34  C   UNL     1     -10.445   4.165  -1.548  0.00  0.00    +0.015 C 
ENDBRANCH  28  31
ENDBRANCH  23  25
ENDBRANCH  19  21
ENDBRANCH  18  19
ENDBRANCH  14  18
TORSDOF 7
