REMARK  Name = ZINC17002524
REMARK  6 active torsions:
REMARK  status: ('A' for Active; 'I' for Inactive)
REMARK    1  A    between atoms: C_1  and  C_2
REMARK    2  A    between atoms: C_5  and  O_36
REMARK    3  A    between atoms: C_18  and  C_33
REMARK    4  A    between atoms: C_18  and  C_34
REMARK    5  A    between atoms: C_19  and  C_21
REMARK    6  A    between atoms: C_21  and  C_22
REMARK                            x       y       z     vdW  Elec       q    Type
REMARK                         _______ _______ _______ _____ _____    ______ ____
ROOT
ATOM      1  C   UNL     1       1.642   2.211   1.922  0.00  0.00    +0.012 C 
ATOM      2  C   UNL     1       2.773   1.450   1.228  0.00  0.00    -0.026 C 
ATOM      3  C   UNL     1       4.120   1.924   1.778  0.00  0.00    +0.010 C 
ATOM      4  C   UNL     1       4.278   3.423   1.516  0.00  0.00    +0.032 C 
ATOM      5  C   UNL     1       4.221   3.687   0.010  0.00  0.00    +0.115 C 
ATOM      6  C   UNL     1       2.875   3.212  -0.540  0.00  0.00    +0.035 C 
ATOM      7  C   UNL     1       2.716   1.713  -0.278  0.00  0.00    -0.002 C 
ATOM      8  C   UNL     1       1.370   1.238  -0.828  0.00  0.00    +0.004 C 
ATOM      9  C   UNL     1       1.212  -0.261  -0.566  0.00  0.00    +0.004 C 
ATOM     10  C   UNL     1       1.268  -0.524   0.940  0.00  0.00    -0.003 C 
ATOM     11  C   UNL     1       2.615  -0.049   1.490  0.00  0.00    -0.001 C 
ATOM     12  C   UNL     1       2.672  -0.312   2.997  0.00  0.00    +0.005 C 
ATOM     13  C   UNL     1       2.514  -1.811   3.259  0.00  0.00    +0.018 C 
ATOM     14  C   UNL     1       1.167  -2.286   2.709  0.00  0.00    +0.072 C 
ATOM     15  C   UNL     1       1.110  -2.023   1.203  0.00  0.00    +0.011 C 
ATOM     16  C   UNL     1       1.009  -3.785   2.971  0.00  0.00    +0.023 C 
ENDROOT
BRANCH  14  17
ATOM     17  C   UNL     1       0.053  -1.536   3.392  0.00  0.00    +0.362 C 
ATOM     18  O   UNL     1      -0.709  -0.860   2.741  0.00  0.00    -0.246 OA
ATOM     19  O   UNL     1      -0.094  -1.618   4.724  0.00  0.00    -0.246 OA
ENDBRANCH  14  17
BRANCH   5  20
ATOM     20  O   UNL     1       4.369   5.087  -0.235  0.00  0.00    -0.392 OA
ATOM     21  H   UNL     1       5.202   5.457   0.088  0.00  0.00    +0.210 HD
ENDBRANCH   5  20
BRANCH  15  22
ATOM     22  C   UNL     1      -0.236  -2.497   0.652  0.00  0.00    +0.035 C 
BRANCH  22  23
ATOM     23  C   UNL     1      -0.161  -3.993   0.341  0.00  0.00    +0.142 C 
ATOM     24  C   UNL     1      -1.518  -4.507  -0.089  0.00  0.00    +0.185 C 
ATOM     25  O   UNL     1      -2.544  -4.504   0.558  0.00  0.00    -0.290 OA
ATOM     26  C   UNL     1      -1.329  -5.010  -1.457  0.00  0.00    +0.040 A 
ATOM     27  C   UNL     1      -2.227  -5.598  -2.358  0.00  0.00    +0.013 A 
ATOM     28  C   UNL     1      -1.792  -5.989  -3.603  0.00  0.00    +0.001 A 
ATOM     29  C   UNL     1      -0.467  -5.804  -3.969  0.00  0.00    +0.002 A 
ATOM     30  C   UNL     1       0.428  -5.228  -3.095  0.00  0.00    +0.023 A 
ATOM     31  C   UNL     1       0.012  -4.823  -1.826  0.00  0.00    +0.038 A 
ATOM     32  N   UNL     1       0.729  -4.229  -0.799  0.00  0.00    -0.333 N 
ATOM     33  H   UNL     1       1.672  -4.005  -0.830  0.00  0.00    +0.147 HD
ENDBRANCH  22  23
ENDBRANCH  15  22
TORSDOF 4
