REMARK  Name = ZINC39732194
REMARK  11 active torsions:
REMARK  status: ('A' for Active; 'I' for Inactive)
REMARK    1  A    between atoms: C_1  and  C_2
REMARK    2  A    between atoms: C_2  and  C_3
REMARK    3  A    between atoms: C_10  and  S_13
REMARK    4  A    between atoms: S_13  and  C_14
REMARK    5  A    between atoms: C_14  and  C_16
REMARK    6  A    between atoms: C_14  and  C_17
REMARK    7  A    between atoms: N_19  and  C_20
REMARK    8  A    between atoms: C_22  and  C_32
REMARK    9  A    between atoms: C_32  and  O_34
REMARK   10  A    between atoms: O_34  and  C_35
REMARK   11  A    between atoms: C_35  and  C_36
REMARK                            x       y       z     vdW  Elec       q    Type
REMARK                         _______ _______ _______ _____ _____    ______ ____
ROOT
ATOM      1  C   UNL     1      -5.241   0.596  -2.063  0.00  0.00    +0.227 C 
ATOM      2  O   UNL     1      -5.129   1.219  -1.028  0.00  0.00    -0.275 OA
ATOM      3  N   UNL     1      -6.462   0.230  -2.501  0.00  0.00    -0.301 N 
ATOM      4  H   UNL     1      -6.551  -0.268  -3.328  0.00  0.00    +0.150 HD
ENDROOT
BRANCH   3   5
ATOM      5  C   UNL     1      -7.654   0.586  -1.728  0.00  0.00    +0.153 C 
ATOM      6  C   UNL     1      -8.736   1.241  -2.621  0.00  0.00    +0.155 C 
ATOM      7  C   UNL     1      -9.440   2.372  -1.906  0.00  0.00    -0.044 C 
ATOM      8  C   UNL     1      -8.857   2.874  -0.843  0.00  0.00    -0.013 C 
ATOM      9  S   UNL     1      -7.328   2.002  -0.595  0.00  0.00    -0.106 S 
ATOM     10  C   UNL     1      -9.402   3.976   0.043  0.00  0.00    +0.042 C 
ATOM     11  C   UNL     1      -9.383   5.277  -0.772  0.00  0.00    +0.005 C 
ATOM     12  C   UNL     1     -10.566   5.329  -1.712  0.00  0.00    +0.001 C 
ATOM     13  C   UNL     1     -10.521   4.372  -2.878  0.00  0.00    +0.004 C 
ATOM     14  C   UNL     1     -10.765   2.928  -2.442  0.00  0.00    +0.032 C 
BRANCH   6  15
ATOM     15  C   UNL     1      -8.084   1.782  -3.868  0.00  0.00    +0.317 C 
ATOM     16  O   UNL     1      -8.127   2.965  -4.108  0.00  0.00    -0.250 OA
BRANCH  15  17
ATOM     17  O   UNL     1      -7.454   0.949  -4.711  0.00  0.00    -0.464 OA
BRANCH  17  18
ATOM     18  C   UNL     1      -6.858   1.530  -5.872  0.00  0.00    +0.229 C 
ATOM     19  C   UNL     1      -6.192   0.433  -6.707  0.00  0.00    +0.048 C 
ENDBRANCH  17  18
ENDBRANCH  15  17
ENDBRANCH   6  15
ENDBRANCH   3   5
BRANCH   1  20
ATOM     20  C   UNL     1      -4.014   0.230  -2.858  0.00  0.00    +0.137 C 
ATOM     21  C   UNL     1      -3.777   1.281  -3.944  0.00  0.00    +0.029 C 
BRANCH  20  22
ATOM     22  S   UNL     1      -2.575   0.166  -1.755  0.00  0.00    -0.073 S 
BRANCH  22  30
ATOM     23  C   UNL     1       0.707  -0.490  -1.238  0.00  0.00    +0.034 A 
ATOM     24  C   UNL     1       2.022  -0.802  -1.201  0.00  0.00    +0.094 A 
ATOM     25  C   UNL     1       2.660  -1.255  -2.376  0.00  0.00    +0.275 A 
ATOM     26  O   UNL     1       3.977  -1.570  -2.347  0.00  0.00    -0.266 OA
ATOM     27  N   UNL     1       1.982  -1.373  -3.498  0.00  0.00    -0.172 NA
ATOM     28  C   UNL     1       0.677  -1.067  -3.547  0.00  0.00    +0.260 A 
ATOM     29  N   UNL     1       0.025  -0.627  -2.415  0.00  0.00    -0.259 N 
ATOM     30  C   UNL     1      -1.271  -0.411  -2.789  0.00  0.00    +0.198 A 
ATOM     31  N   UNL     1      -1.362  -0.714  -4.062  0.00  0.00    -0.120 NA
ATOM     32  N   UNL     1      -0.220  -1.092  -4.515  0.00  0.00    -0.107 NA
BRANCH  23  34
ATOM     33  C   UNL     1      -0.019   1.526   0.010  0.00  0.00    +0.010 C 
ATOM     34  C   UNL     1       0.002  -0.004   0.002  0.00  0.00    +0.051 C 
ENDBRANCH  23  34
ENDBRANCH  22  30
ENDBRANCH  20  22
ENDBRANCH   1  20
TORSDOF 8
