REMARK  Name = ZINC13199887
REMARK  10 active torsions:
REMARK  status: ('A' for Active; 'I' for Inactive)
REMARK    1  A    between atoms: C_1  and  C_2
REMARK    2  A    between atoms: C_5  and  C_9
REMARK    3  A    between atoms: C_6  and  C_8
REMARK    4  A    between atoms: C_9  and  N_10
REMARK    5  A    between atoms: N_10  and  C_11
REMARK    6  A    between atoms: C_12  and  C_14
REMARK    7  A    between atoms: C_14  and  S_15
REMARK    8  A    between atoms: S_15  and  C_16
REMARK    9  A    between atoms: C_20  and  C_33
REMARK   10  A    between atoms: N_26  and  C_27
REMARK                            x       y       z     vdW  Elec       q    Type
REMARK                         _______ _______ _______ _____ _____    ______ ____
ROOT
ATOM      1  C   UNL     1      -0.422  -0.764  -4.258  0.00  0.00    +0.177 A 
ATOM      2  N   UNL     1       0.671  -0.529  -4.941  0.00  0.00    -0.223 NA
ATOM      3  C   UNL     1       0.770   0.532  -5.776  0.00  0.00    +0.080 A 
ATOM      4  C   UNL     1       1.937   0.779  -6.505  0.00  0.00    +0.043 A 
ATOM      5  C   UNL     1       1.994   1.881  -7.350  0.00  0.00    +0.065 A 
ATOM      6  C   UNL     1       0.893   2.738  -7.474  0.00  0.00    +0.016 A 
ATOM      7  C   UNL     1      -0.252   2.507  -6.767  0.00  0.00    +0.016 A 
ATOM      8  C   UNL     1      -0.331   1.407  -5.913  0.00  0.00    +0.065 A 
ATOM      9  C   UNL     1      -1.545   1.120  -5.134  0.00  0.00    +0.267 A 
ATOM     10  O   UNL     1      -2.528   1.834  -5.212  0.00  0.00    -0.267 OA
ATOM     11  N   UNL     1      -1.532   0.031  -4.331  0.00  0.00    -0.255 N 
ENDROOT
BRANCH  11  12
ATOM     12  C   UNL     1      -2.664  -0.284  -3.569  0.00  0.00    +0.052 A 
ATOM     13  C   UNL     1      -3.671  -1.072  -4.112  0.00  0.00    +0.026 A 
ATOM     14  C   UNL     1      -4.784  -1.385  -3.356  0.00  0.00    +0.002 A 
ATOM     15  C   UNL     1      -4.902  -0.906  -2.064  0.00  0.00    +0.000 A 
ATOM     16  C   UNL     1      -3.903  -0.117  -1.523  0.00  0.00    +0.002 A 
ATOM     17  C   UNL     1      -2.785   0.195  -2.271  0.00  0.00    +0.026 A 
ENDBRANCH  11  12
BRANCH   5  18
ATOM     18  C   UNL     1       3.225   2.149  -8.125  0.00  0.00    +0.387 C 
ATOM     19  O   UNL     1       4.182   1.408  -8.020  0.00  0.00    -0.241 OA
ATOM     20  O   UNL     1       3.285   3.215  -8.945  0.00  0.00    -0.241 OA
ENDBRANCH   5  18
BRANCH   1  21
ATOM     21  S   UNL     1      -0.463  -2.169  -3.195  0.00  0.00    -0.078 S 
BRANCH  21  22
ATOM     22  C   UNL     1       1.198  -2.827  -3.480  0.00  0.00    +0.173 C 
BRANCH  22  25
ATOM     23  N   UNL     1       2.567  -4.735  -2.700  0.00  0.00    -0.300 N 
ATOM     24  C   UNL     1       3.647  -4.251  -3.563  0.00  0.00    +0.132 C 
ATOM     25  C   UNL     1       1.396  -4.069  -2.650  0.00  0.00    +0.226 C 
ATOM     26  O   UNL     1       0.501  -4.470  -1.935  0.00  0.00    -0.275 OA
BRANCH  23  27
ATOM     27  C   UNL     1       2.758  -5.942  -1.893  0.00  0.00    +0.142 C 
BRANCH  27  32
ATOM     28  C   UNL     1       1.386 -10.596  -5.032  0.00  0.00    +0.044 C 
ATOM     29  C   UNL     1       1.744  -9.383  -4.213  0.00  0.00    -0.050 A 
ATOM     30  C   UNL     1       1.579  -8.117  -4.745  0.00  0.00    +0.004 A 
ATOM     31  C   UNL     1       1.907  -7.004  -3.994  0.00  0.00    +0.006 A 
ATOM     32  C   UNL     1       2.400  -7.156  -2.712  0.00  0.00    -0.027 A 
ATOM     33  C   UNL     1       2.570  -8.421  -2.182  0.00  0.00    -0.046 A 
ATOM     34  C   UNL     1       2.237  -9.535  -2.931  0.00  0.00    +0.007 A 
ATOM     35  C   UNL     1       3.114  -8.587  -0.786  0.00  0.00    +0.044 C 
ENDBRANCH  27  32
ENDBRANCH  23  27
ENDBRANCH  22  25
ENDBRANCH  21  22
ENDBRANCH   1  21
TORSDOF 7
