REMARK  Name = ZINC34633485
REMARK  2 active torsions:
REMARK  status: ('A' for Active; 'I' for Inactive)
REMARK    1  A    between atoms: C_1  and  C_2
REMARK    2  A    between atoms: N_14  and  N_18
REMARK                            x       y       z     vdW  Elec       q    Type
REMARK                         _______ _______ _______ _____ _____    ______ ____
ROOT
ATOM      1  C   UNL     1      -0.018   1.503   0.010  0.00  0.00    +0.044 C 
ATOM      2  C   UNL     1       0.002  -0.004   0.002  0.00  0.00    -0.050 A 
ATOM      3  C   UNL     1       0.006  -0.686  -1.207  0.00  0.00    +0.005 A 
ATOM      4  C   UNL     1       0.025  -2.063  -1.234  0.00  0.00    +0.026 A 
ATOM      5  C   UNL     1       0.041  -2.781  -0.041  0.00  0.00    +0.049 A 
ATOM      6  C   UNL     1       0.037  -2.084   1.180  0.00  0.00    +0.026 A 
ATOM      7  C   UNL     1       0.023  -0.689   1.184  0.00  0.00    +0.015 A 
ATOM      8  C   UNL     1       0.056  -3.100   2.241  0.00  0.00    +0.107 A 
ATOM      9  C   UNL     1       0.069  -4.339   1.603  0.00  0.00    +0.133 A 
ATOM     10  N   UNL     1       0.060  -4.132   0.233  0.00  0.00    -0.349 N 
ATOM     11  H   UNL     1       0.066  -4.835  -0.435  0.00  0.00    +0.166 HD
ATOM     12  C   UNL     1       0.089  -5.504   2.399  0.00  0.00    +0.296 A 
ATOM     13  O   UNL     1       0.102  -6.610   1.884  0.00  0.00    -0.264 OA
ATOM     14  N   UNL     1       0.093  -5.369   3.742  0.00  0.00    -0.195 N 
ATOM     15  C   UNL     1       0.079  -4.132   4.310  0.00  0.00    +0.367 A 
ATOM     16  N   UNL     1       0.061  -3.041   3.584  0.00  0.00    -0.189 NA
ATOM     17  O   UNL     1       0.083  -4.026   5.656  0.00  0.00    -0.243 OA
ENDROOT
BRANCH  14  18
ATOM     18  N   UNL     1       0.112  -6.480   4.537  0.00  0.00    -0.360 NA
ATOM     19  H   UNL     1       1.068  -6.741   4.728  0.00  0.00    +0.138 HD
ATOM     20  H   UNL     1      -0.362  -6.281   5.404  0.00  0.00    +0.138 HD
ATOM     21  H   UNL     1      -0.355  -7.239   4.064  0.00  0.00    +0.138 HD
ENDBRANCH  14  18
TORSDOF 1
