REMARK  Name = ZINC09015751
REMARK  5 active torsions:
REMARK  status: ('A' for Active; 'I' for Inactive)
REMARK    1  A    between atoms: C_1  and  C_2
REMARK    2  A    between atoms: C_16  and  C_35
REMARK    3  A    between atoms: C_18  and  C_27
REMARK    4  A    between atoms: C_27  and  C_29
REMARK    5  A    between atoms: C_35  and  C_37
REMARK                            x       y       z     vdW  Elec       q    Type
REMARK                         _______ _______ _______ _____ _____    ______ ____
ROOT
ATOM      1  C   UNL     1       2.970  -1.224  -4.491  0.00  0.00    +0.044 C 
ATOM      2  C   UNL     1       3.344  -0.393  -3.290  0.00  0.00    -0.044 C 
ATOM      3  C   UNL     1       2.434  -0.077  -2.349  0.00  0.00    +0.000 C 
ATOM      4  C   UNL     1       2.930   0.749  -1.202  0.00  0.00    +0.118 C 
ATOM      5  C   UNL     1       2.095   0.669   0.068  0.00  0.00    +0.108 C 
ATOM      6  C   UNL     1       1.298  -0.587   0.157  0.00  0.00    -0.008 A 
ATOM      7  C   UNL     1       1.666  -1.915   0.143  0.00  0.00    +0.006 A 
ATOM      8  C   UNL     1       0.647  -2.856   0.247  0.00  0.00    +0.000 A 
ATOM      9  C   UNL     1      -0.673  -2.474   0.362  0.00  0.00    +0.002 A 
ATOM     10  C   UNL     1      -1.054  -1.141   0.378  0.00  0.00    +0.023 A 
ATOM     11  C   UNL     1      -0.041  -0.186   0.273  0.00  0.00    +0.038 A 
ATOM     12  N   UNL     1      -0.132   1.195   0.263  0.00  0.00    -0.284 N 
ATOM     13  C   UNL     1       1.079   1.781   0.144  0.00  0.00    +0.231 C 
ATOM     14  O   UNL     1       1.306   2.972   0.105  0.00  0.00    -0.274 OA
ATOM     15  C   UNL     1       3.112   0.781   1.222  0.00  0.00    +0.110 C 
ATOM     16  C   UNL     1       4.497   0.857   0.518  0.00  0.00    +0.157 C 
ATOM     17  N   UNL     1       4.255   0.216  -0.780  0.00  0.00    -0.311 N 
ATOM     18  C   UNL     1       5.166   0.403  -1.792  0.00  0.00    +0.038 A 
ATOM     19  C   UNL     1       4.726   0.108  -3.102  0.00  0.00    -0.001 A 
ATOM     20  C   UNL     1       5.590   0.283  -4.174  0.00  0.00    +0.010 A 
ATOM     21  C   UNL     1       6.875   0.740  -3.951  0.00  0.00    +0.001 A 
ATOM     22  C   UNL     1       7.305   1.023  -2.667  0.00  0.00    +0.002 A 
ATOM     23  C   UNL     1       6.454   0.856  -1.588  0.00  0.00    +0.024 A 
ATOM     24  H   UNL     1      -0.968   1.684   0.329  0.00  0.00    +0.155 HD
ENDROOT
BRANCH  16  25
ATOM     25  C   UNL     1       4.920   2.291   0.332  0.00  0.00    +0.184 C 
ATOM     26  O   UNL     1       4.700   2.856  -0.718  0.00  0.00    -0.290 OA
BRANCH  25  27
ATOM     27  C   UNL     1       5.600   3.006   1.424  0.00  0.00    +0.019 A 
ATOM     28  C   UNL     1       5.850   2.359   2.639  0.00  0.00    +0.011 A 
ATOM     29  C   UNL     1       6.492   3.034   3.655  0.00  0.00    +0.001 A 
ATOM     30  C   UNL     1       6.879   4.351   3.480  0.00  0.00    +0.000 A 
ATOM     31  C   UNL     1       6.630   5.000   2.283  0.00  0.00    +0.001 A 
ATOM     32  C   UNL     1       5.994   4.337   1.255  0.00  0.00    +0.011 A 
ENDBRANCH  25  27
ENDBRANCH  16  25
BRANCH  15  33
ATOM     33  C   UNL     1       2.861   2.032   2.024  0.00  0.00    +0.170 C 
ATOM     34  O   UNL     1       3.109   3.115   1.548  0.00  0.00    -0.292 OA
BRANCH  33  35
ATOM     35  C   UNL     1       2.312   1.935   3.390  0.00  0.00    +0.021 A 
ATOM     36  C   UNL     1       2.012   0.691   3.959  0.00  0.00    +0.031 A 
ATOM     37  C   UNL     1       1.505   0.647   5.244  0.00  0.00    +0.111 A 
ATOM     38  N   UNL     1       1.294   1.755   5.926  0.00  0.00    -0.263 NA
ATOM     39  C   UNL     1       1.557   2.946   5.428  0.00  0.00    +0.111 A 
ATOM     40  C   UNL     1       2.071   3.085   4.153  0.00  0.00    +0.031 A 
ENDBRANCH  33  35
ENDBRANCH  15  33
TORSDOF 4
