REMARK  Name = ZINC14886845
REMARK  11 active torsions:
REMARK  status: ('A' for Active; 'I' for Inactive)
REMARK    1  A    between atoms: C_1  and  C_2
REMARK    2  A    between atoms: C_5  and  C_8
REMARK    3  A    between atoms: C_13  and  C_16
REMARK    4  A    between atoms: C_16  and  C_27
REMARK    5  A    between atoms: N_19  and  C_23
REMARK    6  A    between atoms: C_23  and  C_24
REMARK    7  A    between atoms: C_24  and  N_71
REMARK    8  A    between atoms: C_25  and  N_71
REMARK    9  A    between atoms: C_26  and  N_71
REMARK   10  A    between atoms: C_27  and  C_28
REMARK   11  A    between atoms: C_28  and  C_29
REMARK                            x       y       z     vdW  Elec       q    Type
REMARK                         _______ _______ _______ _____ _____    ______ ____
ROOT
ATOM      1  C   UNL     1       1.891   0.534   0.231  0.00  0.00    +0.116 C 
ATOM      2  C   UNL     1       2.679  -0.695   0.636  0.00  0.00    +0.247 C 
ATOM      3  O   UNL     1       3.881  -0.780   0.777  0.00  0.00    -0.273 OA
ATOM      4  N   UNL     1       1.768  -1.673   0.807  0.00  0.00    -0.226 N 
ATOM      5  C   UNL     1       0.526  -1.237   0.569  0.00  0.00    +0.309 C 
ATOM      6  O   UNL     1      -0.464  -1.936   0.657  0.00  0.00    -0.252 OA
ATOM      7  N   UNL     1       0.495   0.062   0.219  0.00  0.00    -0.285 N 
ATOM      8  H   UNL     1      -0.292   0.585  -0.002  0.00  0.00    +0.151 HD
ENDROOT
BRANCH   1  14
ATOM      9  C   UNL     1       4.126   2.984   4.557  0.00  0.00    +0.247 C 
ATOM     10  O   UNL     1       3.772   2.643   5.668  0.00  0.00    -0.270 OA
ATOM     11  N   UNL     1       3.284   2.857   3.512  0.00  0.00    -0.298 N 
ATOM     12  C   UNL     1       1.965   2.233   3.686  0.00  0.00    +0.108 C 
ATOM     13  C   UNL     1       1.817   1.102   2.663  0.00  0.00    +0.025 C 
ATOM     14  C   UNL     1       2.071   1.654   1.258  0.00  0.00    +0.024 C 
ATOM     15  C   UNL     1       3.499   2.198   1.173  0.00  0.00    +0.025 C 
ATOM     16  C   UNL     1       3.667   3.341   2.179  0.00  0.00    +0.108 C 
BRANCH   9  21
ATOM     17  C   UNL     1       9.401   5.142   3.756  0.00  0.00    +0.044 C 
ATOM     18  C   UNL     1       8.019   4.576   3.965  0.00  0.00    -0.050 A 
ATOM     19  C   UNL     1       6.916   5.255   3.479  0.00  0.00    +0.004 A 
ATOM     20  C   UNL     1       5.649   4.744   3.668  0.00  0.00    +0.013 A 
ATOM     21  C   UNL     1       5.481   3.538   4.350  0.00  0.00    +0.037 A 
ATOM     22  C   UNL     1       6.598   2.860   4.842  0.00  0.00    +0.013 A 
ATOM     23  C   UNL     1       7.860   3.380   4.643  0.00  0.00    +0.004 A 
ENDBRANCH   9  21
ENDBRANCH   1  14
BRANCH   4  24
ATOM     24  C   UNL     1       2.097  -3.044   1.205  0.00  0.00    +0.099 C 
BRANCH  24  25
ATOM     25  C   UNL     1       2.348  -3.890  -0.045  0.00  0.00    -0.060 C 
BRANCH  25  28
ATOM     26  C   UNL     1       1.527  -5.918   0.993  0.00  0.00    -0.097 C 
ATOM     27  C   UNL     1       3.154  -6.047  -0.795  0.00  0.00    -0.097 C 
ATOM     28  N   UNL     1       2.699  -5.264   0.373  0.00  0.00    +0.377 N 
ATOM     29  H   UNL     1       3.459  -5.220   1.061  0.00  0.00    -0.083 HD
ENDBRANCH  25  28
ENDBRANCH  24  25
ENDBRANCH   4  24
BRANCH   1  30
ATOM     30  C   UNL     1       2.310   1.008  -1.163  0.00  0.00    +0.040 C 
BRANCH  30  31
ATOM     31  C   UNL     1       2.053  -0.107  -2.179  0.00  0.00    +0.038 C 
BRANCH  31  32
ATOM     32  C   UNL     1       2.466   0.359  -3.551  0.00  0.00    -0.047 A 
ATOM     33  C   UNL     1       1.551   0.994  -4.370  0.00  0.00    +0.003 A 
ATOM     34  C   UNL     1       1.932   1.426  -5.627  0.00  0.00    +0.000 A 
ATOM     35  C   UNL     1       3.224   1.214  -6.069  0.00  0.00    +0.000 A 
ATOM     36  C   UNL     1       4.138   0.575  -5.251  0.00  0.00    +0.000 A 
ATOM     37  C   UNL     1       3.759   0.148  -3.993  0.00  0.00    +0.003 A 
ENDBRANCH  31  32
ENDBRANCH  30  31
ENDBRANCH   1  30
TORSDOF 8
