REMARK  Name = ZINC41035724
REMARK  5 active torsions:
REMARK  status: ('A' for Active; 'I' for Inactive)
REMARK    1  A    between atoms: C_1  and  C_2
REMARK    2  A    between atoms: C_4  and  C_9
REMARK    3  A    between atoms: C_11  and  C_14
REMARK    4  A    between atoms: C_14  and  N_22
REMARK    5  A    between atoms: C_18  and  C_21
REMARK                            x       y       z     vdW  Elec       q    Type
REMARK                         _______ _______ _______ _____ _____    ______ ____
ROOT
ATOM      1  C   UNL     1       0.003  -2.578  -3.097  0.00  0.00    +0.202 A 
ATOM      2  N   UNL     1      -0.342  -3.754  -3.652  0.00  0.00    -0.193 NA
ATOM      3  C   UNL     1       0.694  -4.542  -3.706  0.00  0.00    +0.216 A 
ATOM      4  O   UNL     1       1.746  -3.897  -3.186  0.00  0.00    -0.339 OA
ATOM      5  N   UNL     1       1.278  -2.614  -2.798  0.00  0.00    -0.056 NA
ENDROOT
BRANCH   1   9
ATOM      6  C   UNL     1      -0.751   2.074  -1.449  0.00  0.00    +0.047 C 
ATOM      7  C   UNL     1      -1.273   0.808  -2.077  0.00  0.00    -0.015 A 
ATOM      8  C   UNL     1      -0.423  -0.259  -2.288  0.00  0.00    +0.018 A 
ATOM      9  C   UNL     1      -0.907  -1.429  -2.869  0.00  0.00    +0.023 A 
ATOM     10  C   UNL     1      -2.249  -1.517  -3.235  0.00  0.00    +0.014 A 
ATOM     11  C   UNL     1      -3.092  -0.446  -3.021  0.00  0.00    +0.039 A 
ATOM     12  C   UNL     1      -2.608   0.714  -2.438  0.00  0.00    +0.126 A 
ATOM     13  F   UNL     1      -3.438   1.758  -2.225  0.00  0.00    -0.205 F 
ENDBRANCH   1   9
BRANCH   3  14
ATOM     14  C   UNL     1       0.706  -5.943  -4.261  0.00  0.00    +0.010 C 
ATOM     15  C   UNL     1       2.135  -6.489  -4.237  0.00  0.00    -0.004 C 
ATOM     16  C   UNL     1       3.037  -5.595  -5.090  0.00  0.00    -0.001 C 
ATOM     17  C   UNL     1       2.522  -5.578  -6.531  0.00  0.00    +0.003 C 
ATOM     18  C   UNL     1       1.092  -5.032  -6.555  0.00  0.00    -0.015 C 
ATOM     19  C   UNL     1       0.191  -5.926  -5.701  0.00  0.00    -0.001 C 
ATOM     20  C   UNL     1       1.080  -3.610  -5.992  0.00  0.00    +0.007 C 
BRANCH  14  21
ATOM     21  N   UNL     1      -0.159  -6.802  -3.441  0.00  0.00    +0.388 N 
ATOM     22  H   UNL     1      -1.102  -6.442  -3.457  0.00  0.00    -0.089 HD
ATOM     23  H   UNL     1      -0.151  -7.740  -3.812  0.00  0.00    -0.089 HD
ATOM     24  H   UNL     1       0.180  -6.813  -2.491  0.00  0.00    -0.089 HD
ENDBRANCH  14  21
ENDBRANCH   3  14
TORSDOF 3
