REMARK  Name = ZINC08666427
REMARK  8 active torsions:
REMARK  status: ('A' for Active; 'I' for Inactive)
REMARK    1  A    between atoms: C_4  and  C_7
REMARK    2  A    between atoms: C_7  and  N_58
REMARK    3  A    between atoms: C_8  and  C_9
REMARK    4  A    between atoms: C_8  and  N_58
REMARK    5  A    between atoms: C_16  and  C_18
REMARK    6  A    between atoms: C_16  and  C_23
REMARK    7  A    between atoms: C_16  and  N_58
REMARK    8  A    between atoms: N_27  and  C_28
REMARK                            x       y       z     vdW  Elec       q    Type
REMARK                         _______ _______ _______ _____ _____    ______ ____
ROOT
ATOM      1  N   UNL     1       4.181  -0.638  -1.728  0.00  0.00    +0.395 N 
ATOM      2  H   UNL     1       4.012   0.288  -2.136  0.00  0.00    -0.079 HD
ENDROOT
BRANCH   1   3
ATOM      3  C   UNL     1       4.404  -0.489  -0.274  0.00  0.00    -0.041 C 
BRANCH   3   7
ATOM      4  C   UNL     1       1.448   2.162   1.302  0.00  0.00    +0.000 A 
ATOM      5  C   UNL     1       2.432   2.645   0.460  0.00  0.00    +0.000 A 
ATOM      6  C   UNL     1       3.388   1.788  -0.050  0.00  0.00    +0.002 A 
ATOM      7  C   UNL     1       3.361   0.446   0.282  0.00  0.00    -0.064 A 
ATOM      8  C   UNL     1       2.378  -0.038   1.125  0.00  0.00    +0.002 A 
ATOM      9  C   UNL     1       1.422   0.820   1.635  0.00  0.00    +0.000 A 
ENDBRANCH   3   7
ENDBRANCH   1   3
BRANCH   1  10
ATOM     10  C   UNL     1       5.375  -1.234  -2.364  0.00  0.00    -0.040 C 
BRANCH  10  11
ATOM     11  C   UNL     1       6.520  -0.260  -2.256  0.00  0.00    -0.046 A 
ATOM     12  C   UNL     1       6.743   0.658  -3.265  0.00  0.00    +0.003 A 
ATOM     13  C   UNL     1       7.791   1.554  -3.165  0.00  0.00    +0.000 A 
ATOM     14  C   UNL     1       8.622   1.526  -2.060  0.00  0.00    +0.001 A 
ATOM     15  C   UNL     1       8.403   0.605  -1.053  0.00  0.00    +0.020 A 
ATOM     16  C   UNL     1       7.351  -0.289  -1.151  0.00  0.00    +0.042 A 
ATOM     17 CL   UNL     1       7.075  -1.447   0.113  0.00  0.00    -0.083 Cl
ENDBRANCH  10  11
ENDBRANCH   1  10
BRANCH   1  18
ATOM     18  C   UNL     1       2.999  -1.493  -1.971  0.00  0.00    +0.041 C 
BRANCH  18  19
ATOM     19  C   UNL     1       3.011  -1.959  -3.404  0.00  0.00    -0.016 A 
ATOM     20  C   UNL     1       2.676  -3.171  -3.910  0.00  0.00    +0.010 A 
ATOM     21  C   UNL     1       2.761  -3.374  -5.275  0.00  0.00    +0.008 A 
ATOM     22  C   UNL     1       3.187  -2.359  -6.066  0.00  0.00    +0.045 A 
ATOM     23  S   UNL     1       3.477  -1.061  -4.875  0.00  0.00    -0.103 S 
ENDBRANCH  18  19
BRANCH  18  24
ATOM     24  C   UNL     1       1.755  -0.681  -1.718  0.00  0.00    +0.143 A 
ATOM     25  N   UNL     1       1.583   0.591  -1.984  0.00  0.00    -0.115 NA
ATOM     26  N   UNL     1       0.390   0.915  -1.623  0.00  0.00    -0.023 NA
ATOM     27  N   UNL     1      -0.204  -0.117  -1.133  0.00  0.00    -0.044 NA
ATOM     28  N   UNL     1       0.604  -1.122  -1.179  0.00  0.00    -0.227 N 
BRANCH  28  29
ATOM     29  C   UNL     1       0.321  -2.487  -0.726  0.00  0.00    +0.111 C 
ATOM     30  C   UNL     1      -0.905  -3.049  -1.476  0.00  0.00    +0.027 C 
ATOM     31  C   UNL     1      -1.650  -3.888  -0.407  0.00  0.00    +0.002 C 
ATOM     32  C   UNL     1      -1.474  -3.041   0.878  0.00  0.00    +0.002 C 
ATOM     33  C   UNL     1      -0.041  -2.482   0.769  0.00  0.00    +0.027 C 
ENDBRANCH  28  29
ENDBRANCH  18  24
ENDBRANCH   1  18
TORSDOF 8
