REMARK  Name = ZINC52276178
REMARK  5 active torsions:
REMARK  status: ('A' for Active; 'I' for Inactive)
REMARK    1  A    between atoms: C_1  and  C_2
REMARK    2  A    between atoms: C_5  and  N_7
REMARK    3  A    between atoms: N_7  and  S_8
REMARK    4  A    between atoms: S_8  and  C_11
REMARK    5  A    between atoms: CA_13  and  C_17
REMARK                            x       y       z     vdW  Elec       q    Type
REMARK                         _______ _______ _______ _____ _____    ______ ____
ROOT
ATOM      1  S   UNL     1       0.183  -2.362   3.241  0.00  0.00    +0.060 S 
ATOM      2  O   UNL     1      -0.463  -3.621   3.376  0.00  0.00    -0.153 OA
ATOM      3  O   UNL     1       1.518  -2.141   3.672  0.00  0.00    -0.153 OA
ENDROOT
BRANCH   1   4
ATOM      4  C   UNL     1      -0.821  -1.188   4.090  0.00  0.00    +0.123 A 
ATOM      5  C   UNL     1      -0.393   0.033   4.615  0.00  0.00    +0.063 A 
ATOM      6  CA  UNL     1      -1.496   0.632   5.192  0.00  0.00    +0.130 A 
ATOM      7  N   UNL     1      -2.567  -0.216   5.014  0.00  0.00    -0.354 N 
ATOM      8  H   UNL     1      -3.474  -0.053   5.318  0.00  0.00    +0.166 HD
ATOM      9  C   UNL     1      -2.148  -1.308   4.343  0.00  0.00    +0.112 A 
BRANCH   6  10
ATOM     10  C   UNL     1      -1.522   1.928   5.867  0.00  0.00    +0.402 C 
ATOM     11  O   UNL     1      -2.570   2.352   6.339  0.00  0.00    -0.239 OA
ATOM     12  OXT UNL     1      -0.496   2.591   5.960  0.00  0.00    -0.239 OA
ENDBRANCH   6  10
ENDBRANCH   1   4
BRANCH   1  13
ATOM     13  N   UNL     1       0.135  -1.975   1.632  0.00  0.00    -0.187 NA
ATOM     14  H   UNL     1      -0.270  -2.587   0.998  0.00  0.00    +0.148 HD
BRANCH  13  18
ATOM     15  C   UNL     1      -0.019   1.526   0.010  0.00  0.00    +0.009 C 
ATOM     16  C   UNL     1       0.002  -0.004   0.002  0.00  0.00    +0.006 C 
ATOM     17  C   UNL     1       1.351  -0.691  -0.221  0.00  0.00    +0.025 C 
ATOM     18  C   UNL     1       0.703  -0.708   1.166  0.00  0.00    +0.080 C 
ENDBRANCH  13  18
ENDBRANCH   1  13
TORSDOF 4
