REMARK  Name = ZINC36346229
REMARK  19 active torsions:
REMARK  status: ('A' for Active; 'I' for Inactive)
REMARK    1  A    between atoms: C_1  and  C_2
REMARK    2  A    between atoms: C_3  and  C_21
REMARK    3  A    between atoms: C_4  and  O_13
REMARK    4  A    between atoms: N_5  and  C_7
REMARK    5  A    between atoms: O_13  and  C_14
REMARK    6  A    between atoms: C_21  and  N_22
REMARK    7  A    between atoms: N_22  and  C_23
REMARK    8  A    between atoms: N_22  and  C_33
REMARK    9  A    between atoms: C_23  and  C_24
REMARK   10  A    between atoms: C_24  and  C_26
REMARK   11  A    between atoms: C_24  and  O_32
REMARK   12  A    between atoms: C_26  and  O_27
REMARK   13  A    between atoms: O_27  and  C_28
REMARK   14  A    between atoms: C_28  and  C_29
REMARK   15  A    between atoms: C_28  and  C_30
REMARK   16  A    between atoms: C_28  and  C_31
REMARK   17  A    between atoms: C_33  and  C_34
REMARK   18  A    between atoms: C_34  and  C_35
REMARK   19  A    between atoms: C_34  and  C_36
REMARK                            x       y       z     vdW  Elec       q    Type
REMARK                         _______ _______ _______ _____ _____    ______ ____
ROOT
ATOM      1  C   UNL     1       0.222  -4.026  -3.465  0.00  0.00    +0.068 C 
ATOM      2  C   UNL     1      -0.585  -3.055  -4.287  0.00  0.00    +0.065 A 
ATOM      3  C   UNL     1      -0.729  -1.688  -4.029  0.00  0.00    +0.021 A 
ATOM      4  C   UNL     1      -1.530  -1.164  -4.995  0.00  0.00    +0.225 A 
ATOM      5  N   UNL     1      -1.877  -2.177  -5.833  0.00  0.00    -0.200 N 
ATOM      6  N   UNL     1      -1.264  -3.347  -5.367  0.00  0.00    -0.168 NA
ENDROOT
BRANCH   5   7
ATOM      7  C   UNL     1      -2.696  -2.068  -6.965  0.00  0.00    +0.069 A 
ATOM      8  C   UNL     1      -3.848  -1.295  -6.919  0.00  0.00    +0.028 A 
ATOM      9  C   UNL     1      -4.653  -1.190  -8.036  0.00  0.00    +0.002 A 
ATOM     10  C   UNL     1      -4.313  -1.853  -9.200  0.00  0.00    +0.000 A 
ATOM     11  C   UNL     1      -3.166  -2.624  -9.250  0.00  0.00    +0.002 A 
ATOM     12  C   UNL     1      -2.354  -2.728  -8.138  0.00  0.00    +0.028 A 
ENDBRANCH   5   7
BRANCH   4  13
ATOM     13  O   UNL     1      -1.914   0.134  -5.101  0.00  0.00    -0.438 OA
BRANCH  13  14
ATOM     14  C   UNL     1      -3.013   0.533  -4.408  0.00  0.00    +0.133 A 
ATOM     15  C   UNL     1      -3.639  -0.344  -3.533  0.00  0.00    +0.046 A 
ATOM     16  C   UNL     1      -4.755   0.063  -2.829  0.00  0.00    +0.006 A 
ATOM     17  C   UNL     1      -5.251   1.343  -2.996  0.00  0.00    +0.038 A 
ATOM     18  C   UNL     1      -4.630   2.220  -3.868  0.00  0.00    +0.127 A 
ATOM     19  C   UNL     1      -3.507   1.819  -4.571  0.00  0.00    +0.084 A 
ATOM     20  F   UNL     1      -5.116   3.470  -4.030  0.00  0.00    -0.205 F 
ENDBRANCH  13  14
ENDBRANCH   4  13
BRANCH   3  21
ATOM     21  C   UNL     1      -0.107  -0.931  -2.884  0.00  0.00    -0.036 C 
BRANCH  21  22
ATOM     22  N   UNL     1       1.245  -0.497  -3.261  0.00  0.00    +0.384 N 
ATOM     23  H   UNL     1       1.794  -1.301  -3.526  0.00  0.00    -0.081 HD
BRANCH  22  24
ATOM     24  C   UNL     1       1.162   0.435  -4.393  0.00  0.00    -0.044 C 
BRANCH  24  25
ATOM     25  C   UNL     1       2.571   0.742  -4.904  0.00  0.00    +0.124 C 
BRANCH  25  26
ATOM     26  O   UNL     1       3.269   1.525  -3.933  0.00  0.00    -0.391 OA
ATOM     27  H   UNL     1       2.847   2.371  -3.733  0.00  0.00    +0.210 HD
ENDBRANCH  25  26
BRANCH  25  28
ATOM     28  C   UNL     1       2.478   1.523  -6.217  0.00  0.00    +0.189 C 
BRANCH  28  29
ATOM     29  O   UNL     1       3.789   1.709  -6.754  0.00  0.00    -0.372 OA
BRANCH  29  30
ATOM     30  C   UNL     1       3.815   2.431  -7.987  0.00  0.00    +0.061 C 
ATOM     31  C   UNL     1       3.211   3.821  -7.777  0.00  0.00    +0.041 C 
ATOM     32  C   UNL     1       5.261   2.570  -8.466  0.00  0.00    +0.041 C 
ATOM     33  C   UNL     1       3.000   1.674  -9.038  0.00  0.00    +0.041 C 
ENDBRANCH  29  30
ENDBRANCH  28  29
ENDBRANCH  25  28
ENDBRANCH  24  25
ENDBRANCH  22  24
BRANCH  22  34
ATOM     34  C   UNL     1       1.879   0.174  -2.119  0.00  0.00    -0.075 C 
BRANCH  34  35
ATOM     35  C   UNL     1       1.992  -0.805  -0.949  0.00  0.00    -0.034 C 
ATOM     36  C   UNL     1       2.890  -1.977  -1.350  0.00  0.00    +0.005 C 
ATOM     37  C   UNL     1       2.597  -0.089   0.260  0.00  0.00    +0.005 C 
ENDBRANCH  34  35
ENDBRANCH  22  34
ENDBRANCH  21  22
ENDBRANCH   3  21
TORSDOF 13
