REMARK  Name = ZINC33473373
REMARK  7 active torsions:
REMARK  status: ('A' for Active; 'I' for Inactive)
REMARK    1  A    between atoms: C_1  and  C_2
REMARK    2  A    between atoms: C_7  and  N_29
REMARK    3  A    between atoms: C_8  and  C_13
REMARK    4  A    between atoms: N_17  and  C_21
REMARK    5  A    between atoms: C_21  and  C_22
REMARK    6  A    between atoms: C_31  and  C_38
REMARK    7  A    between atoms: C_34  and  C_37
REMARK                            x       y       z     vdW  Elec       q    Type
REMARK                         _______ _______ _______ _____ _____    ______ ____
ROOT
ATOM      1  C   UNL     1      -0.211   1.528   0.022  0.00  0.00    +0.045 C 
ATOM      2  C   UNL     1      -0.217   0.021   0.026  0.00  0.00    -0.034 A 
ATOM      3  C   UNL     1      -0.536  -0.680  -1.145  0.00  0.00    +0.008 A 
ATOM      4  C   UNL     1      -0.539  -2.043  -1.133  0.00  0.00    +0.047 A 
ATOM      5  C   UNL     1      -0.222  -2.727   0.055  0.00  0.00    +0.142 A 
ATOM      6  N   UNL     1      -0.227  -4.060   0.057  0.00  0.00    -0.214 NA
ATOM      7  C   UNL     1       0.065  -4.755   1.147  0.00  0.00    +0.136 A 
ATOM      8  C   UNL     1       0.391  -4.072   2.343  0.00  0.00    +0.081 A 
ATOM      9  C   UNL     1       0.393  -2.656   2.329  0.00  0.00    +0.267 A 
ATOM     10  O   UNL     1       0.668  -2.027   3.336  0.00  0.00    -0.267 OA
ATOM     11  N   UNL     1       0.086  -2.015   1.181  0.00  0.00    -0.267 N 
ATOM     12  C   UNL     1       0.091  -0.652   1.157  0.00  0.00    +0.099 A 
ENDROOT
BRANCH   8  13
ATOM     13  C   UNL     1       0.705  -4.786   3.523  0.00  0.00    +0.037 C 
ATOM     14  C   UNL     1      -0.118  -4.706   4.609  0.00  0.00    +0.077 C 
ATOM     15  C   UNL     1      -1.388  -4.075   4.738  0.00  0.00    +0.259 C 
ATOM     16  O   UNL     1      -1.898  -3.495   3.796  0.00  0.00    -0.269 OA
ATOM     17  N   UNL     1      -1.997  -4.137   5.909  0.00  0.00    -0.251 N 
ATOM     18  C   UNL     1      -1.431  -4.782   6.954  0.00  0.00    +0.121 C 
ATOM     19  S   UNL     1      -2.034  -4.986   8.544  0.00  0.00    -0.027 S 
ATOM     20  S   UNL     1       0.101  -5.373   6.253  0.00  0.00    -0.061 S 
BRANCH  17  21
ATOM     21  C   UNL     1      -3.305  -3.498   6.078  0.00  0.00    +0.150 C 
BRANCH  21  22
ATOM     22  C   UNL     1      -4.393  -4.484   5.738  0.00  0.00    -0.029 A 
ATOM     23  C   UNL     1      -4.859  -4.580   4.440  0.00  0.00    +0.008 A 
ATOM     24  C   UNL     1      -5.856  -5.484   4.128  0.00  0.00    +0.038 A 
ATOM     25  C   UNL     1      -6.389  -6.294   5.115  0.00  0.00    +0.123 A 
ATOM     26  C   UNL     1      -5.923  -6.198   6.415  0.00  0.00    +0.038 A 
ATOM     27  C   UNL     1      -4.921  -5.297   6.724  0.00  0.00    +0.008 A 
ATOM     28  F   UNL     1      -7.365  -7.178   4.811  0.00  0.00    -0.205 F 
ENDBRANCH  21  22
ENDBRANCH  17  21
ENDBRANCH   8  13
BRANCH   7  29
ATOM     29  N   UNL     1       0.050  -6.132   1.117  0.00  0.00    -0.310 N 
ATOM     30  C   UNL     1       0.569  -6.870  -0.045  0.00  0.00    +0.138 C 
ATOM     31  C   UNL     1      -0.487  -7.891  -0.481  0.00  0.00    +0.133 C 
ATOM     32  O   UNL     1      -0.876  -8.677   0.648  0.00  0.00    -0.371 OA
ATOM     33  C   UNL     1      -1.490  -7.928   1.699  0.00  0.00    +0.133 C 
ATOM     34  C   UNL     1      -0.480  -6.909   2.249  0.00  0.00    +0.138 C 
ATOM     35  C   UNL     1      -1.919  -8.878   2.820  0.00  0.00    +0.039 C 
ATOM     36  C   UNL     1       0.098  -8.802  -1.563  0.00  0.00    +0.039 C 
ENDBRANCH   7  29
TORSDOF 4
