REMARK  Name = ZINC39686130
REMARK  8 active torsions:
REMARK  status: ('A' for Active; 'I' for Inactive)
REMARK    1  A    between atoms: C_1  and  C_2
REMARK    2  A    between atoms: C_5  and  C_8
REMARK    3  A    between atoms: C_8  and  C_9
REMARK    4  A    between atoms: C_13  and  C_22
REMARK    5  A    between atoms: N_24  and  C_25
REMARK    6  A    between atoms: C_31  and  C_33
REMARK    7  A    between atoms: C_33  and  C_34
REMARK    8  A    between atoms: C_33  and  C_35
REMARK                            x       y       z     vdW  Elec       q    Type
REMARK                         _______ _______ _______ _____ _____    ______ ____
ROOT
ATOM      1  C   UNL     1       3.230  -4.862  -2.571  0.00  0.00    +0.220 C 
ATOM      2  O   UNL     1       4.230  -4.269  -2.917  0.00  0.00    -0.275 OA
ATOM      3  N   UNL     1       3.276  -6.191  -2.354  0.00  0.00    -0.300 N 
ATOM      4  C   UNL     1       2.168  -7.082  -1.936  0.00  0.00    +0.121 C 
ATOM      5  C   UNL     1       2.381  -8.377  -2.752  0.00  0.00    +0.100 C 
ATOM      6  C   UNL     1       3.878  -8.379  -3.104  0.00  0.00    -0.004 C 
ATOM      7  C   UNL     1       4.446  -7.093  -2.485  0.00  0.00    +0.115 C 
ATOM      8  C   UNL     1       4.561  -9.603  -2.501  0.00  0.00    -0.010 C 
ATOM      9  C   UNL     1       6.035  -9.613  -2.913  0.00  0.00    -0.082 C 
ATOM     10  N   UNL     1       6.137  -9.643  -4.377  0.00  0.00    +0.379 N 
ATOM     11  C   UNL     1       5.560  -8.418  -4.943  0.00  0.00    -0.082 C 
ATOM     12  C   UNL     1       4.065  -8.357  -4.618  0.00  0.00    -0.010 C 
ATOM     13  H   UNL     1       7.107  -9.711  -4.644  0.00  0.00    -0.086 HD
ATOM     14  H   UNL     1       5.636 -10.444  -4.731  0.00  0.00    -0.086 HD
ENDROOT
BRANCH   5  15
ATOM     15  C   UNL     1       2.033  -9.585  -1.920  0.00  0.00    +0.218 C 
ATOM     16  O   UNL     1       2.157  -9.546  -0.714  0.00  0.00    -0.275 OA
ATOM     17  N   UNL     1       1.584 -10.707  -2.516  0.00  0.00    -0.312 N 
ATOM     18  H   UNL     1       1.485 -10.738  -3.480  0.00  0.00    +0.149 HD
BRANCH  17  19
ATOM     19  C   UNL     1       1.246 -11.881  -1.707  0.00  0.00    +0.076 C 
ATOM     20  C   UNL     1       2.512 -12.700  -1.444  0.00  0.00    +0.041 C 
ATOM     21  C   UNL     1       2.161 -13.908  -0.569  0.00  0.00    +0.109 C 
ATOM     22  N   UNL     1       1.078 -14.661  -1.216  0.00  0.00    -0.301 N 
ATOM     23  C   UNL     1      -0.150 -13.949  -1.594  0.00  0.00    +0.109 C 
ATOM     24  C   UNL     1       0.227 -12.741  -2.457  0.00  0.00    +0.041 C 
ATOM     25  C   UNL     1       1.209 -15.981  -1.457  0.00  0.00    +0.218 C 
ATOM     26  O   UNL     1       0.339 -16.576  -2.058  0.00  0.00    -0.275 OA
BRANCH  25  27
ATOM     27  C   UNL     1       2.435 -16.716  -0.981  0.00  0.00    +0.069 C 
ATOM     28  C   UNL     1       2.283 -17.055   0.503  0.00  0.00    +0.017 C 
ATOM     29  C   UNL     1       2.599 -18.008  -1.785  0.00  0.00    +0.017 C 
ENDBRANCH  25  27
ENDBRANCH  17  19
ENDBRANCH   5  15
BRANCH   1  30
ATOM     30  C   UNL     1       1.936  -4.112  -2.383  0.00  0.00    +0.131 C 
BRANCH  30  35
ATOM     31  C   UNL     1       2.764   1.487  -3.547  0.00  0.00    +0.044 C 
ATOM     32  C   UNL     1       2.549   0.027  -3.244  0.00  0.00    -0.050 A 
ATOM     33  C   UNL     1       2.170  -0.840  -4.251  0.00  0.00    +0.003 A 
ATOM     34  C   UNL     1       1.972  -2.180  -3.973  0.00  0.00    +0.004 A 
ATOM     35  C   UNL     1       2.153  -2.652  -2.687  0.00  0.00    -0.039 A 
ATOM     36  C   UNL     1       2.533  -1.786  -1.679  0.00  0.00    +0.004 A 
ATOM     37  C   UNL     1       2.735  -0.447  -1.958  0.00  0.00    +0.003 A 
ENDBRANCH  30  35
ENDBRANCH   1  30
TORSDOF 5
