REMARK  Name = ZINC36053993
REMARK  8 active torsions:
REMARK  status: ('A' for Active; 'I' for Inactive)
REMARK    1  A    between atoms: C_1  and  C_2
REMARK    2  A    between atoms: C_2  and  C_4
REMARK    3  A    between atoms: C_2  and  N_10
REMARK    4  A    between atoms: N_10  and  C_11
REMARK    5  A    between atoms: N_10  and  C_20
REMARK    6  A    between atoms: C_11  and  C_12
REMARK    7  A    between atoms: C_20  and  C_21
REMARK    8  A    between atoms: C_23  and  C_26
REMARK                            x       y       z     vdW  Elec       q    Type
REMARK                         _______ _______ _______ _____ _____    ______ ____
ROOT
ATOM      1  N   UNK     1       0.802  -1.324  -2.499  0.00  0.00    +0.393 N 
ATOM      2  H   UNK     1       0.593  -1.317  -3.486  0.00  0.00    -0.080 HD
ENDROOT
BRANCH   1   4
ATOM      3  C   UNK     1      -0.349   0.798  -2.091  0.00  0.00    -0.008 C 
ATOM      4  C   UNK     1      -0.301  -0.695  -1.761  0.00  0.00    -0.040 C 
BRANCH   4   5
ATOM      5  C   UNK     1      -1.604  -1.339  -2.159  0.00  0.00    -0.061 A 
ATOM      6  C   UNK     1      -1.892  -1.549  -3.494  0.00  0.00    +0.002 A 
ATOM      7  C   UNK     1      -3.087  -2.140  -3.859  0.00  0.00    +0.000 A 
ATOM      8  C   UNK     1      -3.994  -2.522  -2.888  0.00  0.00    +0.000 A 
ATOM      9  C   UNK     1      -3.705  -2.313  -1.552  0.00  0.00    +0.000 A 
ATOM     10  C   UNK     1      -2.509  -1.726  -1.188  0.00  0.00    +0.002 A 
ENDBRANCH   4   5
ENDBRANCH   1   4
BRANCH   1  11
ATOM     11  C   UNK     1       0.968  -2.711  -2.044  0.00  0.00    -0.040 C 
BRANCH  11  12
ATOM     12  C   UNK     1      -0.136  -3.563  -2.615  0.00  0.00    -0.045 A 
ATOM     13  C   UNK     1      -1.084  -4.118  -1.777  0.00  0.00    +0.004 A 
ATOM     14  C   UNK     1      -2.097  -4.900  -2.300  0.00  0.00    +0.020 A 
ATOM     15  C   UNK     1      -2.162  -5.126  -3.663  0.00  0.00    +0.042 A 
ATOM     16  C   UNK     1      -1.214  -4.570  -4.503  0.00  0.00    +0.040 A 
ATOM     17  C   UNK     1      -0.203  -3.784  -3.979  0.00  0.00    +0.044 A 
ATOM     18 CL   UNK     1       0.984  -3.081  -5.032  0.00  0.00    -0.083 Cl
ATOM     19 CL   UNK     1      -3.434  -6.108  -4.320  0.00  0.00    -0.083 Cl
ENDBRANCH  11  12
ENDBRANCH   1  11
BRANCH   1  20
ATOM     20  C   UNK     1       2.043  -0.577  -2.256  0.00  0.00    +0.018 C 
BRANCH  20  21
ATOM     21  C   UNK     1       2.014   0.713  -3.035  0.00  0.00    +0.158 A 
ATOM     22  N   UNK     1       2.377   1.874  -2.579  0.00  0.00    -0.323 N 
ATOM     23  C   UNK     1       2.210   2.796  -3.568  0.00  0.00    +0.166 A 
ATOM     24  C   UNK     1       1.724   2.133  -4.655  0.00  0.00    +0.230 A 
ATOM     25  O   UNK     1       1.614   0.842  -4.308  0.00  0.00    -0.451 OA
ATOM     26  H   UNK     1       2.710   2.054  -1.687  0.00  0.00    +0.169 HD
BRANCH  23  27
ATOM     27  C   UNK     1       2.500   4.235  -3.479  0.00  0.00    +0.406 C 
ATOM     28  O   UNK     1       2.935   4.708  -2.438  0.00  0.00    -0.239 OA
ATOM     29  O   UNK     1       2.305   4.959  -4.446  0.00  0.00    -0.239 OA
ENDBRANCH  23  27
ENDBRANCH  20  21
ENDBRANCH   1  20
TORSDOF 7
