REMARK  Name = ZINC49336764
REMARK  6 active torsions:
REMARK  status: ('A' for Active; 'I' for Inactive)
REMARK    1  A    between atoms: C_1  and  C_2
REMARK    2  A    between atoms: C_2  and  C_3
REMARK    3  A    between atoms: C_2  and  C_4
REMARK    4  A    between atoms: C_6  and  C_9
REMARK    5  A    between atoms: C_9  and  N_10
REMARK    6  A    between atoms: C_19  and  N_20
REMARK                            x       y       z     vdW  Elec       q    Type
REMARK                         _______ _______ _______ _____ _____    ______ ____
ROOT
ATOM      1  N   UNL     1      -4.057  -3.806  -0.958  0.00  0.00    -0.322 N 
ATOM      2  C   UNL     1      -3.090  -4.706  -1.601  0.00  0.00    +0.106 C 
ATOM      3  C   UNL     1      -3.801  -6.036  -1.881  0.00  0.00    +0.024 C 
ATOM      4  C   UNL     1      -4.214  -6.663  -0.550  0.00  0.00    +0.040 C 
ATOM      5  C   UNL     1      -4.971  -5.668   0.290  0.00  0.00    -0.006 A 
ATOM      6  C   UNL     1      -4.865  -4.304   0.070  0.00  0.00    +0.035 A 
ATOM      7  C   UNL     1      -5.570  -3.410   0.870  0.00  0.00    +0.023 A 
ATOM      8  C   UNL     1      -6.377  -3.878   1.888  0.00  0.00    +0.004 A 
ATOM      9  C   UNL     1      -6.486  -5.236   2.115  0.00  0.00    +0.023 A 
ATOM     10  C   UNL     1      -5.790  -6.136   1.313  0.00  0.00    +0.030 A 
ENDROOT
BRANCH  10  11
ATOM     11  N   UNL     1      -5.901  -7.508   1.544  0.00  0.00    -0.358 N 
ATOM     12  H   UNL     1      -5.408  -8.135   0.992  0.00  0.00    +0.142 HD
ATOM     13  H   UNL     1      -6.472  -7.835   2.257  0.00  0.00    +0.142 HD
ENDBRANCH  10  11
BRANCH   1  14
ATOM     14  C   UNL     1      -4.169  -2.408  -1.382  0.00  0.00    +0.184 C 
BRANCH  14  17
ATOM     15  C   UNL     1      -1.412  -0.526   0.013  0.00  0.00    +0.230 A 
ATOM     16  N   UNL     1      -1.953  -1.285  -0.899  0.00  0.00    -0.194 NA
ATOM     17  C   UNL     1      -3.221  -1.560  -0.574  0.00  0.00    +0.189 A 
ATOM     18  N   UNL     1      -3.503  -0.976   0.555  0.00  0.00    -0.060 NA
ATOM     19  O   UNL     1      -2.326  -0.294   0.963  0.00  0.00    -0.338 OA
BRANCH  15  21
ATOM     20  C   UNL     1      -0.019   1.526   0.010  0.00  0.00    +0.017 C 
ATOM     21  C   UNL     1       0.002  -0.004   0.002  0.00  0.00    +0.072 C 
ATOM     22  C   UNL     1       0.742  -0.511   1.242  0.00  0.00    +0.017 C 
ENDBRANCH  15  21
ENDBRANCH  14  17
ENDBRANCH   1  14
TORSDOF 4
