REMARK  Name = ZINC66459518
REMARK  9 active torsions:
REMARK  status: ('A' for Active; 'I' for Inactive)
REMARK    1  A    between atoms: C_1  and  C_2
REMARK    2  A    between atoms: C_2  and  C_4
REMARK    3  A    between atoms: C_2  and  C_23
REMARK    4  A    between atoms: C_4  and  N_5
REMARK    5  A    between atoms: N_5  and  C_6
REMARK    6  A    between atoms: C_7  and  C_9
REMARK    7  A    between atoms: C_9  and  C_10
REMARK    8  A    between atoms: C_10  and  C_11
REMARK    9  A    between atoms: C_13  and  C_16
REMARK                            x       y       z     vdW  Elec       q    Type
REMARK                         _______ _______ _______ _____ _____    ______ ____
ROOT
ATOM      1  C   UNL     1       3.949   1.511  -1.683  0.00  0.00    +0.105 C 
ENDROOT
BRANCH   1   4
ATOM      2  N   UNL     1       2.125  -0.091  -1.209  0.00  0.00    -0.304 N 
ATOM      3  C   UNL     1       3.121  -0.971  -0.594  0.00  0.00    +0.132 C 
ATOM      4  C   UNL     1       2.502   1.093  -1.732  0.00  0.00    +0.216 C 
ATOM      5  O   UNL     1       1.677   1.821  -2.241  0.00  0.00    -0.276 OA
BRANCH   2   6
ATOM      6  C   UNL     1       0.718  -0.497  -1.257  0.00  0.00    +0.115 C 
BRANCH   6   8
ATOM      7  C   UNL     1      -0.019   1.526   0.010  0.00  0.00    +0.014 C 
ATOM      8  C   UNL     1       0.002  -0.004   0.002  0.00  0.00    +0.033 C 
BRANCH   8   9
ATOM      9  C   UNL     1      -1.412  -0.526   0.013  0.00  0.00    -0.043 A 
ATOM     10  C   UNL     1      -2.276  -0.202  -1.017  0.00  0.00    +0.004 A 
ATOM     11  C   UNL     1      -3.572  -0.681  -1.007  0.00  0.00    +0.000 A 
ATOM     12  C   UNL     1      -4.005  -1.483   0.032  0.00  0.00    +0.000 A 
ATOM     13  C   UNL     1      -3.141  -1.807   1.061  0.00  0.00    +0.000 A 
ATOM     14  C   UNL     1      -1.843  -1.332   1.049  0.00  0.00    +0.004 A 
ENDBRANCH   8   9
ENDBRANCH   6   8
ENDBRANCH   2   6
ENDBRANCH   1   4
BRANCH   1  15
ATOM     15  C   UNL     1       4.106   2.884  -2.339  0.00  0.00    +0.108 C 
BRANCH  15  16
ATOM     16  C   UNL     1       5.553   3.302  -2.290  0.00  0.00    +0.228 A 
ATOM     17  N   UNL     1       6.448   3.053  -3.202  0.00  0.00    -0.191 NA
ATOM     18  C   UNL     1       7.635   3.571  -2.837  0.00  0.00    +0.202 A 
ATOM     19  N   UNL     1       7.494   4.160  -1.675  0.00  0.00    -0.056 NA
ATOM     20  O   UNL     1       6.133   3.998  -1.304  0.00  0.00    -0.338 OA
BRANCH  18  21
ATOM     21  C   UNL     1       8.893   3.489  -3.620  0.00  0.00    +0.023 A 
ATOM     22  C   UNL     1       8.909   2.836  -4.851  0.00  0.00    +0.014 A 
ATOM     23  C   UNL     1      10.080   2.763  -5.575  0.00  0.00    +0.039 A 
ATOM     24  C   UNL     1      11.240   3.338  -5.081  0.00  0.00    +0.123 A 
ATOM     25  C   UNL     1      11.229   3.987  -3.857  0.00  0.00    +0.039 A 
ATOM     26  C   UNL     1      10.060   4.070  -3.129  0.00  0.00    +0.014 A 
ATOM     27  F   UNL     1      12.385   3.264  -5.794  0.00  0.00    -0.205 F 
ENDBRANCH  18  21
ENDBRANCH  15  16
ENDBRANCH   1  15
TORSDOF 7
