REMARK  Name = ZINC01124248
REMARK  8 active torsions:
REMARK  status: ('A' for Active; 'I' for Inactive)
REMARK    1  A    between atoms: C_1  and  C_2
REMARK    2  A    between atoms: C_5  and  C_8
REMARK    3  A    between atoms: C_11  and  S_14
REMARK    4  A    between atoms: N_12  and  C_13
REMARK    5  A    between atoms: S_14  and  C_15
REMARK    6  A    between atoms: C_15  and  C_16
REMARK    7  A    between atoms: N_18  and  C_19
REMARK    8  A    between atoms: C_24  and  C_25
REMARK                            x       y       z     vdW  Elec       q    Type
REMARK                         _______ _______ _______ _____ _____    ______ ____
ROOT
ATOM      1  S   UNL     1      -4.997   1.015  -0.548  0.00  0.00    -0.077 S 
ENDROOT
BRANCH   1   5
ATOM      2  C   UNL     1      -8.440   2.862  -0.562  0.00  0.00    +0.165 A 
ATOM      3  N   UNL     1      -7.591   3.837  -0.336  0.00  0.00    -0.128 NA
ATOM      4  N   UNL     1      -6.393   3.375  -0.297  0.00  0.00    -0.122 NA
ATOM      5  C   UNL     1      -6.402   2.077  -0.506  0.00  0.00    +0.192 A 
ATOM      6  N   UNL     1      -7.705   1.705  -0.678  0.00  0.00    -0.305 N 
ATOM      7  C   UNL     1      -8.213   0.355  -0.934  0.00  0.00    +0.153 C 
BRANCH   2  12
ATOM      8  C   UNL     1     -14.159   3.337  -0.987  0.00  0.00    +0.044 C 
ATOM      9  C   UNL     1     -12.662   3.213  -0.876  0.00  0.00    -0.050 A 
ATOM     10  C   UNL     1     -12.089   1.975  -0.641  0.00  0.00    +0.004 A 
ATOM     11  C   UNL     1     -10.719   1.855  -0.538  0.00  0.00    +0.012 A 
ATOM     12  C   UNL     1      -9.909   2.984  -0.671  0.00  0.00    +0.019 A 
ATOM     13  C   UNL     1     -10.494   4.230  -0.903  0.00  0.00    +0.012 A 
ATOM     14  C   UNL     1     -11.865   4.336  -1.009  0.00  0.00    +0.004 A 
ENDBRANCH   2  12
ENDBRANCH   1   5
BRANCH   1  15
ATOM     15  C   UNL     1      -3.682   2.221  -0.245  0.00  0.00    +0.173 C 
BRANCH  15  16
ATOM     16  C   UNL     1      -2.349   1.518  -0.238  0.00  0.00    +0.227 C 
ATOM     17  O   UNL     1      -2.293   0.321  -0.419  0.00  0.00    -0.275 OA
ATOM     18  N   UNL     1      -1.218   2.221  -0.029  0.00  0.00    -0.285 N 
ATOM     19  H   UNL     1      -1.267   3.167   0.184  0.00  0.00    +0.155 HD
BRANCH  18  20
ATOM     20  C   UNL     1       0.027   1.588  -0.121  0.00  0.00    +0.036 A 
ATOM     21  C   UNL     1       0.165   0.265   0.277  0.00  0.00    +0.024 A 
ATOM     22  C   UNL     1       1.393  -0.359   0.180  0.00  0.00    +0.016 A 
ATOM     23  C   UNL     1       2.485   0.333  -0.312  0.00  0.00    +0.014 A 
ATOM     24  C   UNL     1       2.351   1.651  -0.708  0.00  0.00    +0.019 A 
ATOM     25  C   UNL     1       1.125   2.280  -0.614  0.00  0.00    -0.028 A 
ATOM     26  C   UNL     1       0.979   3.717  -1.045  0.00  0.00    +0.046 C 
ATOM     27  I   UNL     1       4.346  -0.618  -0.457  0.00  0.00    -0.044 I 
ENDBRANCH  18  20
ENDBRANCH  15  16
ENDBRANCH   1  15
TORSDOF 5
