REMARK  Name = ZINC10098662
REMARK  15 active torsions:
REMARK  status: ('A' for Active; 'I' for Inactive)
REMARK    1  A    between atoms: C_1  and  C_2
REMARK    2  A    between atoms: C_2  and  O_3
REMARK    3  A    between atoms: O_3  and  C_4
REMARK    4  A    between atoms: C_4  and  C_5
REMARK    5  A    between atoms: C_5  and  N_6
REMARK    6  A    between atoms: C_10  and  N_32
REMARK    7  A    between atoms: N_15  and  C_16
REMARK    8  A    between atoms: C_16  and  C_18
REMARK    9  A    between atoms: C_21  and  S_24
REMARK   10  A    between atoms: S_24  and  N_27
REMARK   11  A    between atoms: N_27  and  C_28
REMARK   12  A    between atoms: N_27  and  C_29
REMARK   13  A    between atoms: C_29  and  C_30
REMARK   14  A    between atoms: C_29  and  C_31
REMARK   15  A    between atoms: C_33  and  C_35
REMARK                            x       y       z     vdW  Elec       q    Type
REMARK                         _______ _______ _______ _____ _____    ______ ____
ROOT
ATOM      1  N   UNL     1      -4.811   3.624  -0.118  0.00  0.00    -0.319 N 
ATOM      2  C   UNL     1      -3.538   3.189  -0.440  0.00  0.00    +0.058 A 
ATOM      3  C   UNL     1      -2.384   3.959  -0.656  0.00  0.00    +0.029 A 
ATOM      4  C   UNL     1      -1.186   3.363  -0.965  0.00  0.00    +0.025 A 
ATOM      5  C   UNL     1      -1.080   1.981  -1.084  0.00  0.00    +0.035 A 
ATOM      6  C   UNL     1      -2.207   1.196  -0.875  0.00  0.00    +0.040 A 
ATOM      7  C   UNL     1      -3.402   1.798  -0.561  0.00  0.00    +0.041 A 
ATOM      8  S   UNL     1      -5.039   1.198  -0.223  0.00  0.00    -0.052 S 
ATOM      9  C   UNL     1      -5.816   2.724   0.055  0.00  0.00    +0.167 A 
ATOM     10  N   UNL     1      -7.087   2.957   0.363  0.00  0.00    -0.152 NA
ENDROOT
BRANCH   5  11
ATOM     11  N   UNL     1       0.148   1.388  -1.405  0.00  0.00    -0.286 N 
ATOM     12  C   UNL     1       1.005   2.018  -2.233  0.00  0.00    +0.214 C 
ATOM     13  O   UNL     1       0.671   3.046  -2.784  0.00  0.00    -0.276 OA
ATOM     14  C   UNL     1       2.377   1.446  -2.475  0.00  0.00    +0.109 C 
ATOM     15  H   UNL     1       0.380   0.522  -1.034  0.00  0.00    +0.155 HD
ENDBRANCH   5  11
BRANCH  10  16
ATOM     16  C   UNL     1      -7.941   1.936   0.494  0.00  0.00    +0.269 C 
ATOM     17  O   UNL     1      -7.553   0.792   0.331  0.00  0.00    -0.268 OA
BRANCH  16  18
ATOM     18  C   UNL     1      -9.358   2.196   0.837  0.00  0.00    +0.039 A 
ATOM     19  C   UNL     1      -9.804   3.503   1.030  0.00  0.00    +0.015 A 
ATOM     20  C   UNL     1     -11.126   3.739   1.346  0.00  0.00    +0.029 A 
ATOM     21  C   UNL     1     -12.007   2.681   1.480  0.00  0.00    +0.106 A 
ATOM     22  C   UNL     1     -11.570   1.382   1.295  0.00  0.00    +0.029 A 
ATOM     23  C   UNL     1     -10.251   1.133   0.975  0.00  0.00    +0.015 A 
BRANCH  21  24
ATOM     24  S   UNL     1     -13.693   2.990   1.889  0.00  0.00    +0.061 S 
ATOM     25  O   UNL     1     -13.975   4.320   1.474  0.00  0.00    -0.153 OA
ATOM     26  O   UNL     1     -14.436   1.873   1.422  0.00  0.00    -0.153 OA
BRANCH  24  27
ATOM     27  N   UNL     1     -13.806   2.976   3.541  0.00  0.00    -0.177 NA
ATOM     28  C   UNL     1     -14.091   1.724   4.245  0.00  0.00    +0.132 C 
BRANCH  27  29
ATOM     29  C   UNL     1     -13.622   4.217   4.299  0.00  0.00    +0.073 C 
ATOM     30  C   UNL     1     -14.892   4.521   5.096  0.00  0.00    +0.025 C 
ATOM     31  C   UNL     1     -12.442   4.057   5.260  0.00  0.00    +0.025 C 
ENDBRANCH  27  29
ENDBRANCH  24  27
ENDBRANCH  21  24
ENDBRANCH  16  18
ENDBRANCH  10  16
BRANCH   1  32
ATOM     32  C   UNL     1      -5.078   5.056   0.036  0.00  0.00    +0.152 C 
BRANCH  32  33
ATOM     33  C   UNL     1      -6.468   5.378  -0.517  0.00  0.00    +0.181 C 
BRANCH  33  34
ATOM     34  O   UNL     1      -6.677   6.792  -0.485  0.00  0.00    -0.378 OA
BRANCH  34  36
ATOM     35  C   UNL     1      -8.066   8.726  -0.902  0.00  0.00    +0.034 C 
ATOM     36  C   UNL     1      -7.952   7.202  -0.983  0.00  0.00    +0.156 C 
ENDBRANCH  34  36
ENDBRANCH  33  34
ENDBRANCH  32  33
ENDBRANCH   1  32
TORSDOF 10
