REMARK  Name = ZINC04469097
REMARK  5 active torsions:
REMARK  status: ('A' for Active; 'I' for Inactive)
REMARK    1  A    between atoms: C_1  and  C_2
REMARK    2  A    between atoms: C_2  and  C_4
REMARK    3  A    between atoms: C_2  and  S_11
REMARK    4  A    between atoms: N_9  and  C_10
REMARK    5  A    between atoms: S_11  and  C_12
REMARK                            x       y       z     vdW  Elec       q    Type
REMARK                         _______ _______ _______ _____ _____    ______ ____
ROOT
ATOM      1  C   UNL     1       0.002  -0.004   0.002  0.00  0.00    +0.171 A 
ATOM      2  N   UNL     1      -1.176  -0.693   0.015  0.00  0.00    -0.301 N 
ATOM      3  H   UNL     1      -2.039  -0.189   0.034  0.00  0.00    +0.171 HD
ATOM      4  C   UNL     1      -1.198  -2.039   0.004  0.00  0.00    +0.261 A 
ATOM      5  O   UNL     1      -2.258  -2.640   0.011  0.00  0.00    -0.267 OA
ATOM      6  C   UNL     1       0.042  -2.754  -0.013  0.00  0.00    +0.075 A 
ATOM      7  C   UNL     1       0.252  -4.203  -0.023  0.00  0.00    -0.023 A 
ATOM      8  C   UNL     1       1.529  -4.636  -0.038  0.00  0.00    -0.004 A 
ATOM      9  S   UNL     1       2.515  -3.162  -0.039  0.00  0.00    -0.073 S 
ATOM     10  C   UNL     1       1.204  -1.965  -0.020  0.00  0.00    +0.117 A 
ATOM     11  N   UNL     1       1.157  -0.638  -0.012  0.00  0.00    -0.216 NA
ATOM     12  C   UNL     1       2.006  -6.056  -0.052  0.00  0.00    +0.043 C 
ATOM     13  C   UNL     1       0.829  -6.966   0.329  0.00  0.00    +0.005 C 
ATOM     14  C   UNL     1      -0.395  -6.555  -0.494  0.00  0.00    +0.005 C 
ATOM     15  C   UNL     1      -0.907  -5.195  -0.018  0.00  0.00    +0.037 C 
ENDROOT
BRANCH   1  16
ATOM     16  S   UNL     1      -0.022   1.758   0.012  0.00  0.00    -0.075 S 
BRANCH  16  18
ATOM     17  C   UNL     1       2.384   1.586   1.295  0.00  0.00    +0.029 C 
ATOM     18  C   UNL     1       1.756   2.096  -0.004  0.00  0.00    +0.137 C 
BRANCH  18  19
ATOM     19  C   UNL     1       1.984   3.581  -0.121  0.00  0.00    +0.233 C 
ATOM     20  O   UNL     1       1.132   4.357   0.255  0.00  0.00    -0.274 OA
ATOM     21  N   UNL     1       3.135   4.047  -0.646  0.00  0.00    -0.239 N 
ATOM     22  C   UNL     1       3.338   5.375  -0.752  0.00  0.00    +0.306 C 
ATOM     23  O   UNL     1       2.484   6.153  -0.374  0.00  0.00    -0.252 OA
ATOM     24  N   UNL     1       4.489   5.841  -1.276  0.00  0.00    -0.302 N 
ATOM     25  C   UNL     1       4.710   7.285  -1.391  0.00  0.00    +0.129 C 
ATOM     26  H   UNL     1       3.816   3.426  -0.948  0.00  0.00    +0.159 HD
ATOM     27  H   UNL     1       5.171   5.220  -1.578  0.00  0.00    +0.150 HD
ENDBRANCH  18  19
ENDBRANCH  16  18
ENDBRANCH   1  16
TORSDOF 3
