REMARK  Name = ZINC21589551
REMARK  4 active torsions:
REMARK  status: ('A' for Active; 'I' for Inactive)
REMARK    1  A    between atoms: C_1  and  C_2
REMARK    2  A    between atoms: C_4  and  O_5
REMARK    3  A    between atoms: C_14  and  C_16
REMARK    4  A    between atoms: C_19  and  C_21
REMARK                            x       y       z     vdW  Elec       q    Type
REMARK                         _______ _______ _______ _____ _____    ______ ____
ROOT
ATOM      1  C   UNL     1       2.518  -2.914   0.137  0.00  0.00    +0.045 C 
ATOM      2  C   UNL     1       1.236  -2.143  -0.041  0.00  0.00    -0.033 A 
ATOM      3  C   UNL     1       0.053  -2.788  -0.220  0.00  0.00    +0.091 A 
ATOM      4  C   UNL     1      -1.133  -2.044  -0.384  0.00  0.00    +0.285 A 
ATOM      5  O   UNL     1      -1.132  -0.702  -0.370  0.00  0.00    -0.425 OA
ATOM      6  C   UNL     1       0.008  -0.000  -0.196  0.00  0.00    +0.141 A 
ATOM      7  C   UNL     1       1.230  -0.679  -0.026  0.00  0.00    +0.021 A 
ATOM      8  C   UNL     1       2.415   0.044   0.154  0.00  0.00    +0.013 A 
ATOM      9  C   UNL     1       2.382   1.408   0.165  0.00  0.00    +0.024 A 
ATOM     10  C   UNL     1       1.175   2.087  -0.003  0.00  0.00    +0.037 A 
ATOM     11  C   UNL     1      -0.008   1.386  -0.183  0.00  0.00    +0.070 A 
ATOM     12  N   UNL     1       1.158   3.481   0.009  0.00  0.00    -0.280 N 
ATOM     13  C   UNL     1       0.096   4.137   0.516  0.00  0.00    +0.267 C 
ATOM     14  O   UNL     1      -0.805   3.517   1.049  0.00  0.00    -0.268 OA
ATOM     15  H   UNL     1       2.012   4.045  -0.394  0.00  0.00    +0.155 HD
ENDROOT
BRANCH  13  16
ATOM     16  C   UNL     1       0.025   5.605   0.424  0.00  0.00    +0.133 A 
ATOM     17  C   UNL     1      -1.052   6.283   0.936  0.00  0.00    +0.080 A 
ATOM     18  S   UNL     1      -0.635   7.929   0.571  0.00  0.00    -0.075 S 
ATOM     19  C   UNL     1       0.928   7.610  -0.231  0.00  0.00    +0.110 A 
ATOM     20  N   UNL     1       1.008   6.294  -0.152  0.00  0.00    -0.234 NA
BRANCH  19  21
ATOM     21  C   UNL     1       1.884   8.569  -0.823  0.00  0.00    +0.014 A 
ATOM     22  C   UNL     1       1.626   9.940  -0.807  0.00  0.00    +0.018 A 
ATOM     23  C   UNL     1       2.544  10.758  -1.366  0.00  0.00    +0.046 A 
ATOM     24  S   UNL     1       3.788   9.610  -1.926  0.00  0.00    -0.104 S 
ATOM     25  C   UNL     1       3.047   8.136  -1.396  0.00  0.00    +0.055 A 
ENDBRANCH  19  21
ENDBRANCH  13  16
BRANCH   4  26
ATOM     26  O   UNL     1      -2.187  -2.635  -0.543  0.00  0.00    -0.480 OA
ATOM     27  H   UNL     1      -3.121  -2.069  -0.673  0.00  0.00    +0.295 HD
ENDBRANCH   4  26
TORSDOF 3
