REMARK  Name = ZINC39467606
REMARK  8 active torsions:
REMARK  status: ('A' for Active; 'I' for Inactive)
REMARK    1  A    between atoms: C_1  and  C_2
REMARK    2  A    between atoms: C_2  and  C_3
REMARK    3  A    between atoms: C_2  and  S_4
REMARK    4  A    between atoms: S_4  and  C_7
REMARK    5  A    between atoms: P_16  and  C_32
REMARK    6  A    between atoms: C_24  and  C_25
REMARK    7  A    between atoms: C_30  and  O_31
REMARK    8  A    between atoms: C_37  and  O_38
REMARK                            x       y       z     vdW  Elec       q    Type
REMARK                         _______ _______ _______ _____ _____    ______ ____
ROOT
ATOM      1  C   UNL     1       2.531   0.066  -0.761  0.00  0.00    +0.092 C 
ATOM      2  C   UNL     1       3.712  -0.539  -0.770  0.00  0.00    +0.004 C 
ATOM      3  C   UNL     1       4.957   0.252  -1.094  0.00  0.00    +0.017 C 
ATOM      4  C   UNL     1       5.402   1.004   0.161  0.00  0.00    -0.003 C 
ATOM      5  C   UNL     1       6.587   1.924  -0.154  0.00  0.00    -0.020 C 
ATOM      6  C   UNL     1       6.962   2.639   1.151  0.00  0.00    +0.157 C 
ATOM      7  O   UNL     1       8.107   3.480   0.927  0.00  0.00    -0.316 OA
ATOM      8  P   UNL     1       8.058   4.501  -0.340  0.00  0.00    +0.291 P 
ATOM      9  O   UNL     1       9.430   4.873  -0.752  0.00  0.00    -0.269 OA
ATOM     10  N   UNL     1       7.306   3.660  -1.544  0.00  0.00    -0.288 NA
ATOM     11  N   UNL     1       6.220   2.883  -1.199  0.00  0.00    +0.398 N 
ATOM     12  C   UNL     1       5.826   2.175  -2.428  0.00  0.00    -0.046 C 
ATOM     13  C   UNL     1       4.626   1.264  -2.196  0.00  0.00    +0.005 C 
ATOM     14  C   UNL     1       3.439   2.090  -1.775  0.00  0.00    -0.014 C 
ATOM     15  C   UNL     1       2.445   1.511  -1.065  0.00  0.00    +0.006 C 
ATOM     16  H   UNL     1       7.616   3.714  -2.462  0.00  0.00    +0.111 HD
ATOM     17  H   UNL     1       5.467   3.470  -0.873  0.00  0.00    -0.055 HD
ENDROOT
BRANCH  15  18
ATOM     18  C   UNL     1       1.275   2.304  -0.617  0.00  0.00    +0.025 A 
ATOM     19  C   UNL     1       0.276   2.652  -1.524  0.00  0.00    +0.012 A 
ATOM     20  C   UNL     1      -0.811   3.389  -1.101  0.00  0.00    +0.001 A 
ATOM     21  C   UNL     1      -0.913   3.785   0.221  0.00  0.00    +0.004 A 
ATOM     22  C   UNL     1       0.072   3.447   1.129  0.00  0.00    +0.046 A 
ATOM     23  C   UNL     1       1.166   2.701   0.720  0.00  0.00    +0.125 A 
BRANCH  23  24
ATOM     24  O   UNL     1       2.132   2.363   1.612  0.00  0.00    -0.506 OA
ATOM     25  H   UNL     1       2.846   3.011   1.684  0.00  0.00    +0.292 HD
ENDBRANCH  23  24
ENDBRANCH  15  18
BRANCH   8  26
ATOM     26  C   UNL     1       7.106   5.985   0.086  0.00  0.00    +0.091 A 
ATOM     27  C   UNL     1       5.742   6.019  -0.136  0.00  0.00    +0.018 A 
ATOM     28  C   UNL     1       5.016   7.150   0.187  0.00  0.00    +0.001 A 
ATOM     29  C   UNL     1       5.652   8.250   0.733  0.00  0.00    +0.004 A 
ATOM     30  C   UNL     1       7.014   8.221   0.957  0.00  0.00    +0.046 A 
ATOM     31  C   UNL     1       7.745   7.085   0.638  0.00  0.00    +0.131 A 
BRANCH  31  32
ATOM     32  O   UNL     1       9.085   7.053   0.863  0.00  0.00    -0.506 OA
ATOM     33  H   UNL     1       9.616   7.366   0.118  0.00  0.00    +0.292 HD
ENDBRANCH  31  32
ENDBRANCH   8  26
BRANCH   1  34
ATOM     34  S   UNL     1       1.071  -0.849  -0.395  0.00  0.00    -0.001 S 
ATOM     35  O   UNL     1       0.399  -0.081   0.594  0.00  0.00    -0.169 OA
ATOM     36  O   UNL     1       1.529  -2.162  -0.104  0.00  0.00    -0.169 OA
BRANCH  34  38
ATOM     37  C   UNL     1       0.924  -1.552  -3.034  0.00  0.00    +0.032 C 
ATOM     38  C   UNL     1       0.120  -0.847  -1.940  0.00  0.00    +0.130 C 
ATOM     39  C   UNL     1      -1.204  -1.583  -1.725  0.00  0.00    +0.032 C 
ENDBRANCH  34  38
ENDBRANCH   1  34
TORSDOF 6
