REMARK  Name = ZINC12474896
REMARK  8 active torsions:
REMARK  status: ('A' for Active; 'I' for Inactive)
REMARK    1  A    between atoms: C_1  and  C_2
REMARK    2  A    between atoms: C_5  and  N_8
REMARK    3  A    between atoms: C_12  and  N_13
REMARK    4  A    between atoms: N_13  and  N_14
REMARK    5  A    between atoms: C_15  and  C_17
REMARK    6  A    between atoms: C_20  and  O_24
REMARK    7  A    between atoms: C_22  and  O_23
REMARK    8  A    between atoms: C_25  and  C_27
REMARK                            x       y       z     vdW  Elec       q    Type
REMARK                         _______ _______ _______ _____ _____    ______ ____
ROOT
ATOM      1  N   UNL     1       0.099  -7.416   2.703  0.00  0.00    -0.271 N 
ATOM      2  H   UNL     1       0.088  -6.550   3.139  0.00  0.00    +0.169 HD
ENDROOT
BRANCH   1   7
ATOM      3  N   UNL     1       0.057  -4.171  -0.021  0.00  0.00    -0.156 N 
ATOM      4  C   UNL     1       0.068  -4.949   1.080  0.00  0.00    +0.273 C 
ATOM      5  O   UNL     1       0.063  -4.577   2.242  0.00  0.00    -0.268 OA
ATOM      6  C   UNL     1       0.084  -6.336   0.597  0.00  0.00    +0.076 C 
ATOM      7  C   UNL     1       0.099  -7.493   1.356  0.00  0.00    +0.102 C 
ATOM      8  C   UNL     1       0.082  -6.226  -0.870  0.00  0.00    +0.070 C 
ATOM      9  N   UNL     1       0.061  -4.964  -1.168  0.00  0.00    -0.176 NA
ATOM     10  C   UNL     1       0.096  -7.373  -1.848  0.00  0.00    +0.068 C 
BRANCH   3  15
ATOM     11  C   UNL     1      -0.018   1.503   0.010  0.00  0.00    +0.044 C 
ATOM     12  C   UNL     1       0.002  -0.004   0.002  0.00  0.00    -0.050 A 
ATOM     13  C   UNL     1       0.006  -0.687  -1.200  0.00  0.00    +0.005 A 
ATOM     14  C   UNL     1       0.024  -2.068  -1.211  0.00  0.00    +0.026 A 
ATOM     15  C   UNL     1       0.039  -2.771  -0.013  0.00  0.00    +0.060 A 
ATOM     16  C   UNL     1       0.036  -2.081   1.192  0.00  0.00    +0.026 A 
ATOM     17  C   UNL     1       0.023  -0.700   1.197  0.00  0.00    +0.005 A 
ENDBRANCH   3  15
ENDBRANCH   1   7
BRANCH   1  18
ATOM     18  N   UNL     1       0.113  -8.588   3.471  0.00  0.00    -0.233 N 
ATOM     19  C   UNL     1       0.113  -8.511   4.817  0.00  0.00    +0.264 C 
ATOM     20  O   UNL     1       0.100  -7.425   5.364  0.00  0.00    -0.269 OA
ATOM     21  H   UNL     1       0.123  -9.454   3.035  0.00  0.00    +0.173 HD
BRANCH  19  22
ATOM     22  C   UNL     1       0.128  -9.742   5.625  0.00  0.00    +0.080 A 
ATOM     23  C   UNL     1       0.149 -10.993   4.998  0.00  0.00    +0.020 A 
ATOM     24  C   UNL     1       0.164 -12.141   5.756  0.00  0.00    +0.046 A 
ATOM     25  C   UNL     1       0.158 -12.063   7.146  0.00  0.00    +0.120 A 
ATOM     26  C   UNL     1       0.137 -10.829   7.777  0.00  0.00    +0.091 A 
ATOM     27  C   UNL     1       0.128  -9.666   7.026  0.00  0.00    +0.132 A 
BRANCH  27  28
ATOM     28  O   UNL     1       0.114  -8.457   7.641  0.00  0.00    -0.506 OA
ATOM     29  H   UNL     1      -0.773  -8.117   7.820  0.00  0.00    +0.292 HD
ENDBRANCH  27  28
BRANCH  25  30
ATOM     30  O   UNL     1       0.173 -13.200   7.886  0.00  0.00    -0.507 OA
ATOM     31  H   UNL     1       1.060 -13.517   8.104  0.00  0.00    +0.292 HD
ENDBRANCH  25  30
ENDBRANCH  19  22
ENDBRANCH   1  18
TORSDOF 6
