REMARK  Name = ZINC09015474
REMARK  10 active torsions:
REMARK  status: ('A' for Active; 'I' for Inactive)
REMARK    1  A    between atoms: C_1  and  C_2
REMARK    2  A    between atoms: C_2  and  O_3
REMARK    3  A    between atoms: O_3  and  C_4
REMARK    4  A    between atoms: C_9  and  C_10
REMARK    5  A    between atoms: C_12  and  C_33
REMARK    6  A    between atoms: C_17  and  S_21
REMARK    7  A    between atoms: C_18  and  C_19
REMARK    8  A    between atoms: S_21  and  C_22
REMARK    9  A    between atoms: C_22  and  C_23
REMARK   10  A    between atoms: N_25  and  C_26
REMARK                            x       y       z     vdW  Elec       q    Type
REMARK                         _______ _______ _______ _____ _____    ______ ____
ROOT
ATOM      1  C   UNL     1      -1.335   2.160  -0.003  0.00  0.00    +0.091 C 
ATOM      2  C   UNL     1      -1.193   3.463   0.792  0.00  0.00    +0.190 C 
ATOM      3  C   UNL     1       0.052   4.187   0.348  0.00  0.00    +0.235 C 
ATOM      4  O   UNL     1       0.054   5.398   0.281  0.00  0.00    -0.274 OA
ATOM      5  N   UNL     1       1.161   3.498   0.025  0.00  0.00    -0.278 N 
ATOM      6  C   UNL     1       1.153   2.121  -0.011  0.00  0.00    +0.082 C 
ATOM      7  C   UNL     1      -0.018   1.429  -0.003  0.00  0.00    +0.066 C 
ATOM      8  H   UNL     1       2.091   4.034  -0.214  0.00  0.00    +0.155 HD
ENDROOT
BRANCH   1  14
ATOM      9  C   UNL     1      -2.926   1.974  -1.932  0.00  0.00    +0.124 A 
ATOM     10  C   UNL     1      -3.293   2.265  -3.238  0.00  0.00    +0.046 A 
ATOM     11  C   UNL     1      -2.474   3.049  -4.027  0.00  0.00    +0.004 A 
ATOM     12  C   UNL     1      -1.289   3.545  -3.515  0.00  0.00    +0.001 A 
ATOM     13  C   UNL     1      -0.923   3.261  -2.212  0.00  0.00    +0.008 A 
ATOM     14  C   UNL     1      -1.737   2.473  -1.421  0.00  0.00    +0.004 A 
BRANCH   9  15
ATOM     15  O   UNL     1      -3.730   1.203  -1.155  0.00  0.00    -0.492 OA
BRANCH  15  17
ATOM     16  C   UNL     1      -5.707  -0.120  -0.727  0.00  0.00    +0.048 C 
ATOM     17  C   UNL     1      -4.939   0.724  -1.747  0.00  0.00    +0.225 C 
ENDBRANCH  15  17
ENDBRANCH   9  15
ENDBRANCH   1  14
BRANCH   7  18
ATOM     18  C   UNL     1       0.002  -0.003  -0.002  0.00  0.00    +0.098 C 
ATOM     19  N   UNL     1       0.017  -1.139  -0.001  0.00  0.00    -0.191 NA
ENDBRANCH   7  18
BRANCH   2  20
ATOM     20  C   UNL     1      -2.369   4.315   0.548  0.00  0.00    +0.076 C 
ATOM     21  N   UNL     1      -3.276   4.972   0.360  0.00  0.00    -0.196 NA
ENDBRANCH   2  20
BRANCH   6  22
ATOM     22  S   UNL     1       2.680   1.244  -0.068  0.00  0.00    -0.100 S 
BRANCH  22  23
ATOM     23  C   UNL     1       3.840   2.633  -0.057  0.00  0.00    +0.171 C 
BRANCH  23  24
ATOM     24  C   UNL     1       5.252   2.109  -0.102  0.00  0.00    +0.227 C 
ATOM     25  O   UNL     1       5.454   0.913  -0.137  0.00  0.00    -0.275 OA
ATOM     26  N   UNL     1       6.291   2.968  -0.102  0.00  0.00    -0.285 N 
ATOM     27  H   UNL     1       6.108   4.052  -0.146  0.00  0.00    +0.155 HD
BRANCH  26  28
ATOM     28  C   UNL     1       7.602   2.481  -0.046  0.00  0.00    +0.033 A 
ATOM     29  C   UNL     1       8.578   3.188   0.644  0.00  0.00    +0.024 A 
ATOM     30  C   UNL     1       9.869   2.703   0.702  0.00  0.00    +0.017 A 
ATOM     31  C   UNL     1      10.194   1.519   0.065  0.00  0.00    +0.018 A 
ATOM     32  C   UNL     1       9.225   0.815  -0.628  0.00  0.00    +0.017 A 
ATOM     33  C   UNL     1       7.931   1.293  -0.685  0.00  0.00    +0.024 A 
ATOM     34 BR   UNL     1      11.965   0.861   0.141  0.00  0.00    -0.050 Br
ENDBRANCH  26  28
ENDBRANCH  23  24
ENDBRANCH  22  23
ENDBRANCH   6  22
TORSDOF 9
