REMARK  Name = ZINC20407357
REMARK  9 active torsions:
REMARK  status: ('A' for Active; 'I' for Inactive)
REMARK    1  A    between atoms: C_1  and  C_2
REMARK    2  A    between atoms: C_5  and  C_7
REMARK    3  A    between atoms: C_9  and  C_29
REMARK    4  A    between atoms: C_10  and  C_28
REMARK    5  A    between atoms: C_17  and  C_18
REMARK    6  A    between atoms: C_21  and  N_24
REMARK    7  A    between atoms: N_24  and  C_25
REMARK    8  A    between atoms: N_24  and  C_26
REMARK    9  A    between atoms: N_31  and  C_32
REMARK                            x       y       z     vdW  Elec       q    Type
REMARK                         _______ _______ _______ _____ _____    ______ ____
ROOT
ATOM      1  C   UNL     1      -0.714   1.617  -0.755  0.00  0.00    +0.195 C 
ATOM      2  C   UNL     1      -0.499   1.367   0.720  0.00  0.00    +0.066 C 
ATOM      3  C   UNL     1       0.555   0.583   1.093  0.00  0.00    +0.052 C 
ATOM      4  N   UNL     1       1.363   0.060   0.179  0.00  0.00    -0.228 NA
ATOM      5  C   UNL     1       1.241   0.231  -1.113  0.00  0.00    +0.178 A 
ATOM      6  N   UNL     1       0.249   0.983  -1.699  0.00  0.00    -0.272 N 
ATOM      7  C   UNL     1       0.225   1.086  -3.034  0.00  0.00    +0.268 A 
ATOM      8  O   UNL     1      -0.633   1.740  -3.597  0.00  0.00    -0.266 OA
ATOM      9  C   UNL     1       1.265   0.385  -3.799  0.00  0.00    +0.081 A 
ATOM     10  C   UNL     1       1.460   0.331  -5.142  0.00  0.00    +0.028 C 
ATOM     11  S   UNL     1       2.204  -0.375  -2.484  0.00  0.00    -0.046 S 
ATOM     12  C   UNL     1       0.803   0.310   2.554  0.00  0.00    +0.066 C 
ENDROOT
BRANCH   1  17
ATOM     13  C   UNL     1       1.036   6.316  -1.297  0.00  0.00    +0.086 C 
ATOM     14  C   UNL     1       0.085   5.149  -1.219  0.00  0.00    +0.102 A 
ATOM     15  C   UNL     1      -1.249   5.210  -1.376  0.00  0.00    +0.045 A 
ATOM     16  C   UNL     1      -1.739   3.892  -1.229  0.00  0.00    +0.047 A 
ATOM     17  C   UNL     1      -0.676   3.106  -0.983  0.00  0.00    +0.133 A 
ATOM     18  O   UNL     1       0.427   3.873  -0.981  0.00  0.00    -0.462 OA
ENDBRANCH   1  17
BRANCH  10  19
ATOM     19  C   UNL     1       2.687  -0.267  -5.682  0.00  0.00    -0.024 A 
ATOM     20  C   UNL     1       3.739  -0.610  -4.822  0.00  0.00    +0.010 A 
ATOM     21  C   UNL     1       4.881  -1.172  -5.330  0.00  0.00    +0.023 A 
ATOM     22  C   UNL     1       5.001  -1.393  -6.700  0.00  0.00    +0.029 A 
ATOM     23  C   UNL     1       3.961  -1.049  -7.559  0.00  0.00    +0.023 A 
ATOM     24  C   UNL     1       2.813  -0.491  -7.059  0.00  0.00    +0.010 A 
BRANCH  22  25
ATOM     25  N   UNL     1       6.165  -1.959  -7.212  0.00  0.00    -0.336 N 
ATOM     26  C   UNL     1       6.294  -2.192  -8.652  0.00  0.00    +0.129 C 
ATOM     27  C   UNL     1       7.261  -2.321  -6.310  0.00  0.00    +0.129 C 
ENDBRANCH  22  25
ENDBRANCH  10  19
BRANCH   2  28
ATOM     28  C   UNL     1      -1.361   1.926   1.682  0.00  0.00    +0.248 C 
ATOM     29  O   UNL     1      -2.495   1.499   1.806  0.00  0.00    -0.270 OA
ATOM     30  N   UNL     1      -0.931   2.935   2.466  0.00  0.00    -0.282 N 
ATOM     31  H   UNL     1       0.049   3.398   2.278  0.00  0.00    +0.155 HD
BRANCH  30  32
ATOM     32  C   UNL     1      -1.731   3.393   3.517  0.00  0.00    +0.034 A 
ATOM     33  C   UNL     1      -2.604   2.522   4.157  0.00  0.00    +0.023 A 
ATOM     34  C   UNL     1      -3.390   2.976   5.198  0.00  0.00    +0.002 A 
ATOM     35  C   UNL     1      -3.315   4.298   5.598  0.00  0.00    +0.000 A 
ATOM     36  C   UNL     1      -2.450   5.168   4.960  0.00  0.00    +0.002 A 
ATOM     37  C   UNL     1      -1.658   4.720   3.921  0.00  0.00    +0.023 A 
ENDBRANCH  30  32
ENDBRANCH   2  28
TORSDOF 5
