REMARK  Name = ZINC35523390
REMARK  10 active torsions:
REMARK  status: ('A' for Active; 'I' for Inactive)
REMARK    1  A    between atoms: C_1  and  C_2
REMARK    2  A    between atoms: C_5  and  C_8
REMARK    3  A    between atoms: N_17  and  C_18
REMARK    4  A    between atoms: C_18  and  C_19
REMARK    5  A    between atoms: C_22  and  C_24
REMARK    6  A    between atoms: N_26  and  C_27
REMARK    7  A    between atoms: C_27  and  C_29
REMARK    8  A    between atoms: C_27  and  C_30
REMARK    9  A    between atoms: C_30  and  C_31
REMARK   10  A    between atoms: C_31  and  C_32
REMARK                            x       y       z     vdW  Elec       q    Type
REMARK                         _______ _______ _______ _____ _____    ______ ____
ROOT
ATOM      1  C   UNL     1      -3.089  -4.915   1.879  0.00  0.00    +0.090 A 
ATOM      2  C   UNL     1      -3.448  -4.128   2.918  0.00  0.00    +0.043 A 
ATOM      3  C   UNL     1      -4.265  -4.901   3.757  0.00  0.00    +0.055 A 
ATOM      4  C   UNL     1      -4.365  -6.135   3.181  0.00  0.00    +0.189 A 
ATOM      5  O   UNL     1      -3.648  -6.121   2.039  0.00  0.00    -0.457 OA
ENDROOT
BRANCH   4   6
ATOM      6  C   UNL     1      -5.123  -7.274   3.710  0.00  0.00    +0.280 C 
ATOM      7  O   UNL     1      -5.738  -7.163   4.754  0.00  0.00    -0.267 OA
ATOM      8  N   UNL     1      -5.139  -8.442   3.039  0.00  0.00    -0.306 N 
ATOM      9  H   UNL     1      -4.649  -8.530   2.206  0.00  0.00    +0.149 HD
BRANCH   8  10
ATOM     10  C   UNL     1      -5.896  -9.580   3.566  0.00  0.00    +0.071 C 
ATOM     11  C   UNL     1      -7.356  -9.473   3.120  0.00  0.00    +0.028 C 
BRANCH  10  12
ATOM     12  C   UNL     1      -5.295 -10.883   3.035  0.00  0.00    +0.026 C 
BRANCH  12  13
ATOM     13  C   UNL     1      -3.877 -11.051   3.584  0.00  0.00    +0.037 C 
BRANCH  13  14
ATOM     14  C   UNL     1      -3.285 -12.335   3.061  0.00  0.00    -0.047 A 
ATOM     15  C   UNL     1      -3.454 -13.511   3.766  0.00  0.00    +0.003 A 
ATOM     16  C   UNL     1      -2.911 -14.689   3.286  0.00  0.00    +0.000 A 
ATOM     17  C   UNL     1      -2.199 -14.689   2.101  0.00  0.00    +0.000 A 
ATOM     18  C   UNL     1      -2.030 -13.512   1.396  0.00  0.00    +0.000 A 
ATOM     19  C   UNL     1      -2.577 -12.336   1.873  0.00  0.00    +0.003 A 
ENDBRANCH  13  14
ENDBRANCH  12  13
ENDBRANCH  10  12
ENDBRANCH   8  10
ENDBRANCH   4   6
BRANCH   1  20
ATOM     20  C   UNL     1      -2.211  -4.500   0.727  0.00  0.00    -0.002 C 
BRANCH  20  29
ATOM     21  C   UNL     1       0.059  -4.275  -0.021  0.00  0.00    +0.011 C 
ATOM     22  C   UNL     1       1.464  -4.768   0.230  0.00  0.00    +0.009 A 
ATOM     23  C   UNL     1       2.610  -4.316  -0.298  0.00  0.00    +0.021 A 
ATOM     24  C   UNL     1       3.657  -5.090   0.246  0.00  0.00    +0.019 A 
ATOM     25  C   UNL     1       3.103  -5.989   1.088  0.00  0.00    +0.086 A 
ATOM     26  N   UNL     1       1.759  -5.800   1.082  0.00  0.00    -0.353 N 
ATOM     27  C   UNL     1       0.734  -6.540   1.829  0.00  0.00    +0.103 C 
ATOM     28  C   UNL     1      -0.627  -6.242   1.189  0.00  0.00    -0.055 C 
ATOM     29  N   UNL     1      -0.808  -4.790   1.052  0.00  0.00    +0.394 N 
ATOM     30  H   UNL     1      -0.567  -4.339   1.922  0.00  0.00    -0.080 HD
BRANCH  21  35
ATOM     31  C   UNL     1      -0.018   1.503   0.010  0.00  0.00    +0.044 C 
ATOM     32  C   UNL     1       0.002  -0.004   0.002  0.00  0.00    -0.050 A 
ATOM     33  C   UNL     1       0.006  -0.689  -1.199  0.00  0.00    +0.003 A 
ATOM     34  C   UNL     1       0.025  -2.071  -1.206  0.00  0.00    +0.002 A 
ATOM     35  C   UNL     1       0.040  -2.768  -0.013  0.00  0.00    -0.055 A 
ATOM     36  C   UNL     1       0.037  -2.084   1.188  0.00  0.00    +0.002 A 
ATOM     37  C   UNL     1       0.023  -0.702   1.195  0.00  0.00    +0.003 A 
ENDBRANCH  21  35
ENDBRANCH  20  29
ENDBRANCH   1  20
TORSDOF 8
