REMARK  Name = ZINC40034912
REMARK  9 active torsions:
REMARK  status: ('A' for Active; 'I' for Inactive)
REMARK    1  A    between atoms: C_1  and  C_2
REMARK    2  A    between atoms: C_5  and  N_8
REMARK    3  A    between atoms: N_15  and  N_16
REMARK    4  A    between atoms: C_17  and  C_18
REMARK    5  A    between atoms: C_21  and  C_24
REMARK    6  A    between atoms: C_24  and  O_26
REMARK    7  A    between atoms: O_26  and  C_27
REMARK    8  A    between atoms: C_35  and  C_36
REMARK    9  A    between atoms: C_35  and  C_37
REMARK                            x       y       z     vdW  Elec       q    Type
REMARK                         _______ _______ _______ _____ _____    ______ ____
ROOT
ATOM      1  N   UNL     1      -0.709  -4.508  -0.195  0.00  0.00    -0.248 N 
ATOM      2  C   UNL     1      -0.295  -5.030   0.980  0.00  0.00    +0.264 A 
ATOM      3  O   UNL     1      -0.042  -4.306   1.929  0.00  0.00    -0.267 OA
ATOM      4  C   UNL     1      -0.163  -6.420   1.086  0.00  0.00    +0.049 A 
ATOM      5  C   UNL     1      -0.461  -7.207  -0.018  0.00  0.00    +0.084 A 
ATOM      6  N   UNL     1      -0.860  -6.633  -1.158  0.00  0.00    -0.214 NA
ATOM      7  C   UNL     1      -0.989  -5.326  -1.249  0.00  0.00    +0.223 A 
ATOM      8  N   UNL     1      -1.407  -4.774  -2.434  0.00  0.00    -0.206 N 
ATOM      9  C   UNL     1      -0.336  -8.677   0.097  0.00  0.00    +0.004 A 
ATOM     10  C   UNL     1      -0.252  -9.478  -1.038  0.00  0.00    +0.010 A 
ATOM     11  C   UNL     1      -0.131 -10.847  -0.902  0.00  0.00    +0.001 A 
ATOM     12  C   UNL     1      -0.094 -11.418   0.357  0.00  0.00    +0.000 A 
ATOM     13  C   UNL     1      -0.179 -10.626   1.488  0.00  0.00    +0.004 A 
ATOM     14  C   UNL     1      -0.303  -9.257   1.366  0.00  0.00    -0.037 A 
ATOM     15  C   UNL     1      -0.410  -8.389   2.591  0.00  0.00    +0.047 C 
ATOM     16  C   UNL     1       0.299  -7.056   2.367  0.00  0.00    +0.001 C 
ATOM     17  C   UNL     1       1.809  -7.292   2.297  0.00  0.00    +0.016 C 
ATOM     18  C   UNL     1      -0.011  -6.118   3.535  0.00  0.00    +0.016 C 
ATOM     19  H   UNL     1      -1.548  -3.816  -2.500  0.00  0.00    +0.177 HD
ENDROOT
BRANCH   1  24
ATOM     20  C   UNL     1      -1.311   1.109  -0.734  0.00  0.00    +0.044 C 
ATOM     21  C   UNL     1      -1.151  -0.383  -0.591  0.00  0.00    -0.050 A 
ATOM     22  C   UNL     1      -2.222  -1.155  -0.180  0.00  0.00    +0.005 A 
ATOM     23  C   UNL     1      -2.079  -2.522  -0.048  0.00  0.00    +0.026 A 
ATOM     24  C   UNL     1      -0.858  -3.121  -0.328  0.00  0.00    +0.053 A 
ATOM     25  C   UNL     1       0.216  -2.343  -0.741  0.00  0.00    +0.026 A 
ATOM     26  C   UNL     1       0.065  -0.977  -0.876  0.00  0.00    +0.005 A 
ENDBRANCH   1  24
BRANCH   8  27
ATOM     27  N   UNL     1      -1.632  -5.593  -3.547  0.00  0.00    -0.188 NA
ATOM     28  C   UNL     1      -2.028  -5.071  -4.669  0.00  0.00    +0.138 C 
BRANCH  28  29
ATOM     29  C   UNL     1      -2.264  -5.932  -5.840  0.00  0.00    -0.005 A 
ATOM     30  C   UNL     1      -2.067  -7.314  -5.743  0.00  0.00    +0.010 A 
ATOM     31  C   UNL     1      -2.287  -8.113  -6.829  0.00  0.00    +0.015 A 
ATOM     32  C   UNL     1      -2.708  -7.550  -8.037  0.00  0.00    +0.059 A 
ATOM     33  C   UNL     1      -2.905  -6.168  -8.134  0.00  0.00    +0.015 A 
ATOM     34  C   UNL     1      -2.691  -5.370  -7.047  0.00  0.00    +0.010 A 
BRANCH  32  35
ATOM     35  C   UNL     1      -2.945  -8.412  -9.210  0.00  0.00    +0.339 C 
ATOM     36  O   UNL     1      -2.773  -9.612  -9.126  0.00  0.00    -0.245 OA
BRANCH  35  37
ATOM     37  O   UNL     1      -3.351  -7.870 -10.375  0.00  0.00    -0.464 OA
ATOM     38  C   UNL     1      -3.561  -8.764 -11.469  0.00  0.00    +0.280 C 
ENDBRANCH  35  37
ENDBRANCH  32  35
ENDBRANCH  28  29
ENDBRANCH   8  27
TORSDOF 5
