REMARK  Name = ZINC03875231
REMARK  11 active torsions:
REMARK  status: ('A' for Active; 'I' for Inactive)
REMARK    1  A    between atoms: C_1  and  C_2
REMARK    2  A    between atoms: C_10  and  O_36
REMARK    3  A    between atoms: C_21  and  N_75
REMARK    4  A    between atoms: C_23  and  C_24
REMARK    5  A    between atoms: C_23  and  N_75
REMARK    6  A    between atoms: C_24  and  C_25
REMARK    7  A    between atoms: C_25  and  C_26
REMARK    8  A    between atoms: C_26  and  C_27
REMARK    9  A    between atoms: C_27  and  C_28
REMARK   10  A    between atoms: C_28  and  N_29
REMARK   11  A    between atoms: O_36  and  C_37
REMARK                            x       y       z     vdW  Elec       q    Type
REMARK                         _______ _______ _______ _____ _____    ______ ____
ROOT
ATOM      1  C   UNL     1       1.003   2.288  -6.795  0.00  0.00    +0.010 C 
ATOM      2  C   UNL     1      -0.359   2.061  -6.091  0.00  0.00    -0.041 C 
ATOM      3  C   UNL     1      -0.865   3.428  -5.700  0.00  0.00    +0.006 C 
ATOM      4  C   UNL     1      -2.362   3.476  -5.434  0.00  0.00    +0.009 C 
ATOM      5  C   UNL     1      -3.102   2.971  -6.679  0.00  0.00    +0.023 C 
ATOM      6  C   UNL     1      -4.585   3.117  -6.445  0.00  0.00    -0.041 A 
ATOM      7  C   UNL     1      -5.137   4.386  -6.573  0.00  0.00    +0.008 A 
ATOM      8  C   UNL     1      -6.485   4.589  -6.369  0.00  0.00    +0.046 A 
ATOM      9  C   UNL     1      -7.298   3.516  -6.032  0.00  0.00    +0.120 A 
ATOM     10  C   UNL     1      -6.748   2.252  -5.908  0.00  0.00    +0.049 A 
ATOM     11  C   UNL     1      -5.390   2.050  -6.115  0.00  0.00    -0.040 A 
ATOM     12  C   UNL     1      -4.861   0.648  -5.963  0.00  0.00    +0.036 C 
ATOM     13  C   UNL     1      -3.340   0.656  -5.796  0.00  0.00    +0.009 C 
ATOM     14  C   UNL     1      -2.736   1.512  -6.902  0.00  0.00    +0.000 C 
ATOM     15  C   UNL     1      -1.247   1.303  -7.081  0.00  0.00    -0.003 C 
ATOM     16  C   UNL     1      -0.912  -0.189  -6.818  0.00  0.00    +0.003 C 
ATOM     17  C   UNL     1      -0.597  -0.264  -5.312  0.00  0.00    -0.015 C 
ATOM     18  C   UNL     1      -0.088   1.132  -4.907  0.00  0.00    -0.066 C 
ENDROOT
BRANCH  18  19
ATOM     19  N   UNL     1      -0.756   1.592  -3.680  0.00  0.00    +0.381 N 
ATOM     20  H   UNL     1      -1.719   1.236  -3.665  0.00  0.00    -0.086 HD
ATOM     21  H   UNL     1      -0.770   2.619  -3.667  0.00  0.00    -0.086 HD
BRANCH  19  22
ATOM     22  C   UNL     1      -0.037   1.099  -2.490  0.00  0.00    -0.082 C 
BRANCH  22  23
ATOM     23  C   UNL     1      -0.753   1.593  -1.232  0.00  0.00    -0.019 C 
BRANCH  23  24
ATOM     24  C   UNL     1      -0.013   1.086   0.008  0.00  0.00    -0.002 C 
BRANCH  24  25
ATOM     25  C   UNL     1      -0.729   1.579   1.267  0.00  0.00    +0.001 C 
BRANCH  25  26
ATOM     26  C   UNL     1       0.011   1.072   2.506  0.00  0.00    +0.019 C 
BRANCH  26  27
ATOM     27  C   UNL     1      -0.705   1.566   3.765  0.00  0.00    +0.116 C 
BRANCH  27  28
ATOM     28  N   UNL     1       0.004   1.081   4.952  0.00  0.00    -0.242 N 
ATOM     29  C   UNL     1      -0.287  -0.085   5.543  0.00  0.00    +0.222 C 
ATOM     30  O   UNL     1      -1.147  -0.860   5.183  0.00  0.00    -0.275 OA
ATOM     31  C   UNL     1       0.629  -0.282   6.731  0.00  0.00    +0.105 C 
ATOM     32  C   UNL     1       1.502   0.989   6.730  0.00  0.00    +0.105 C 
ATOM     33  C   UNL     1       0.991   1.768   5.538  0.00  0.00    +0.222 C 
ATOM     34  O   UNL     1       1.411   2.845   5.171  0.00  0.00    -0.275 OA
ENDBRANCH  27  28
ENDBRANCH  26  27
ENDBRANCH  25  26
ENDBRANCH  24  25
ENDBRANCH  23  24
ENDBRANCH  22  23
ENDBRANCH  19  22
ENDBRANCH  18  19
BRANCH   9  35
ATOM     35  O   UNL     1      -8.627   3.705  -5.825  0.00  0.00    -0.495 OA
ATOM     36  C   UNL     1      -9.123   5.038  -5.971  0.00  0.00    +0.277 C 
ENDBRANCH   9  35
TORSDOF 9
