REMARK  Name = ZINC36206574
REMARK  15 active torsions:
REMARK  status: ('A' for Active; 'I' for Inactive)
REMARK    1  A    between atoms: C_1  and  C_2
REMARK    2  A    between atoms: C_2  and  C_3
REMARK    3  A    between atoms: C_2  and  C_4
REMARK    4  A    between atoms: C_4  and  O_5
REMARK    5  A    between atoms: O_5  and  C_6
REMARK    6  A    between atoms: C_6  and  C_7
REMARK    7  A    between atoms: C_7  and  C_9
REMARK    8  A    between atoms: C_7  and  O_37
REMARK    9  A    between atoms: C_9  and  N_10
REMARK   10  A    between atoms: N_10  and  C_11
REMARK   11  A    between atoms: N_10  and  C_31
REMARK   12  A    between atoms: C_11  and  C_12
REMARK   13  A    between atoms: C_18  and  C_23
REMARK   14  A    between atoms: C_28  and  O_29
REMARK   15  A    between atoms: O_29  and  C_30
REMARK                            x       y       z     vdW  Elec       q    Type
REMARK                         _______ _______ _______ _____ _____    ______ ____
ROOT
ATOM      1  C   UNL     1       0.116  -0.676   8.547  0.00  0.00    -0.003 C 
ENDROOT
BRANCH   1   2
ATOM      2  C   UNL     1      -0.714  -0.160   9.694  0.00  0.00    +0.094 A 
ATOM      3  N   UNL     1      -0.269  -0.325  10.967  0.00  0.00    -0.312 N 
ATOM      4  H   UNL     1       0.578  -0.773  11.120  0.00  0.00    +0.170 HD
ATOM      5  C   UNL     1      -0.979   0.121  12.019  0.00  0.00    +0.260 A 
ATOM      6  O   UNL     1      -0.565  -0.034  13.155  0.00  0.00    -0.267 OA
ATOM      7  C   UNL     1      -2.227   0.781  11.784  0.00  0.00    +0.080 A 
ATOM      8  C   UNL     1      -3.167   1.346  12.745  0.00  0.00    +0.007 A 
ATOM      9  C   UNL     1      -4.299   1.929  12.283  0.00  0.00    +0.056 A 
ATOM     10  S   UNL     1      -4.163   1.751  10.515  0.00  0.00    -0.076 S 
ATOM     11  C   UNL     1      -2.606   0.905  10.438  0.00  0.00    +0.116 A 
ATOM     12  N   UNL     1      -1.846   0.442   9.448  0.00  0.00    -0.229 NA
BRANCH   8  13
ATOM     13  C   UNL     1      -2.890   1.282  14.200  0.00  0.00    +0.025 A 
ATOM     14  C   UNL     1      -3.712   0.530  15.037  0.00  0.00    +0.012 A 
ATOM     15  C   UNL     1      -3.449   0.474  16.391  0.00  0.00    +0.001 A 
ATOM     16  C   UNL     1      -2.372   1.162  16.921  0.00  0.00    +0.004 A 
ATOM     17  C   UNL     1      -1.550   1.911  16.099  0.00  0.00    +0.046 A 
ATOM     18  C   UNL     1      -1.799   1.972  14.738  0.00  0.00    +0.128 A 
BRANCH  18  19
ATOM     19  O   UNL     1      -0.988   2.703  13.928  0.00  0.00    -0.495 OA
ATOM     20  C   UNL     1       0.107   3.381  14.548  0.00  0.00    +0.277 C 
ENDBRANCH  18  19
ENDBRANCH   8  13
ENDBRANCH   1   2
BRANCH   1  21
ATOM     21  N   UNL     1      -0.638  -0.532   7.294  0.00  0.00    +0.388 N 
ATOM     22  H   UNL     1      -1.199   0.306   7.334  0.00  0.00    -0.081 HD
BRANCH  21  23
ATOM     23  C   UNL     1      -1.512  -1.699   7.112  0.00  0.00    -0.068 C 
ATOM     24  C   UNL     1      -0.657  -2.959   6.970  0.00  0.00    -0.015 C 
ATOM     25  C   UNL     1      -1.568  -4.174   6.780  0.00  0.00    -0.002 C 
ATOM     26  C   UNL     1      -2.487  -4.317   7.995  0.00  0.00    -0.000 C 
ATOM     27  C   UNL     1      -3.342  -3.056   8.137  0.00  0.00    -0.002 C 
ATOM     28  C   UNL     1      -2.432  -1.841   8.327  0.00  0.00    -0.015 C 
ENDBRANCH  21  23
BRANCH  21  29
ATOM     29  C   UNL     1       0.299  -0.442   6.167  0.00  0.00    -0.044 C 
BRANCH  29  30
ATOM     30  C   UNL     1      -0.479  -0.165   4.878  0.00  0.00    +0.124 C 
BRANCH  30  31
ATOM     31  O   UNL     1      -1.185   1.070   5.005  0.00  0.00    -0.391 OA
ATOM     32  H   UNL     1      -0.615   1.835   5.163  0.00  0.00    +0.210 HD
ENDBRANCH  30  31
BRANCH  30  33
ATOM     33  C   UNL     1       0.496  -0.077   3.703  0.00  0.00    +0.189 C 
BRANCH  33  34
ATOM     34  O   UNL     1      -0.237   0.065   2.485  0.00  0.00    -0.377 OA
BRANCH  34  35
ATOM     35  C   UNL     1       0.584   0.156   1.319  0.00  0.00    +0.163 C 
BRANCH  35  37
ATOM     36  C   UNL     1      -1.057   1.634   0.150  0.00  0.00    +0.009 C 
ATOM     37  C   UNL     1      -0.303   0.305   0.081  0.00  0.00    +0.009 C 
ATOM     38  C   UNL     1       0.568   0.278  -1.177  0.00  0.00    +0.009 C 
ENDBRANCH  35  37
ENDBRANCH  34  35
ENDBRANCH  33  34
ENDBRANCH  30  33
ENDBRANCH  29  30
ENDBRANCH  21  29
ENDBRANCH   1  21
TORSDOF 12
