REMARK  Name = ZINC39431158
REMARK  6 active torsions:
REMARK  status: ('A' for Active; 'I' for Inactive)
REMARK    1  A    between atoms: C_1  and  C_2
REMARK    2  A    between atoms: C_2  and  C_4
REMARK    3  A    between atoms: C_2  and  S_16
REMARK    4  A    between atoms: S_16  and  C_17
REMARK    5  A    between atoms: C_21  and  C_31
REMARK    6  A    between atoms: N_23  and  C_24
REMARK                            x       y       z     vdW  Elec       q    Type
REMARK                         _______ _______ _______ _____ _____    ______ ____
ROOT
ATOM      1  C   UNL     1       2.549  -0.017  -1.272  0.00  0.00    +0.274 C 
ATOM      2  N   UNL     1       2.564   1.438  -1.117  0.00  0.00    -0.180 NA
ATOM      3  N   UNL     1       3.050   1.779  -0.040  0.00  0.00    -0.286 N 
ATOM      4  C   UNL     1       3.465   0.624   0.758  0.00  0.00    +0.218 C 
ATOM      5  N   UNL     1       3.142  -0.572  -0.042  0.00  0.00    -0.273 N 
ATOM      6  H   UNL     1       3.147   2.700   0.246  0.00  0.00    +0.185 HD
ENDROOT
BRANCH   5   7
ATOM      7  C   UNL     1       3.348  -1.915   0.288  0.00  0.00    +0.034 A 
ATOM      8  C   UNL     1       3.812  -2.257   1.551  0.00  0.00    +0.026 A 
ATOM      9  C   UNL     1       4.014  -3.585   1.875  0.00  0.00    +0.040 A 
ATOM     10  C   UNL     1       3.755  -4.574   0.941  0.00  0.00    +0.124 A 
ATOM     11  C   UNL     1       3.292  -4.234  -0.319  0.00  0.00    +0.040 A 
ATOM     12  C   UNL     1       3.083  -2.909  -0.645  0.00  0.00    +0.026 A 
ATOM     13  F   UNL     1       3.954  -5.871   1.260  0.00  0.00    -0.205 F 
ENDBRANCH   5   7
BRANCH   4  14
ATOM     14  C   UNL     1       4.947   0.685   1.024  0.00  0.00    -0.006 A 
ATOM     15  C   UNL     1       5.841   0.588  -0.026  0.00  0.00    +0.010 A 
ATOM     16  C   UNL     1       7.201   0.643   0.216  0.00  0.00    +0.039 A 
ATOM     17  C   UNL     1       7.667   0.796   1.511  0.00  0.00    +0.123 A 
ATOM     18  C   UNL     1       6.770   0.893   2.562  0.00  0.00    +0.039 A 
ATOM     19  C   UNL     1       5.411   0.843   2.316  0.00  0.00    +0.010 A 
ATOM     20  F   UNL     1       8.996   0.851   1.749  0.00  0.00    -0.205 F 
ENDBRANCH   4  14
BRANCH   1  21
ATOM     21  S   UNL     1       0.844  -0.606  -1.462  0.00  0.00    -0.103 S 
BRANCH  21  23
ATOM     22  C   UNL     1      -0.023   1.508   0.042  0.00  0.00    +0.027 C 
ATOM     23  C   UNL     1       0.008  -0.022   0.038  0.00  0.00    +0.113 C 
BRANCH  23  24
ATOM     24  C   UNL     1      -1.402  -0.553   0.066  0.00  0.00    +0.123 A 
ATOM     25  N   UNL     1      -2.228  -0.136   1.060  0.00  0.00    -0.309 N 
ATOM     26  H   UNL     1      -1.901   0.488   1.727  0.00  0.00    +0.170 HD
ATOM     27  C   UNL     1      -3.504  -0.583   1.130  0.00  0.00    +0.259 A 
ATOM     28  O   UNL     1      -4.255  -0.217   2.015  0.00  0.00    -0.267 OA
ATOM     29  C   UNL     1      -3.947  -1.527   0.093  0.00  0.00    +0.065 A 
ATOM     30  C   UNL     1      -5.240  -2.047   0.074  0.00  0.00    +0.015 A 
ATOM     31  C   UNL     1      -5.602  -2.929  -0.920  0.00  0.00    +0.001 A 
ATOM     32  C   UNL     1      -4.691  -3.302  -1.900  0.00  0.00    +0.002 A 
ATOM     33  C   UNL     1      -3.409  -2.800  -1.899  0.00  0.00    +0.028 A 
ATOM     34  C   UNL     1      -3.018  -1.904  -0.901  0.00  0.00    +0.078 A 
ATOM     35  N   UNL     1      -1.767  -1.381  -0.865  0.00  0.00    -0.233 NA
ENDBRANCH  23  24
ENDBRANCH  21  23
ENDBRANCH   1  21
TORSDOF 5
