REMARK  Name = ZINC06445223
REMARK  4 active torsions:
REMARK  status: ('A' for Active; 'I' for Inactive)
REMARK    1  A    between atoms: C_12  and  C_13
REMARK    2  A    between atoms: C_13  and  C_15
REMARK    3  A    between atoms: C_13  and  N_66
REMARK    4  A    between atoms: N_19  and  C_20
REMARK                            x       y       z     vdW  Elec       q    Type
REMARK                         _______ _______ _______ _____ _____    ______ ____
ROOT
ATOM      1  C   UNL     1       3.512   0.638  -0.028  0.00  0.00    +0.039 C 
ENDROOT
BRANCH   1  13
ATOM      2  C   UNL     1       4.732   1.166   2.066  0.00  0.00    +0.017 A 
ATOM      3  C   UNL     1       5.215   0.774   3.389  0.00  0.00    +0.002 A 
ATOM      4  C   UNL     1       5.942   1.665   4.187  0.00  0.00    +0.059 A 
ATOM      5  C   UNL     1       6.390   1.265   5.428  0.00  0.00    +0.163 A 
ATOM      6  C   UNL     1       6.118  -0.026   5.892  0.00  0.00    +0.164 A 
ATOM      7  C   UNL     1       5.399  -0.913   5.110  0.00  0.00    +0.075 A 
ATOM      8  C   UNL     1       4.942  -0.526   3.857  0.00  0.00    +0.053 A 
ATOM      9  N   UNL     1       4.223  -1.399   3.065  0.00  0.00    -0.322 N 
ATOM     10  H   UNL     1       4.035  -2.293   3.389  0.00  0.00    +0.169 HD
ATOM     11  C   UNL     1       3.780  -1.026   1.852  0.00  0.00    +0.251 A 
ATOM     12  O   UNL     1       3.148  -1.822   1.180  0.00  0.00    -0.268 OA
ATOM     13  C   UNL     1       4.027   0.263   1.338  0.00  0.00    +0.011 A 
ATOM     14  O   UNL     1       6.553  -0.428   7.117  0.00  0.00    -0.485 OA
ATOM     15  C   UNL     1       7.590   0.353   7.720  0.00  0.00    +0.270 C 
ATOM     16  C   UNL     1       7.217   1.835   7.584  0.00  0.00    +0.270 C 
ATOM     17  O   UNL     1       7.100   2.142   6.191  0.00  0.00    -0.485 OA
ENDBRANCH   1  13
BRANCH   1  24
ATOM     18  C   UNL     1       5.459  -0.514  -0.915  0.00  0.00    -0.077 C 
ATOM     19  C   UNL     1       6.034  -1.285  -2.072  0.00  0.00    -0.019 C 
ATOM     20  C   UNL     1       6.512  -0.280  -3.141  0.00  0.00    -0.002 C 
ATOM     21  C   UNL     1       5.407   0.244  -3.936  0.00  0.00    -0.002 C 
ATOM     22  C   UNL     1       4.379   1.006  -3.074  0.00  0.00    -0.019 C 
ATOM     23  C   UNL     1       3.506   0.002  -2.373  0.00  0.00    -0.077 C 
ATOM     24  N   UNL     1       3.964  -0.376  -0.993  0.00  0.00    +0.389 N 
ATOM     25  H   UNL     1       3.542  -1.279  -0.747  0.00  0.00    -0.080 HD
ENDBRANCH   1  24
BRANCH   1  26
ATOM     26  C   UNL     1       2.005   0.637  -0.014  0.00  0.00    +0.143 A 
ATOM     27  N   UNL     1       1.223  -0.415  -0.012  0.00  0.00    -0.115 NA
ATOM     28  N   UNL     1       0.002  -0.004   0.002  0.00  0.00    -0.023 NA
ATOM     29  N   UNL     1      -0.015   1.283   0.009  0.00  0.00    -0.044 NA
ATOM     30  N   UNL     1       1.200   1.716  -0.000  0.00  0.00    -0.227 N 
BRANCH  30  31
ATOM     31  C   UNL     1       1.625   3.118   0.003  0.00  0.00    +0.111 C 
ATOM     32  C   UNL     1       1.095   3.808   1.261  0.00  0.00    +0.027 C 
ATOM     33  C   UNL     1       1.538   5.273   1.264  0.00  0.00    +0.002 C 
ATOM     34  C   UNL     1       0.984   5.976   0.024  0.00  0.00    +0.000 C 
ATOM     35  C   UNL     1       1.514   5.286  -1.234  0.00  0.00    +0.002 C 
ATOM     36  C   UNL     1       1.070   3.821  -1.237  0.00  0.00    +0.027 C 
ENDBRANCH  30  31
ENDBRANCH   1  26
TORSDOF 4
