REMARK  Name = ZINC67471214
REMARK  4 active torsions:
REMARK  status: ('A' for Active; 'I' for Inactive)
REMARK    1  A    between atoms: C_1  and  C_2
REMARK    2  A    between atoms: C_5  and  C_25
REMARK    3  A    between atoms: N_12  and  C_13
REMARK    4  A    between atoms: C_13  and  C_14
REMARK                            x       y       z     vdW  Elec       q    Type
REMARK                         _______ _______ _______ _____ _____    ______ ____
ROOT
ATOM      1  C   UNL     1      -0.018   1.525   0.006  0.00  0.00    +0.009 C 
ATOM      2  C   UNL     1       0.003  -0.005  -0.001  0.00  0.00    +0.004 C 
ATOM      3  C   UNL     1      -1.432  -0.536   0.010  0.00  0.00    +0.009 C 
ATOM      4  C   UNL     1      -1.413  -2.065  -0.030  0.00  0.00    +0.004 C 
ATOM      5  C   UNL     1      -0.691  -2.596   1.212  0.00  0.00    +0.112 C 
ATOM      6  N   UNL     1       0.639  -1.978   1.287  0.00  0.00    -0.285 N 
ATOM      7  C   UNL     1       0.741  -0.512   1.241  0.00  0.00    +0.112 C 
ATOM      8  C   UNL     1       1.746  -2.740   1.395  0.00  0.00    +0.302 C 
ATOM      9  O   UNL     1       1.644  -3.944   1.524  0.00  0.00    -0.253 OA
ATOM     10  N   UNL     1       2.965  -2.166   1.360  0.00  0.00    -0.295 N 
ATOM     11  C   UNL     1      -0.677  -2.534  -1.288  0.00  0.00    +0.009 C 
ATOM     12  H   UNL     1       3.046  -1.200   1.331  0.00  0.00    +0.151 HD
ENDROOT
BRANCH  10  13
ATOM     13  C   UNL     1       4.168  -3.002   1.366  0.00  0.00    +0.141 C 
BRANCH  13  14
ATOM     14  C   UNL     1       5.391  -2.123   1.322  0.00  0.00    -0.027 A 
ATOM     15  C   UNL     1       5.928  -1.750   0.104  0.00  0.00    +0.009 A 
ATOM     16  C   UNL     1       7.051  -0.943   0.056  0.00  0.00    +0.050 A 
ATOM     17  C   UNL     1       7.634  -0.508   1.234  0.00  0.00    +0.162 A 
ATOM     18  C   UNL     1       7.095  -0.882   2.457  0.00  0.00    +0.162 A 
ATOM     19  C   UNL     1       5.969  -1.686   2.501  0.00  0.00    +0.054 A 
ATOM     20  O   UNL     1       7.677  -0.447   3.612  0.00  0.00    -0.488 OA
ATOM     21  C   UNL     1       8.970  -0.983   3.900  0.00  0.00    +0.232 C 
ATOM     22  C   UNL     1      10.054  -0.190   3.187  0.00  0.00    +0.082 C 
ATOM     23  C   UNL     1       9.953  -0.302   1.674  0.00  0.00    +0.232 C 
ATOM     24  O   UNL     1       8.741   0.290   1.201  0.00  0.00    -0.488 OA
ENDBRANCH  13  14
ENDBRANCH  10  13
TORSDOF 2
