REMARK  Name = ZINC05246185
REMARK  10 active torsions:
REMARK  status: ('A' for Active; 'I' for Inactive)
REMARK    1  A    between atoms: C_1  and  C_2
REMARK    2  A    between atoms: C_6  and  O_8
REMARK    3  A    between atoms: O_8  and  C_9
REMARK    4  A    between atoms: C_9  and  C_11
REMARK    5  A    between atoms: C_9  and  C_12
REMARK    6  A    between atoms: N_14  and  C_15
REMARK    7  A    between atoms: C_17  and  C_22
REMARK    8  A    between atoms: C_17  and  C_23
REMARK    9  A    between atoms: C_18  and  C_20
REMARK   10  A    between atoms: C_18  and  C_21
REMARK                            x       y       z     vdW  Elec       q    Type
REMARK                         _______ _______ _______ _____ _____    ______ ____
ROOT
ATOM      1  C   UNL     1       5.098   3.834  -0.135  0.00  0.00    +0.255 C 
ATOM      2  C   UNL     1       5.697   4.041   1.258  0.00  0.00    +0.062 C 
ENDROOT
BRANCH   1   3
ATOM      3  C   UNL     1       6.021   2.968  -0.954  0.00  0.00    +0.254 C 
ATOM      4  O   UNL     1       5.626   1.909  -1.393  0.00  0.00    -0.272 OA
ATOM      5  N   UNL     1       7.283   3.371  -1.198  0.00  0.00    -0.310 N 
ATOM      6  H   UNL     1       7.598   4.218  -0.847  0.00  0.00    +0.149 HD
BRANCH   5   7
ATOM      7  C   UNL     1       8.182   2.527  -1.997  0.00  0.00    +0.070 C 
ATOM      8  C   UNL     1       8.868   1.515  -1.080  0.00  0.00    +0.009 C 
ATOM      9  C   UNL     1       9.827   0.638  -1.880  0.00  0.00    -0.072 C 
ATOM     10  C   UNL     1      10.217   2.549  -3.462  0.00  0.00    -0.072 C 
ATOM     11  C   UNL     1       9.255   3.404  -2.642  0.00  0.00    +0.009 C 
ATOM     12  C   UNL     1       9.537   2.123  -4.769  0.00  0.00    -0.010 C 
ATOM     13  C   UNL     1      11.422   3.438  -3.842  0.00  0.00    -0.010 C 
ATOM     14  C   UNL     1       9.027  -0.389  -2.691  0.00  0.00    -0.010 C 
ATOM     15  C   UNL     1      10.690  -0.150  -0.869  0.00  0.00    -0.010 C 
ATOM     16  N   UNL     1      10.788   1.381  -2.740  0.00  0.00    +0.386 N 
ATOM     17  H   UNL     1      11.161   0.727  -3.438  0.00  0.00    -0.084 HD
ATOM     18  H   UNL     1      11.552   1.718  -2.143  0.00  0.00    -0.084 HD
ENDBRANCH   5   7
ENDBRANCH   1   3
BRANCH   1  19
ATOM     19  O   UNL     1       3.825   3.195  -0.016  0.00  0.00    -0.479 OA
BRANCH  19  25
ATOM     20  C   UNL     1       2.043   7.642   0.898  0.00  0.00    +0.044 C 
ATOM     21  C   UNL     1       1.835   6.168   0.661  0.00  0.00    -0.043 A 
ATOM     22  C   UNL     1       0.556   5.649   0.677  0.00  0.00    +0.050 A 
ATOM     23  C   UNL     1       0.353   4.293   0.461  0.00  0.00    +0.143 A 
ATOM     24  C   UNL     1       1.458   3.456   0.226  0.00  0.00    +0.063 A 
ATOM     25  C   UNL     1       2.753   3.996   0.211  0.00  0.00    +0.133 A 
ATOM     26  C   UNL     1       2.929   5.351   0.430  0.00  0.00    +0.050 A 
ATOM     27  C   UNL     1       1.233   2.028  -0.001  0.00  0.00    -0.023 A 
ATOM     28  C   UNL     1      -0.041   1.563   0.026  0.00  0.00    +0.041 A 
ATOM     29  C   UNL     1      -1.105   2.462   0.264  0.00  0.00    +0.341 A 
ATOM     30  O   UNL     1      -2.247   2.038   0.281  0.00  0.00    -0.245 OA
ATOM     31  O   UNL     1      -0.892   3.770   0.474  0.00  0.00    -0.422 OA
ATOM     32  C   UNL     1      -0.054   0.071  -0.228  0.00  0.00    +0.043 C 
ATOM     33  C   UNL     1       1.400  -0.391   0.014  0.00  0.00    +0.010 C 
ATOM     34  C   UNL     1       2.199   0.898  -0.275  0.00  0.00    +0.037 C 
ENDBRANCH  19  25
ENDBRANCH   1  19
TORSDOF 4
