REMARK  Name = ZINC13216254
REMARK  9 active torsions:
REMARK  status: ('A' for Active; 'I' for Inactive)
REMARK    1  A    between atoms: C_1  and  C_2
REMARK    2  A    between atoms: C_5  and  C_36
REMARK    3  A    between atoms: C_7  and  N_8
REMARK    4  A    between atoms: C_9  and  C_23
REMARK    5  A    between atoms: C_11  and  C_16
REMARK    6  A    between atoms: C_16  and  C_18
REMARK    7  A    between atoms: C_28  and  O_29
REMARK    8  A    between atoms: O_29  and  C_30
REMARK    9  A    between atoms: C_32  and  C_35
REMARK                            x       y       z     vdW  Elec       q    Type
REMARK                         _______ _______ _______ _____ _____    ______ ____
ROOT
ATOM      1  N   UNL     1       0.130  -0.219   2.815  0.00  0.00    -0.253 N 
ATOM      2  C   UNL     1      -1.155   0.268   3.330  0.00  0.00    +0.153 C 
ATOM      3  C   UNL     1      -0.822   1.294   4.388  0.00  0.00    +0.080 C 
ATOM      4  C   UNL     1       0.528   1.367   4.450  0.00  0.00    +0.250 C 
ATOM      5  C   UNL     1       1.110   0.423   3.476  0.00  0.00    +0.292 C 
ATOM      6  O   UNL     1       2.300   0.252   3.296  0.00  0.00    -0.266 OA
ATOM      7  O   UNL     1       1.232   2.174   5.277  0.00  0.00    -0.282 OA
ENDROOT
BRANCH   2   8
ATOM      8  C   UNL     1      -1.935  -0.870   3.938  0.00  0.00    +0.023 A 
ATOM      9  C   UNL     1      -1.971  -1.023   5.309  0.00  0.00    +0.055 A 
ATOM     10  C   UNL     1      -2.687  -2.071   5.880  0.00  0.00    +0.125 A 
ATOM     11  C   UNL     1      -3.357  -2.960   5.049  0.00  0.00    +0.001 A 
ATOM     12  C   UNL     1      -3.326  -2.807   3.681  0.00  0.00    +0.053 A 
ATOM     13  C   UNL     1      -2.618  -1.755   3.117  0.00  0.00    +0.126 A 
ATOM     14  C   UNL     1      -4.016  -3.993   5.942  0.00  0.00    +0.083 C 
ATOM     15  C   UNL     1      -3.287  -3.765   7.288  0.00  0.00    +0.175 C 
ATOM     16  O   UNL     1      -2.863  -2.395   7.192  0.00  0.00    -0.488 OA
ATOM     17  C   UNL     1      -2.084  -4.702   7.418  0.00  0.00    +0.052 C 
BRANCH  13  18
ATOM     18  O   UNL     1      -2.588  -1.596   1.767  0.00  0.00    -0.495 OA
ATOM     19  C   UNL     1      -3.393  -2.487   0.992  0.00  0.00    +0.277 C 
ENDBRANCH  13  18
ENDBRANCH   2   8
BRANCH   1  26
ATOM     20  C   UNL     1       0.085   0.636   0.106  0.00  0.00    +0.045 C 
ATOM     21  C   UNL     1       0.289  -0.810   0.479  0.00  0.00    -0.029 A 
ATOM     22  C   UNL     1       0.468  -1.758  -0.511  0.00  0.00    +0.006 A 
ATOM     23  C   UNL     1       0.655  -3.084  -0.177  0.00  0.00    +0.015 A 
ATOM     24  C   UNL     1       0.666  -3.472   1.165  0.00  0.00    +0.065 A 
ATOM     25  C   UNL     1       0.486  -2.514   2.165  0.00  0.00    +0.039 A 
ATOM     26  C   UNL     1       0.304  -1.184   1.818  0.00  0.00    +0.041 A 
BRANCH  24  27
ATOM     27  C   UNL     1       0.866  -4.889   1.525  0.00  0.00    +0.387 C 
ATOM     28  O   UNL     1       1.023  -5.726   0.648  0.00  0.00    -0.241 OA
ATOM     29  O   UNL     1       0.875  -5.226   2.701  0.00  0.00    -0.241 OA
ENDBRANCH  24  27
ENDBRANCH   1  26
BRANCH   3  30
ATOM     30  C   UNL     1      -1.778   2.065   5.192  0.00  0.00    +0.230 C 
ATOM     31  O   UNL     1      -1.378   2.782   6.092  0.00  0.00    -0.283 OA
BRANCH  30  32
ATOM     32  C   UNL     1      -3.214   1.971   4.912  0.00  0.00    +0.175 A 
ATOM     33  C   UNL     1      -4.225   2.533   5.661  0.00  0.00    +0.053 A 
ATOM     34  C   UNL     1      -5.428   2.190   5.029  0.00  0.00    +0.042 A 
ATOM     35  C   UNL     1      -5.112   1.448   3.943  0.00  0.00    +0.196 A 
ATOM     36  O   UNL     1      -3.781   1.324   3.873  0.00  0.00    -0.460 OA
ENDBRANCH  30  32
ENDBRANCH   3  30
TORSDOF 6
