REMARK  Name = ZINC64717785
REMARK  4 active torsions:
REMARK  status: ('A' for Active; 'I' for Inactive)
REMARK    1  A    between atoms: C_4  and  C_7
REMARK    2  A    between atoms: C_7  and  C_8
REMARK    3  A    between atoms: C_8  and  N_9
REMARK    4  A    between atoms: C_12  and  C_18
REMARK                            x       y       z     vdW  Elec       q    Type
REMARK                         _______ _______ _______ _____ _____    ______ ____
ROOT
ATOM      1  N   UNL     1       5.450  -1.678   1.382  0.00  0.00    -0.260 N 
ATOM      2  C   UNL     1       5.462  -3.026   1.369  0.00  0.00    +0.265 A 
ATOM      3  O   UNL     1       4.415  -3.650   1.372  0.00  0.00    -0.267 OA
ATOM      4  C   UNL     1       6.692  -3.708   1.353  0.00  0.00    +0.100 A 
ATOM      5  C   UNL     1       7.849  -2.987   1.349  0.00  0.00    +0.263 A 
ATOM      6  N   UNL     1       7.791  -1.617   1.363  0.00  0.00    -0.274 N 
ATOM      7  C   UNL     1       6.603  -0.985   1.373  0.00  0.00    +0.332 A 
ATOM      8  O   UNL     1       6.571   0.231   1.380  0.00  0.00    -0.246 OA
ATOM      9  O   UNL     1       9.043  -3.617   1.334  0.00  0.00    -0.267 OA
ATOM     10  H   UNL     1       8.612  -1.099   1.361  0.00  0.00    +0.173 HD
ENDROOT
BRANCH   4  11
ATOM     11  C   UNL     1       6.730  -5.215   1.339  0.00  0.00    +0.121 C 
ATOM     12  C   UNL     1       6.133  -5.757   2.640  0.00  0.00    +0.128 C 
ATOM     13  C   UNL     1       6.053  -7.270   2.473  0.00  0.00    -0.035 C 
ATOM     14  C   UNL     1       6.686  -7.797   3.511  0.00  0.00    +0.001 A 
ATOM     15  C   UNL     1       6.869  -9.191   3.946  0.00  0.00    +0.030 A 
ATOM     16  C   UNL     1       7.603  -9.376   5.076  0.00  0.00    +0.042 A 
ATOM     17  C   UNL     1       8.167  -8.325   5.808  0.00  0.00    +0.022 A 
ATOM     18  C   UNL     1       8.044  -7.013   5.484  0.00  0.00    +0.027 A 
ATOM     19  C   UNL     1       7.290  -6.692   4.318  0.00  0.00    +0.043 A 
ATOM     20  N   UNL     1       6.994  -5.517   3.797  0.00  0.00    -0.376 N 
ATOM     21 CL   UNL     1       7.853 -10.999   5.639  0.00  0.00    -0.084 Cl
ATOM     22  C   UNL     1       5.428  -7.900   1.251  0.00  0.00    +0.048 C 
ATOM     23  C   UNL     1       6.031  -7.172   0.036  0.00  0.00    +0.086 C 
ATOM     24  N   UNL     1       5.928  -5.721   0.214  0.00  0.00    -0.307 NA
ATOM     25  H   UNL     1       4.964  -5.435   0.300  0.00  0.00    +0.123 HD
ATOM     26  H   UNL     1       7.291  -4.649   4.113  0.00  0.00    +0.160 HD
ENDBRANCH   4  11
BRANCH   1  27
ATOM     27  C   UNL     1       4.171  -0.963   1.399  0.00  0.00    +0.134 C 
BRANCH  27  28
ATOM     28  C   UNL     1       3.711  -0.707  -0.038  0.00  0.00    +0.057 C 
BRANCH  28  32
ATOM     29  C   UNL     1      -0.017   1.378   0.010  0.00  0.00    +0.000 A 
ATOM     30  C   UNL     1       1.171   2.086   0.002  0.00  0.00    +0.000 A 
ATOM     31  C   UNL     1       2.377   1.411  -0.013  0.00  0.00    +0.004 A 
ATOM     32  C   UNL     1       2.396   0.029  -0.020  0.00  0.00    -0.046 A 
ATOM     33  C   UNL     1       1.208  -0.679  -0.012  0.00  0.00    +0.004 A 
ATOM     34  C   UNL     1       0.002  -0.004   0.002  0.00  0.00    +0.000 A 
ENDBRANCH  28  32
ENDBRANCH  27  28
ENDBRANCH   1  27
TORSDOF 4
