REMARK  Name = ZINC27099818
REMARK  11 active torsions:
REMARK  status: ('A' for Active; 'I' for Inactive)
REMARK    1  A    between atoms: C_1  and  C_2
REMARK    2  A    between atoms: C_2  and  O_3
REMARK    3  A    between atoms: O_3  and  C_4
REMARK    4  A    between atoms: C_4  and  C_6
REMARK    5  A    between atoms: C_9  and  O_12
REMARK    6  A    between atoms: O_12  and  C_13
REMARK    7  A    between atoms: C_14  and  C_38
REMARK    8  A    between atoms: C_22  and  O_37
REMARK    9  A    between atoms: C_23  and  C_24
REMARK   10  A    between atoms: C_24  and  N_25
REMARK   11  A    between atoms: N_28  and  C_31
REMARK                            x       y       z     vdW  Elec       q    Type
REMARK                         _______ _______ _______ _____ _____    ______ ____
ROOT
ATOM      1  C   UNL     1      -1.175   3.408   0.026  0.00  0.00    +0.213 A 
ATOM      2  C   UNL     1      -1.167   4.092  -1.135  0.00  0.00    +0.148 A 
ATOM      3  O   UNL     1      -1.141   5.431  -1.187  0.00  0.00    -0.456 OA
ATOM      4  C   UNL     1      -1.121   6.196  -0.077  0.00  0.00    +0.144 A 
ATOM      5  C   UNL     1      -1.127   5.589   1.191  0.00  0.00    +0.068 A 
ATOM      6  C   UNL     1      -1.161   4.118   1.260  0.00  0.00    +0.235 A 
ATOM      7  O   UNL     1      -1.172   3.532   2.330  0.00  0.00    -0.283 OA
ATOM      8  C   UNL     1      -1.107   6.371   2.346  0.00  0.00    +0.019 A 
ATOM      9  C   UNL     1      -1.081   7.733   2.242  0.00  0.00    +0.046 A 
ATOM     10  C   UNL     1      -1.075   8.343   0.990  0.00  0.00    +0.122 A 
ATOM     11  C   UNL     1      -1.095   7.581  -0.166  0.00  0.00    +0.020 A 
ATOM     12  C   UNL     1      -1.187   3.320  -2.429  0.00  0.00    +0.090 C 
ENDROOT
BRANCH  10  13
ATOM     13  O   UNL     1      -1.050   9.698   0.902  0.00  0.00    -0.506 OA
ATOM     14  H   UNL     1      -1.046  10.185  -0.084  0.00  0.00    +0.292 HD
ENDBRANCH  10  13
BRANCH   1  15
ATOM     15  O   UNL     1      -1.202   2.047   0.019  0.00  0.00    -0.449 OA
BRANCH  15  19
ATOM     16  C   UNL     1       2.404   0.037  -0.021  0.00  0.00    +0.059 A 
ATOM     17  C   UNL     1       1.202  -0.678  -0.013  0.00  0.00    +0.018 A 
ATOM     18  C   UNL     1       0.002  -0.004   0.002  0.00  0.00    +0.047 A 
ATOM     19  C   UNL     1      -0.017   1.386   0.010  0.00  0.00    +0.129 A 
ATOM     20  C   UNL     1       1.176   2.102   0.002  0.00  0.00    +0.047 A 
ATOM     21  C   UNL     1       2.380   1.435  -0.013  0.00  0.00    +0.018 A 
BRANCH  16  22
ATOM     22  C   UNL     1       3.691  -0.680  -0.036  0.00  0.00    +0.339 C 
ATOM     23  O   UNL     1       3.710  -1.895  -0.043  0.00  0.00    -0.245 OA
BRANCH  22  24
ATOM     24  O   UNL     1       4.848   0.011  -0.044  0.00  0.00    -0.461 OA
BRANCH  24  26
ATOM     25  C   UNL     1       7.277   0.189  -0.066  0.00  0.00    +0.048 C 
ATOM     26  C   UNL     1       6.077  -0.761  -0.059  0.00  0.00    +0.229 C 
ENDBRANCH  24  26
ENDBRANCH  22  24
ENDBRANCH  16  22
ENDBRANCH  15  19
ENDBRANCH   1  15
BRANCH  11  27
ATOM     27  C   UNL     1      -1.089   8.252  -1.515  0.00  0.00    -0.035 C 
BRANCH  27  28
ATOM     28  N   UNL     1      -2.472   8.497  -1.947  0.00  0.00    +0.385 N 
ATOM     29  C   UNL     1      -3.178   7.232  -2.193  0.00  0.00    -0.059 C 
ATOM     30  C   UNL     1      -4.634   7.527  -2.562  0.00  0.00    +0.086 C 
ATOM     31  N   UNL     1      -4.669   8.387  -3.753  0.00  0.00    -0.333 N 
ATOM     32  C   UNL     1      -3.963   9.652  -3.508  0.00  0.00    +0.086 C 
ATOM     33  C   UNL     1      -2.507   9.357  -3.138  0.00  0.00    -0.059 C 
ATOM     34  H   UNL     1      -2.991   9.023  -1.132  0.00  0.00    -0.081 HD
BRANCH  31  35
ATOM     35  C   UNL     1      -5.984   8.620  -4.164  0.00  0.00    +0.030 A 
ATOM     36  C   UNL     1      -6.456   9.921  -4.283  0.00  0.00    +0.023 A 
ATOM     37  C   UNL     1      -7.755  10.147  -4.694  0.00  0.00    +0.002 A 
ATOM     38  C   UNL     1      -8.589   9.080  -4.976  0.00  0.00    +0.000 A 
ATOM     39  C   UNL     1      -8.124   7.784  -4.853  0.00  0.00    +0.002 A 
ATOM     40  C   UNL     1      -6.824   7.550  -4.448  0.00  0.00    +0.023 A 
ENDBRANCH  31  35
ENDBRANCH  27  28
ENDBRANCH  11  27
TORSDOF 9
