REMARK  Name = ZINC35528209
REMARK  9 active torsions:
REMARK  status: ('A' for Active; 'I' for Inactive)
REMARK    1  A    between atoms: C_1  and  C_2
REMARK    2  A    between atoms: C_8  and  N_10
REMARK    3  A    between atoms: C_11  and  C_13
REMARK    4  A    between atoms: C_13  and  C_36
REMARK    5  A    between atoms: N_25  and  C_26
REMARK    6  A    between atoms: C_28  and  O_34
REMARK    7  A    between atoms: C_31  and  O_32
REMARK    8  A    between atoms: O_32  and  C_33
REMARK    9  A    between atoms: O_34  and  C_35
REMARK                            x       y       z     vdW  Elec       q    Type
REMARK                         _______ _______ _______ _____ _____    ______ ____
ROOT
ATOM      1  C   UNL     1       0.185   0.481   4.954  0.00  0.00    +0.133 C 
ATOM      2  C   UNL     1       1.089   0.041   6.106  0.00  0.00    +0.158 C 
ATOM      3  N   UNL     1       0.950  -1.405   6.298  0.00  0.00    -0.333 N 
ATOM      4  C   UNL     1       1.877  -2.309   6.785  0.00  0.00    +0.057 A 
ATOM      5  C   UNL     1       3.199  -2.320   7.250  0.00  0.00    +0.034 A 
ATOM      6  C   UNL     1       3.766  -3.474   7.658  0.00  0.00    +0.048 A 
ATOM      7  S   UNL     1       2.456  -4.661   7.414  0.00  0.00    -0.095 S 
ATOM      8  C   UNL     1       1.225  -3.552   6.780  0.00  0.00    +0.038 A 
ATOM      9  C   UNL     1      -0.068  -3.397   6.293  0.00  0.00    +0.048 A 
ATOM     10  C   UNL     1      -0.229  -2.077   5.993  0.00  0.00    +0.107 A 
ATOM     11  C   UNL     1      -1.378  -1.359   5.429  0.00  0.00    +0.268 C 
ATOM     12  O   UNL     1      -2.469  -1.886   5.311  0.00  0.00    -0.268 OA
ATOM     13  N   UNL     1      -1.158  -0.078   5.049  0.00  0.00    -0.247 N 
ATOM     14  C   UNL     1       0.086   2.008   4.962  0.00  0.00    +0.044 C 
ENDROOT
BRANCH  13  15
ATOM     15  C   UNL     1      -2.255   0.734   4.736  0.00  0.00    +0.083 A 
ATOM     16  C   UNL     1      -2.668   0.867   3.419  0.00  0.00    +0.072 A 
ATOM     17  C   UNL     1      -3.754   1.672   3.112  0.00  0.00    +0.122 A 
ATOM     18  C   UNL     1      -4.428   2.344   4.122  0.00  0.00    +0.049 A 
ATOM     19  C   UNL     1      -4.018   2.213   5.436  0.00  0.00    +0.051 A 
ATOM     20  C   UNL     1      -2.936   1.406   5.748  0.00  0.00    +0.142 A 
BRANCH  20  21
ATOM     21  O   UNL     1      -2.537   1.274   7.042  0.00  0.00    -0.493 OA
ATOM     22  C   UNL     1      -3.282   1.992   8.028  0.00  0.00    +0.277 C 
ENDBRANCH  20  21
BRANCH  17  23
ATOM     23  O   UNL     1      -4.160   1.803   1.821  0.00  0.00    -0.495 OA
ATOM     24  C   UNL     1      -5.286   2.648   1.577  0.00  0.00    +0.277 C 
ENDBRANCH  17  23
ENDBRANCH  13  15
BRANCH   1  26
ATOM     25  N   UNL     1       0.516  -1.174   3.146  0.00  0.00    -0.310 N 
ATOM     26  C   UNL     1       0.805   0.041   3.653  0.00  0.00    +0.239 C 
ATOM     27  O   UNL     1       1.564   0.780   3.063  0.00  0.00    -0.273 OA
ATOM     28  H   UNL     1      -0.144  -1.736   3.580  0.00  0.00    +0.149 HD
BRANCH  25  35
ATOM     29  C   UNL     1      -1.005  -2.204   0.908  0.00  0.00    +0.009 C 
ATOM     30  C   UNL     1       0.373  -2.752   1.283  0.00  0.00    +0.006 C 
ATOM     31  C   UNL     1       0.209  -3.915   2.264  0.00  0.00    +0.005 C 
ATOM     32  C   UNL     1       1.588  -4.463   2.640  0.00  0.00    +0.000 C 
ATOM     33  C   UNL     1       2.415  -3.356   3.295  0.00  0.00    +0.002 C 
ATOM     34  C   UNL     1       2.579  -2.192   2.315  0.00  0.00    +0.022 C 
ATOM     35  C   UNL     1       1.200  -1.645   1.939  0.00  0.00    +0.076 C 
ENDBRANCH  25  35
ENDBRANCH   1  26
TORSDOF 5
