REMARK  Name = ZINC27100056
REMARK  14 active torsions:
REMARK  status: ('A' for Active; 'I' for Inactive)
REMARK    1  A    between atoms: C_1  and  C_2
REMARK    2  A    between atoms: C_2  and  O_3
REMARK    3  A    between atoms: O_3  and  C_4
REMARK    4  A    between atoms: C_4  and  C_6
REMARK    5  A    between atoms: C_9  and  O_12
REMARK    6  A    between atoms: O_12  and  C_13
REMARK    7  A    between atoms: C_14  and  C_33
REMARK    8  A    between atoms: C_22  and  O_32
REMARK    9  A    between atoms: C_23  and  C_24
REMARK   10  A    between atoms: C_24  and  N_25
REMARK   11  A    between atoms: N_25  and  C_26
REMARK   12  A    between atoms: N_25  and  C_29
REMARK   13  A    between atoms: C_26  and  C_27
REMARK   14  A    between atoms: C_29  and  C_30
REMARK                            x       y       z     vdW  Elec       q    Type
REMARK                         _______ _______ _______ _____ _____    ______ ____
ROOT
ATOM      1  C   UNL     1      -1.539   3.244  -0.506  0.00  0.00    +0.213 A 
ATOM      2  C   UNL     1      -1.575   4.000  -1.622  0.00  0.00    +0.148 A 
ATOM      3  O   UNL     1      -1.423   5.330  -1.601  0.00  0.00    -0.456 OA
ATOM      4  C   UNL     1      -1.224   6.018  -0.459  0.00  0.00    +0.144 A 
ATOM      5  C   UNL     1      -1.169   5.332   0.768  0.00  0.00    +0.068 A 
ATOM      6  C   UNL     1      -1.339   3.868   0.758  0.00  0.00    +0.235 A 
ATOM      7  O   UNL     1      -1.306   3.218   1.790  0.00  0.00    -0.283 OA
ATOM      8  C   UNL     1      -0.963   6.032   1.957  0.00  0.00    +0.019 A 
ATOM      9  C   UNL     1      -0.814   7.389   1.927  0.00  0.00    +0.046 A 
ATOM     10  C   UNL     1      -0.868   8.077   0.717  0.00  0.00    +0.122 A 
ATOM     11  C   UNL     1      -1.071   7.397  -0.472  0.00  0.00    +0.020 A 
ATOM     12  C   UNL     1      -1.793   3.318  -2.948  0.00  0.00    +0.090 C 
ENDROOT
BRANCH  10  13
ATOM     13  O   UNL     1      -0.719   9.426   0.703  0.00  0.00    -0.506 OA
ATOM     14  H   UNL     1      -0.760   9.974  -0.250  0.00  0.00    +0.292 HD
ENDBRANCH  10  13
BRANCH   1  15
ATOM     15  O   UNL     1      -1.700   1.895  -0.587  0.00  0.00    -0.449 OA
BRANCH  15  19
ATOM     16  C   UNL     1       1.672  -0.429  -1.101  0.00  0.00    +0.059 A 
ATOM     17  C   UNL     1       0.413  -1.030  -1.012  0.00  0.00    +0.018 A 
ATOM     18  C   UNL     1      -0.709  -0.252  -0.839  0.00  0.00    +0.047 A 
ATOM     19  C   UNL     1      -0.591   1.131  -0.752  0.00  0.00    +0.129 A 
ATOM     20  C   UNL     1       0.659   1.733  -0.839  0.00  0.00    +0.047 A 
ATOM     21  C   UNL     1       1.786   0.961  -1.013  0.00  0.00    +0.018 A 
BRANCH  16  22
ATOM     22  C   UNL     1       2.877  -1.260  -1.286  0.00  0.00    +0.339 C 
ATOM     23  O   UNL     1       2.776  -2.468  -1.362  0.00  0.00    -0.245 OA
BRANCH  22  24
ATOM     24  O   UNL     1       4.089  -0.678  -1.371  0.00  0.00    -0.461 OA
BRANCH  24  26
ATOM     25  C   UNL     1       6.511  -0.722  -1.627  0.00  0.00    +0.048 C 
ATOM     26  C   UNL     1       5.230  -1.557  -1.554  0.00  0.00    +0.229 C 
ENDBRANCH  24  26
ENDBRANCH  22  24
ENDBRANCH  16  22
ENDBRANCH  15  19
ENDBRANCH   1  15
BRANCH  11  27
ATOM     27  C   UNL     1      -1.127   8.151  -1.776  0.00  0.00    -0.035 C 
BRANCH  27  28
ATOM     28  N   UNL     1      -2.530   8.380  -2.148  0.00  0.00    +0.387 N 
ATOM     29  H   UNL     1      -3.081   7.443  -1.981  0.00  0.00    -0.080 HD
BRANCH  28  30
ATOM     30  C   UNL     1      -3.136   9.418  -1.304  0.00  0.00    -0.051 C 
BRANCH  30  31
ATOM     31  C   UNL     1      -2.460  10.739  -1.569  0.00  0.00    -0.053 C 
ATOM     32  C   UNL     1      -3.172  11.778  -1.931  0.00  0.00    +0.002 C 
ENDBRANCH  30  31
ENDBRANCH  28  30
BRANCH  28  33
ATOM     33  C   UNL     1      -2.646   8.725  -3.572  0.00  0.00    -0.051 C 
BRANCH  33  34
ATOM     34  C   UNL     1      -4.081   8.576  -4.008  0.00  0.00    -0.053 C 
ATOM     35  C   UNL     1      -4.702   9.583  -4.572  0.00  0.00    +0.002 C 
ENDBRANCH  33  34
ENDBRANCH  28  33
ENDBRANCH  27  28
ENDBRANCH  11  27
TORSDOF 12
