REMARK  Name = ZINC05200899
REMARK  6 active torsions:
REMARK  status: ('A' for Active; 'I' for Inactive)
REMARK    1  A    between atoms: C_1  and  C_2
REMARK    2  A    between atoms: C_5  and  C_8
REMARK    3  A    between atoms: C_11  and  C_29
REMARK    4  A    between atoms: C_16  and  C_18
REMARK    5  A    between atoms: N_20  and  C_21
REMARK    6  A    between atoms: N_20  and  C_22
REMARK                            x       y       z     vdW  Elec       q    Type
REMARK                         _______ _______ _______ _____ _____    ______ ____
ROOT
ATOM      1  C   UNL     1      -0.158  -2.918   0.227  0.00  0.00    +0.104 C 
ATOM      2  C   UNL     1       1.265  -3.477   0.324  0.00  0.00    +0.063 C 
ATOM      3  C   UNL     1       1.849  -3.180   1.710  0.00  0.00    +0.215 C 
ATOM      4  N   UNL     1       0.885  -3.599   2.731  0.00  0.00    -0.238 N 
ATOM      5  C   UNL     1      -0.443  -3.799   2.482  0.00  0.00    +0.119 A 
ATOM      6  C   UNL     1      -1.033  -4.179   3.633  0.00  0.00    +0.078 A 
ATOM      7  C   UNL     1      -0.035  -4.214   4.633  0.00  0.00    +0.149 A 
ATOM      8  N   UNL     1       1.113  -3.864   4.081  0.00  0.00    -0.164 NA
ATOM      9  N   UNL     1      -1.009  -3.613   1.213  0.00  0.00    -0.322 N 
ATOM     10  H   UNL     1      -1.902  -3.922   0.994  0.00  0.00    +0.148 HD
ENDROOT
BRANCH   1  15
ATOM     11  C   UNL     1      -0.103   2.748   1.366  0.00  0.00    +0.044 C 
ATOM     12  C   UNL     1      -0.117   1.270   1.069  0.00  0.00    -0.050 A 
ATOM     13  C   UNL     1      -0.168   0.829  -0.240  0.00  0.00    +0.004 A 
ATOM     14  C   UNL     1      -0.182  -0.526  -0.513  0.00  0.00    +0.006 A 
ATOM     15  C   UNL     1      -0.143  -1.440   0.524  0.00  0.00    -0.027 A 
ATOM     16  C   UNL     1      -0.091  -0.999   1.833  0.00  0.00    +0.006 A 
ATOM     17  C   UNL     1      -0.073   0.356   2.105  0.00  0.00    +0.004 A 
ENDBRANCH   1  15
BRANCH   7  18
ATOM     18  C   UNL     1      -0.240  -4.579   6.050  0.00  0.00    +0.267 C 
ATOM     19  O   UNL     1      -1.364  -4.770   6.472  0.00  0.00    -0.268 OA
ATOM     20  N   UNL     1       0.820  -4.701   6.874  0.00  0.00    -0.296 N 
ATOM     21  C   UNL     1       2.167  -4.398   6.385  0.00  0.00    +0.132 C 
BRANCH  20  22
ATOM     22  C   UNL     1       0.623  -5.135   8.259  0.00  0.00    +0.076 C 
ATOM     23  C   UNL     1       1.127  -4.047   9.211  0.00  0.00    +0.022 C 
ATOM     24  C   UNL     1       0.922  -4.501  10.658  0.00  0.00    +0.002 C 
ATOM     25  C   UNL     1       1.702  -5.794  10.902  0.00  0.00    +0.000 C 
ATOM     26  C   UNL     1       1.199  -6.881   9.951  0.00  0.00    +0.002 C 
ATOM     27  C   UNL     1       1.404  -6.428   8.504  0.00  0.00    +0.022 C 
ENDBRANCH  20  22
ENDBRANCH   7  18
BRANCH   3  28
ATOM     28  C   UNL     1       3.158  -3.951   1.890  0.00  0.00    +0.412 C 
ATOM     29  F   UNL     1       4.071  -3.557   0.906  0.00  0.00    -0.168 F 
ATOM     30  F   UNL     1       3.690  -3.678   3.155  0.00  0.00    -0.168 F 
ATOM     31  F   UNL     1       2.911  -5.323   1.774  0.00  0.00    -0.168 F 
ENDBRANCH   3  28
TORSDOF 4
