REMARK  Name = ZINC09925850
REMARK  8 active torsions:
REMARK  status: ('A' for Active; 'I' for Inactive)
REMARK    1  A    between atoms: C_1  and  C_2
REMARK    2  A    between atoms: C_5  and  C_8
REMARK    3  A    between atoms: N_13  and  N_14
REMARK    4  A    between atoms: C_15  and  C_16
REMARK    5  A    between atoms: C_19  and  O_22
REMARK    6  A    between atoms: O_22  and  S_23
REMARK    7  A    between atoms: S_23  and  C_26
REMARK    8  A    between atoms: C_29  and  C_32
REMARK                            x       y       z     vdW  Elec       q    Type
REMARK                         _______ _______ _______ _____ _____    ______ ____
ROOT
ATOM      1  C   UNL     1       2.944  -6.463  -0.059  0.00  0.00    -0.005 A 
ATOM      2  C   UNL     1       1.654  -6.999  -0.044  0.00  0.00    +0.013 A 
ATOM      3  C   UNL     1       1.478  -8.366  -0.054  0.00  0.00    +0.049 A 
ATOM      4  C   UNL     1       2.580  -9.210  -0.069  0.00  0.00    +0.157 A 
ATOM      5  C   UNL     1       3.865  -8.681  -0.078  0.00  0.00    +0.049 A 
ATOM      6  C   UNL     1       4.051  -7.316  -0.073  0.00  0.00    +0.013 A 
ENDROOT
BRANCH   1   8
ATOM      7  N   UNL     1       2.108  -4.210  -0.040  0.00  0.00    -0.188 NA
ATOM      8  C   UNL     1       3.138  -5.001  -0.053  0.00  0.00    +0.138 C 
BRANCH   7  14
ATOM      9  C   UNL     1       0.002  -0.004   0.002  0.00  0.00    +0.080 A 
ATOM     10  C   UNL     1      -1.169  -0.710   0.009  0.00  0.00    +0.077 A 
ATOM     11  S   UNL     1      -0.546  -2.386  -0.005  0.00  0.00    -0.059 S 
ATOM     12  C   UNL     1       1.194  -1.978  -0.020  0.00  0.00    +0.178 A 
ATOM     13  N   UNL     1       1.155  -0.657  -0.018  0.00  0.00    -0.224 NA
ATOM     14  N   UNL     1       2.292  -2.821  -0.034  0.00  0.00    -0.215 N 
ATOM     15  H   UNL     1       3.188  -2.450  -0.041  0.00  0.00    +0.176 HD
BRANCH   9  20
ATOM     16  C   UNL     1      -0.076   5.754   0.035  0.00  0.00    +0.044 C 
ATOM     17  C   UNL     1      -0.056   4.247   0.026  0.00  0.00    -0.050 A 
ATOM     18  C   UNL     1       1.153   3.575   0.010  0.00  0.00    +0.004 A 
ATOM     19  C   UNL     1       1.178   2.195   0.003  0.00  0.00    +0.010 A 
ATOM     20  C   UNL     1      -0.018   1.479   0.010  0.00  0.00    +0.001 A 
ATOM     21  C   UNL     1      -1.233   2.162   0.020  0.00  0.00    +0.010 A 
ATOM     22  C   UNL     1      -1.246   3.542   0.033  0.00  0.00    +0.004 A 
ENDBRANCH   9  20
ENDBRANCH   7  14
ENDBRANCH   1   8
BRANCH   4  23
ATOM     23  O   UNL     1       2.402 -10.557  -0.073  0.00  0.00    -0.342 OA
BRANCH  23  24
ATOM     24  S   UNL     1       2.333 -11.177   1.315  0.00  0.00    +0.151 S 
ATOM     25  O   UNL     1       2.357 -12.586   1.132  0.00  0.00    -0.131 OA
ATOM     26  O   UNL     1       3.293 -10.496   2.112  0.00  0.00    -0.131 OA
BRANCH  24  27
ATOM     27  C   UNL     1       0.752 -10.782   1.984  0.00  0.00    +0.128 A 
ATOM     28  C   UNL     1       0.583  -9.626   2.722  0.00  0.00    +0.031 A 
ATOM     29  C   UNL     1      -0.659  -9.314   3.244  0.00  0.00    +0.005 A 
ATOM     30  C   UNL     1      -1.729 -10.163   3.035  0.00  0.00    -0.050 A 
ATOM     31  C   UNL     1      -1.559 -11.322   2.300  0.00  0.00    +0.005 A 
ATOM     32  C   UNL     1      -0.319 -11.632   1.776  0.00  0.00    +0.031 A 
ATOM     33  C   UNL     1      -3.082  -9.826   3.607  0.00  0.00    +0.044 C 
ENDBRANCH  24  27
ENDBRANCH  23  24
ENDBRANCH   4  23
TORSDOF 6
