REMARK  Name = ZINC35844808
REMARK  14 active torsions:
REMARK  status: ('A' for Active; 'I' for Inactive)
REMARK    1  A    between atoms: C_1  and  C_2
REMARK    2  A    between atoms: C_2  and  C_3
REMARK    3  A    between atoms: C_3  and  C_5
REMARK    4  A    between atoms: C_3  and  N_6
REMARK    5  A    between atoms: N_6  and  C_7
REMARK    6  A    between atoms: N_6  and  C_15
REMARK    7  A    between atoms: C_7  and  C_8
REMARK    8  A    between atoms: C_15  and  C_16
REMARK    9  A    between atoms: N_18  and  C_19
REMARK   10  A    between atoms: N_18  and  C_27
REMARK   11  A    between atoms: C_19  and  C_20
REMARK   12  A    between atoms: C_20  and  C_21
REMARK   13  A    between atoms: C_27  and  C_28
REMARK   14  A    between atoms: C_31  and  C_33
REMARK                            x       y       z     vdW  Elec       q    Type
REMARK                         _______ _______ _______ _____ _____    ______ ____
ROOT
ATOM      1  C   UNL     1       2.619   2.170   0.483  0.00  0.00    +0.199 C 
ATOM      2  O   UNL     1       2.665   1.385   1.406  0.00  0.00    -0.278 OA
ATOM      3  N   UNL     1       2.642   3.496   0.724  0.00  0.00    -0.295 N 
ENDROOT
BRANCH   1   4
ATOM      4  C   UNL     1       2.538   1.664  -0.934  0.00  0.00    +0.020 C 
BRANCH   4   5
ATOM      5  N   UNL     1       2.381   0.203  -0.924  0.00  0.00    +0.390 N 
ATOM      6  H   UNL     1       3.111  -0.210  -0.363  0.00  0.00    -0.080 HD
BRANCH   5   7
ATOM      7  C   UNL     1       1.072  -0.144  -0.355  0.00  0.00    -0.071 C 
ATOM      8  C   UNL     1      -0.021   0.122  -1.392  0.00  0.00    -0.013 C 
BRANCH   7  10
ATOM      9  C   UNL     1       2.143  -1.889   1.077  0.00  0.00    +0.002 C 
ATOM     10  C   UNL     1       1.060  -1.625   0.029  0.00  0.00    -0.019 C 
ENDBRANCH   7  10
ENDBRANCH   5   7
BRANCH   5  11
ATOM     11  C   UNL     1       2.470  -0.309  -2.298  0.00  0.00    -0.042 C 
BRANCH  11  12
ATOM     12  C   UNL     1       2.535  -1.814  -2.270  0.00  0.00    -0.064 A 
ATOM     13  C   UNL     1       3.603  -2.448  -1.662  0.00  0.00    +0.003 A 
ATOM     14  C   UNL     1       3.664  -3.828  -1.635  0.00  0.00    +0.015 A 
ATOM     15  C   UNL     1       2.656  -4.576  -2.217  0.00  0.00    +0.018 A 
ATOM     16  C   UNL     1       1.588  -3.942  -2.825  0.00  0.00    +0.015 A 
ATOM     17  C   UNL     1       1.525  -2.561  -2.846  0.00  0.00    +0.003 A 
ATOM     18 BR   UNL     1       2.739  -6.465  -2.182  0.00  0.00    -0.050 Br
ENDBRANCH  11  12
ENDBRANCH   5  11
ENDBRANCH   4   5
ENDBRANCH   1   4
BRANCH   3  19
ATOM     19  C   UNL     1       2.721   3.989   2.101  0.00  0.00    +0.113 C 
BRANCH  19  20
ATOM     20  C   UNL     1       4.189   4.151   2.502  0.00  0.00    +0.054 C 
BRANCH  20  21
ATOM     21  C   UNL     1       4.270   4.657   3.918  0.00  0.00    -0.046 A 
ATOM     22  C   UNL     1       4.287   6.017   4.166  0.00  0.00    +0.004 A 
ATOM     23  C   UNL     1       4.362   6.482   5.466  0.00  0.00    +0.000 A 
ATOM     24  C   UNL     1       4.419   5.587   6.518  0.00  0.00    +0.000 A 
ATOM     25  C   UNL     1       4.401   4.227   6.270  0.00  0.00    +0.000 A 
ATOM     26  C   UNL     1       4.322   3.763   4.971  0.00  0.00    +0.004 A 
ENDBRANCH  20  21
ENDBRANCH  19  20
ENDBRANCH   3  19
BRANCH   3  27
ATOM     27  C   UNL     1       2.587   4.445  -0.391  0.00  0.00    +0.181 C 
BRANCH  27  28
ATOM     28  C   UNL     1       1.149   4.779  -0.696  0.00  0.00    +0.122 A 
ATOM     29  C   UNL     1       0.445   5.789  -0.153  0.00  0.00    +0.046 A 
ATOM     30  C   UNL     1      -0.850   5.735  -0.718  0.00  0.00    +0.045 A 
ATOM     31  C   UNL     1      -0.860   4.695  -1.572  0.00  0.00    +0.102 A 
ATOM     32  O   UNL     1       0.356   4.124  -1.558  0.00  0.00    -0.463 OA
ATOM     33  C   UNL     1      -2.033   4.251  -2.406  0.00  0.00    +0.086 C 
ENDBRANCH  27  28
ENDBRANCH   3  27
TORSDOF 11
