REMARK  Name = ZINC36354793
REMARK  6 active torsions:
REMARK  status: ('A' for Active; 'I' for Inactive)
REMARK    1  A    between atoms: C_1  and  C_2
REMARK    2  A    between atoms: C_2  and  C_3
REMARK    3  A    between atoms: C_2  and  C_4
REMARK    4  A    between atoms: C_18  and  C_27
REMARK    5  A    between atoms: C_19  and  C_20
REMARK    6  A    between atoms: N_32  and  C_33
REMARK                            x       y       z     vdW  Elec       q    Type
REMARK                         _______ _______ _______ _____ _____    ______ ____
ROOT
ATOM      1  C   UNL     1      -1.412  -0.526   0.013  0.00  0.00    -0.044 A 
ATOM      2  C   UNL     1      -2.245  -0.196   1.062  0.00  0.00    +0.006 A 
ATOM      3  C   UNL     1      -3.555  -0.645   1.127  0.00  0.00    +0.024 A 
ATOM      4  C   UNL     1      -4.006  -1.453   0.082  0.00  0.00    +0.041 A 
ATOM      5  C   UNL     1      -3.150  -1.780  -0.977  0.00  0.00    -0.005 A 
ATOM      6  C   UNL     1      -1.851  -1.325  -1.038  0.00  0.00    +0.010 A 
ATOM      7  C   UNL     1      -3.944  -2.643  -1.905  0.00  0.00    +0.115 C 
ATOM      8  C   UNL     1      -3.317  -4.032  -2.032  0.00  0.00    +0.122 C 
ATOM      9  C   UNL     1      -2.182  -4.017  -3.016  0.00  0.00    +0.219 C 
ATOM     10  O   UNL     1      -1.224  -4.731  -2.804  0.00  0.00    -0.275 OA
ATOM     11  N   UNL     1      -2.177  -3.252  -4.121  0.00  0.00    -0.284 N 
ATOM     12  C   UNL     1      -3.233  -2.318  -4.319  0.00  0.00    +0.054 A 
ATOM     13  C   UNL     1      -4.061  -2.031  -3.264  0.00  0.00    +0.032 A 
ATOM     14  S   UNL     1      -5.156  -0.911  -3.829  0.00  0.00    -0.083 S 
ATOM     15  C   UNL     1      -4.578  -0.773  -5.511  0.00  0.00    +0.110 A 
ATOM     16  C   UNL     1      -3.496  -1.663  -5.521  0.00  0.00    +0.025 A 
ATOM     17  C   UNL     1      -5.304  -2.749  -1.249  0.00  0.00    +0.236 C 
ATOM     18  O   UNL     1      -6.262  -3.362  -1.670  0.00  0.00    -0.274 OA
ATOM     19  N   UNL     1      -5.249  -2.032  -0.107  0.00  0.00    -0.273 N 
ATOM     20  C   UNL     1      -6.371  -1.884   0.822  0.00  0.00    +0.138 C 
ATOM     21  H   UNL     1      -1.464  -3.335  -4.774  0.00  0.00    +0.155 HD
ENDROOT
BRANCH  16  22
ATOM     22  C   UNL     1      -2.681  -1.893  -6.734  0.00  0.00    -0.015 A 
ATOM     23  C   UNL     1      -1.334  -1.527  -6.753  0.00  0.00    +0.010 A 
ATOM     24  C   UNL     1      -0.579  -1.745  -7.887  0.00  0.00    +0.020 A 
ATOM     25  C   UNL     1      -1.155  -2.325  -9.005  0.00  0.00    +0.041 A 
ATOM     26  C   UNL     1      -2.490  -2.690  -8.992  0.00  0.00    +0.020 A 
ATOM     27  C   UNL     1      -3.254  -2.483  -7.862  0.00  0.00    +0.010 A 
ATOM     28 CL   UNL     1      -0.198  -2.596 -10.428  0.00  0.00    -0.084 Cl
ENDBRANCH  16  22
BRANCH   1  30
ATOM     29  C   UNL     1      -0.019   1.526   0.010  0.00  0.00    +0.012 C 
ATOM     30  C   UNL     1       0.002  -0.004   0.002  0.00  0.00    +0.013 C 
ATOM     31  C   UNL     1       0.742  -0.511   1.242  0.00  0.00    +0.012 C 
ENDBRANCH   1  30
BRANCH  15  32
ATOM     32  C   UNL     1      -5.081   0.027  -6.561  0.00  0.00    +0.394 C 
ATOM     33  O   UNL     1      -6.048   0.755  -6.368  0.00  0.00    -0.240 OA
ATOM     34  O   UNL     1      -4.551  -0.007  -7.666  0.00  0.00    -0.240 OA
ENDBRANCH  15  32
TORSDOF 3
