REMARK  Name = ZINC39782319
REMARK  6 active torsions:
REMARK  status: ('A' for Active; 'I' for Inactive)
REMARK    1  A    between atoms: C_4  and  C_7
REMARK    2  A    between atoms: C_10  and  C_12
REMARK    3  A    between atoms: N_14  and  N_15
REMARK    4  A    between atoms: C_16  and  C_18
REMARK    5  A    between atoms: C_18  and  N_19
REMARK    6  A    between atoms: C_24  and  C_27
REMARK                            x       y       z     vdW  Elec       q    Type
REMARK                         _______ _______ _______ _____ _____    ______ ____
ROOT
ATOM      1  N   UNL     1       8.403  -4.514  -0.114  0.00  0.00    -0.233 N 
ATOM      2  C   UNL     1       9.746  -4.407  -0.123  0.00  0.00    +0.247 C 
ATOM      3  O   UNL     1      10.268  -3.312  -0.115  0.00  0.00    -0.273 OA
ATOM      4  H   UNL     1       7.986  -5.390  -0.120  0.00  0.00    +0.173 HD
ENDROOT
BRANCH   1   7
ATOM      5  C   UNL     1       6.265  -3.467  -0.086  0.00  0.00    +0.276 C 
ATOM      6  O   UNL     1       5.742  -4.565  -0.094  0.00  0.00    -0.267 OA
ATOM      7  N   UNL     1       7.609  -3.360  -0.096  0.00  0.00    -0.229 N 
ATOM      8  H   UNL     1       8.025  -2.484  -0.089  0.00  0.00    +0.173 HD
BRANCH   5  12
ATOM      9  C   UNL     1       3.689  -0.676  -0.038  0.00  0.00    +0.077 C 
ATOM     10  N   UNL     1       4.894  -0.155  -0.042  0.00  0.00    -0.153 NA
ATOM     11  N   UNL     1       5.836  -1.015  -0.058  0.00  0.00    -0.148 NA
ATOM     12  C   UNL     1       5.433  -2.258  -0.067  0.00  0.00    +0.132 C 
ATOM     13  C   UNL     1       3.916  -2.179  -0.048  0.00  0.00    +0.120 C 
BRANCH   9  17
ATOM     14  C   UNL     1      -0.017   1.380   0.010  0.00  0.00    +0.000 A 
ATOM     15  C   UNL     1       1.168   2.097   0.002  0.00  0.00    +0.001 A 
ATOM     16  C   UNL     1       2.377   1.436  -0.013  0.00  0.00    +0.010 A 
ATOM     17  C   UNL     1       2.406   0.036  -0.021  0.00  0.00    -0.002 A 
ATOM     18  C   UNL     1       1.203  -0.681  -0.013  0.00  0.00    +0.010 A 
ATOM     19  C   UNL     1       0.002  -0.004   0.002  0.00  0.00    +0.001 A 
ENDBRANCH   9  17
ENDBRANCH   5  12
ENDBRANCH   1   7
BRANCH   2  20
ATOM     20  C   UNL     1      10.601  -5.648  -0.142  0.00  0.00    +0.206 C 
BRANCH  20  21
ATOM     21  N   UNL     1      12.015  -5.268  -0.149  0.00  0.00    -0.273 N 
ATOM     22  C   UNL     1      12.673  -5.068  -1.437  0.00  0.00    +0.214 C 
ATOM     23  N   UNL     1      13.706  -4.021  -1.352  0.00  0.00    -0.322 N 
ATOM     24  C   UNL     1      14.451  -3.977  -0.198  0.00  0.00    +0.079 A 
ATOM     25  C   UNL     1      13.984  -4.494   1.018  0.00  0.00    +0.073 A 
ATOM     26  C   UNL     1      14.901  -4.352   2.137  0.00  0.00    +0.010 A 
ATOM     27  C   UNL     1      16.087  -3.746   1.859  0.00  0.00    +0.056 A 
ATOM     28  S   UNL     1      15.963  -3.375   0.120  0.00  0.00    -0.081 S 
ATOM     29  C   UNL     1      12.643  -5.113   1.035  0.00  0.00    +0.251 C 
ATOM     30  O   UNL     1      12.126  -5.474   2.077  0.00  0.00    -0.270 OA
ATOM     31  H   UNL     1      13.853  -3.392  -2.076  0.00  0.00    +0.148 HD
BRANCH  26  32
ATOM     32  C   UNL     1      14.566  -4.836   3.492  0.00  0.00    +0.021 A 
ATOM     33  C   UNL     1      15.306  -5.619   4.337  0.00  0.00    +0.016 A 
ATOM     34  C   UNL     1      14.780  -5.947   5.569  0.00  0.00    +0.008 A 
ATOM     35  C   UNL     1      13.550  -5.485   5.906  0.00  0.00    +0.046 A 
ATOM     36  S   UNL     1      13.093  -4.545   4.458  0.00  0.00    -0.097 S 
ENDBRANCH  26  32
ENDBRANCH  20  21
ENDBRANCH   2  20
TORSDOF 6
