REMARK  Name = ZINC04019021
REMARK  7 active torsions:
REMARK  status: ('A' for Active; 'I' for Inactive)
REMARK    1  A    between atoms: C_1  and  C_2
REMARK    2  A    between atoms: C_3  and  C_10
REMARK    3  A    between atoms: C_4  and  C_8
REMARK    4  A    between atoms: C_5  and  C_7
REMARK    5  A    between atoms: C_11  and  C_18
REMARK    6  A    between atoms: C_13  and  C_17
REMARK    7  A    between atoms: C_14  and  C_15
REMARK                            x       y       z     vdW  Elec       q    Type
REMARK                         _______ _______ _______ _____ _____    ______ ____
ROOT
ATOM      1  C   UNL     1       1.385   6.468   1.522  0.00  0.00    +0.087 C 
ATOM      2  C   UNL     1       1.328   5.208   0.697  0.00  0.00    +0.111 A 
ATOM      3  C   UNL     1       1.278   3.947   1.187  0.00  0.00    +0.041 A 
ATOM      4  C   UNL     1       1.238   3.061   0.007  0.00  0.00    +0.112 A 
ATOM      5  C   UNL     1       1.260   3.891  -1.075  0.00  0.00    +0.117 A 
ATOM      6  O   UNL     1       1.313   5.154  -0.644  0.00  0.00    -0.464 OA
ATOM      7  C   UNL     1       1.228   3.455  -2.518  0.00  0.00    +0.087 C 
ENDROOT
BRANCH   3   8
ATOM      8  C   UNL     1       1.270   3.541   2.614  0.00  0.00    +0.041 A 
ATOM      9  C   UNL     1       2.343   3.276   3.395  0.00  0.00    +0.111 A 
ATOM     10  O   UNL     1       1.916   2.942   4.623  0.00  0.00    -0.464 OA
ATOM     11  C   UNL     1       0.582   2.974   4.695  0.00  0.00    +0.117 A 
ATOM     12  C   UNL     1       0.089   3.347   3.479  0.00  0.00    +0.112 A 
ATOM     13  C   UNL     1      -0.240   2.658   5.917  0.00  0.00    +0.087 C 
ATOM     14  C   UNL     1       3.784   3.344   2.958  0.00  0.00    +0.087 C 
BRANCH  12  15
ATOM     15  C   UNL     1      -1.324   3.518   3.107  0.00  0.00    +0.390 C 
ATOM     16  O   UNL     1      -1.954   2.577   2.665  0.00  0.00    -0.240 OA
ATOM     17  O   UNL     1      -1.921   4.717   3.257  0.00  0.00    -0.240 OA
ENDBRANCH  12  15
ENDBRANCH   3   8
BRANCH   4  18
ATOM     18  C   UNL     1       1.181   1.591  -0.001  0.00  0.00    +0.390 C 
ATOM     19  O   UNL     1       2.210   0.943  -0.014  0.00  0.00    -0.240 OA
ATOM     20  O   UNL     1      -0.011   0.963   0.007  0.00  0.00    -0.240 OA
ENDBRANCH   4  18
TORSDOF 3
