REMARK  Name = ZINC36306693
REMARK  15 active torsions:
REMARK  status: ('A' for Active; 'I' for Inactive)
REMARK    1  A    between atoms: C_1  and  C_2
REMARK    2  A    between atoms: C_2  and  C_3
REMARK    3  A    between atoms: C_2  and  C_4
REMARK    4  A    between atoms: C_4  and  N_5
REMARK    5  A    between atoms: N_5  and  C_6
REMARK    6  A    between atoms: N_5  and  C_27
REMARK    7  A    between atoms: C_6  and  C_7
REMARK    8  A    between atoms: C_8  and  C_21
REMARK    9  A    between atoms: N_10  and  C_20
REMARK   10  A    between atoms: C_11  and  O_12
REMARK   11  A    between atoms: O_12  and  C_13
REMARK   12  A    between atoms: C_27  and  C_28
REMARK   13  A    between atoms: C_28  and  C_30
REMARK   14  A    between atoms: C_28  and  O_37
REMARK   15  A    between atoms: C_30  and  N_31
REMARK                            x       y       z     vdW  Elec       q    Type
REMARK                         _______ _______ _______ _____ _____    ______ ____
ROOT
ATOM      1  C   UNL     1       1.428   0.433  -3.356  0.00  0.00    +0.025 A 
ATOM      2  C   UNL     1       0.418  -0.315  -3.989  0.00  0.00    +0.098 A 
ATOM      3  N   UNL     1      -0.245   0.489  -4.792  0.00  0.00    -0.168 NA
ATOM      4  N   UNL     1       0.318   1.768  -4.696  0.00  0.00    -0.235 N 
ATOM      5  C   UNL     1       1.340   1.712  -3.804  0.00  0.00    +0.221 A 
ATOM      6  C   UNL     1      -0.123   2.959  -5.426  0.00  0.00    +0.176 C 
ENDROOT
BRANCH   2   7
ATOM      7  C   UNL     1       0.149  -1.761  -3.787  0.00  0.00    +0.002 A 
ATOM      8  C   UNL     1      -1.161  -2.217  -3.662  0.00  0.00    +0.010 A 
ATOM      9  C   UNL     1      -1.406  -3.562  -3.474  0.00  0.00    +0.001 A 
ATOM     10  C   UNL     1      -0.353  -4.457  -3.410  0.00  0.00    +0.000 A 
ATOM     11  C   UNL     1       0.950  -4.010  -3.534  0.00  0.00    +0.001 A 
ATOM     12  C   UNL     1       1.205  -2.667  -3.727  0.00  0.00    +0.010 A 
ENDBRANCH   2   7
BRANCH   1  13
ATOM     13  C   UNL     1       2.425  -0.089  -2.354  0.00  0.00    -0.035 C 
BRANCH  13  14
ATOM     14  N   UNL     1       1.952   0.202  -0.994  0.00  0.00    +0.384 N 
ATOM     15  H   UNL     1       1.812   1.196  -0.892  0.00  0.00    -0.081 HD
BRANCH  14  16
ATOM     16  C   UNL     1       0.682  -0.497  -0.758  0.00  0.00    -0.075 C 
BRANCH  16  18
ATOM     17  C   UNL     1      -0.242   1.422   0.547  0.00  0.00    +0.005 C 
ATOM     18  C   UNL     1       0.106  -0.067   0.593  0.00  0.00    -0.034 C 
ATOM     19  C   UNL     1      -1.157  -0.877   0.891  0.00  0.00    +0.005 C 
ENDBRANCH  16  18
ENDBRANCH  14  16
BRANCH  14  20
ATOM     20  C   UNL     1       2.951  -0.254  -0.019  0.00  0.00    -0.045 C 
BRANCH  20  21
ATOM     21  C   UNL     1       4.214   0.599  -0.147  0.00  0.00    +0.112 C 
BRANCH  21  22
ATOM     22  O   UNL     1       4.851   0.325  -1.396  0.00  0.00    -0.392 OA
ATOM     23  H   UNL     1       5.118  -0.598  -1.507  0.00  0.00    +0.210 HD
ENDBRANCH  21  22
BRANCH  21  24
ATOM     24  C   UNL     1       5.173   0.265   0.998  0.00  0.00    +0.114 C 
BRANCH  24  25
ATOM     25  N   UNL     1       6.376   1.102   0.890  0.00  0.00    -0.296 NA
ATOM     26  C   UNL     1       7.449   0.596   1.757  0.00  0.00    +0.112 C 
ATOM     27  C   UNL     1       8.700   1.458   1.568  0.00  0.00    +0.175 C 
ATOM     28  O   UNL     1       8.377   2.824   1.847  0.00  0.00    -0.377 OA
ATOM     29  C   UNL     1       7.336   3.349   1.020  0.00  0.00    +0.175 C 
ATOM     30  C   UNL     1       6.071   2.506   1.203  0.00  0.00    +0.112 C 
ENDBRANCH  24  25
ENDBRANCH  21  24
ENDBRANCH  20  21
ENDBRANCH  14  20
ENDBRANCH  13  14
ENDBRANCH   1  13
BRANCH   5  31
ATOM     31  O   UNL     1       2.133   2.748  -3.430  0.00  0.00    -0.435 OA
BRANCH  31  32
ATOM     32  C   UNL     1       3.223   3.025  -4.194  0.00  0.00    +0.165 A 
ATOM     33  C   UNL     1       3.439   2.330  -5.374  0.00  0.00    +0.049 A 
ATOM     34  C   UNL     1       4.548   2.614  -6.149  0.00  0.00    +0.004 A 
ATOM     35  C   UNL     1       5.442   3.590  -5.749  0.00  0.00    +0.003 A 
ATOM     36  C   UNL     1       5.230   4.285  -4.572  0.00  0.00    +0.042 A 
ATOM     37  C   UNL     1       4.119   4.009  -3.796  0.00  0.00    +0.165 A 
ATOM     38  F   UNL     1       3.909   4.692  -2.649  0.00  0.00    -0.202 F 
ENDBRANCH  31  32
ENDBRANCH   5  31
TORSDOF 12
