REMARK  Name = ZINC00811472
REMARK  6 active torsions:
REMARK  status: ('A' for Active; 'I' for Inactive)
REMARK    1  A    between atoms: C_4  and  C_7
REMARK    2  A    between atoms: C_7  and  C_25
REMARK    3  A    between atoms: C_9  and  C_11
REMARK    4  A    between atoms: N_13  and  N_14
REMARK    5  A    between atoms: C_15  and  C_16
REMARK    6  A    between atoms: C_21  and  N_22
REMARK                            x       y       z     vdW  Elec       q    Type
REMARK                         _______ _______ _______ _____ _____    ______ ____
ROOT
ATOM      1  C   UNL     1       8.726   1.820  -1.718  0.00  0.00    +0.033 C 
ATOM      2  C   UNL     1       8.406   2.385  -3.103  0.00  0.00    +0.031 C 
ATOM      3  C   UNL     1       7.759   2.998  -1.859  0.00  0.00    +0.093 C 
ENDROOT
BRANCH   1   7
ATOM      4  C   UNL     1      12.597   2.630  -0.103  0.00  0.00    +0.000 A 
ATOM      5  C   UNL     1      12.304   1.373  -0.599  0.00  0.00    +0.000 A 
ATOM      6  C   UNL     1      11.051   1.111  -1.121  0.00  0.00    +0.004 A 
ATOM      7  C   UNL     1      10.091   2.106  -1.148  0.00  0.00    -0.036 A 
ATOM      8  C   UNL     1      10.386   3.364  -0.658  0.00  0.00    +0.004 A 
ATOM      9  C   UNL     1      11.637   3.625  -0.131  0.00  0.00    +0.000 A 
ENDBRANCH   1   7
BRANCH   1  10
ATOM     10  C   UNL     1       8.140   0.478  -1.361  0.00  0.00    -0.036 A 
ATOM     11  C   UNL     1       7.438   0.322  -0.181  0.00  0.00    +0.004 A 
ATOM     12  C   UNL     1       6.897  -0.908   0.144  0.00  0.00    +0.000 A 
ATOM     13  C   UNL     1       7.067  -1.984  -0.706  0.00  0.00    +0.000 A 
ATOM     14  C   UNL     1       7.774  -1.830  -1.883  0.00  0.00    +0.000 A 
ATOM     15  C   UNL     1       8.311  -0.599  -2.211  0.00  0.00    +0.004 A 
ENDBRANCH   1  10
BRANCH   3  16
ATOM     16  C   UNL     1       6.294   2.726  -1.632  0.00  0.00    +0.236 C 
ATOM     17  O   UNL     1       5.790   1.713  -2.068  0.00  0.00    -0.274 OA
ATOM     18  N   UNL     1       5.544   3.610  -0.944  0.00  0.00    -0.207 N 
ATOM     19  H   UNL     1       5.947   4.420  -0.595  0.00  0.00    +0.177 HD
BRANCH  18  20
ATOM     20  N   UNL     1       4.182   3.357  -0.732  0.00  0.00    -0.188 NA
ATOM     21  C   UNL     1       3.460   4.208  -0.070  0.00  0.00    +0.140 C 
BRANCH  21  22
ATOM     22  C   UNL     1       2.027   3.942   0.153  0.00  0.00    +0.025 A 
ATOM     23  C   UNL     1       1.269   4.805   0.949  0.00  0.00    +0.012 A 
ATOM     24  C   UNL     1      -0.071   4.551   1.152  0.00  0.00    +0.001 A 
ATOM     25  C   UNL     1      -0.667   3.447   0.566  0.00  0.00    +0.002 A 
ATOM     26  C   UNL     1       0.079   2.586  -0.219  0.00  0.00    +0.033 A 
ATOM     27  C   UNL     1       1.421   2.828  -0.432  0.00  0.00    +0.135 A 
BRANCH  27  28
ATOM     28  N   UNL     1       2.215   1.909  -1.277  0.00  0.00    +0.057 N 
ATOM     29  O   UNL     1       2.897   2.352  -2.184  0.00  0.00    -0.126 OA
ATOM     30  O   UNL     1       2.188   0.710  -1.066  0.00  0.00    -0.126 OA
ENDBRANCH  27  28
ENDBRANCH  21  22
ENDBRANCH  18  20
ENDBRANCH   3  16
TORSDOF 6
