REMARK  Name = ZINC46010460
REMARK  6 active torsions:
REMARK  status: ('A' for Active; 'I' for Inactive)
REMARK    1  A    between atoms: C_1  and  C_2
REMARK    2  A    between atoms: C_5  and  N_9
REMARK    3  A    between atoms: N_12  and  C_13
REMARK    4  A    between atoms: N_22  and  C_23
REMARK    5  A    between atoms: C_23  and  C_24
REMARK    6  A    between atoms: C_23  and  C_25
REMARK                            x       y       z     vdW  Elec       q    Type
REMARK                         _______ _______ _______ _____ _____    ______ ____
ROOT
ATOM      1  N   UNL     1       0.790  -4.352  -0.137  0.00  0.00    -0.269 N 
ATOM      2  C   UNL     1       0.888  -5.088   0.988  0.00  0.00    +0.308 C 
ATOM      3  O   UNL     1       1.539  -4.676   1.929  0.00  0.00    -0.252 OA
ATOM      4  N   UNL     1       0.265  -6.280   1.069  0.00  0.00    -0.269 N 
ATOM      5  H   UNL     1       0.211  -4.644  -0.859  0.00  0.00    +0.156 HD
ATOM      6  H   UNL     1      -0.191  -6.644   0.294  0.00  0.00    +0.156 HD
ENDROOT
BRANCH   4   7
ATOM      7  C   UNL     1       0.276  -6.995   2.274  0.00  0.00    +0.038 A 
ATOM      8  C   UNL     1       0.266  -6.313   3.485  0.00  0.00    +0.025 A 
ATOM      9  C   UNL     1       0.276  -7.014   4.675  0.00  0.00    +0.031 A 
ATOM     10  C   UNL     1       0.296  -8.400   4.661  0.00  0.00    +0.091 A 
ATOM     11  C   UNL     1       0.307  -9.088   3.448  0.00  0.00    +0.159 A 
ATOM     12  C   UNL     1       0.291  -8.382   2.256  0.00  0.00    +0.072 A 
ATOM     13  O   UNL     1       0.327 -10.412   3.737  0.00  0.00    -0.407 OA
ATOM     14  C   UNL     1       0.329 -10.574   5.069  0.00  0.00    +0.421 A 
ATOM     15  O   UNL     1       0.345 -11.644   5.646  0.00  0.00    -0.223 OA
ATOM     16  N   UNL     1       0.311  -9.367   5.668  0.00  0.00    -0.272 N 
BRANCH  16  17
ATOM     17  C   UNL     1       0.308  -9.116   7.111  0.00  0.00    +0.088 C 
ATOM     18  C   UNL     1      -0.932  -9.757   7.738  0.00  0.00    +0.031 C 
ATOM     19  C   UNL     1       1.566  -9.721   7.737  0.00  0.00    +0.031 C 
ENDBRANCH  16  17
ENDBRANCH   4   7
BRANCH   1  24
ATOM     20  C   UNL     1       3.764   0.453  -0.652  0.00  0.00    +0.045 C 
ATOM     21  C   UNL     1       2.973  -0.823  -0.515  0.00  0.00    -0.032 A 
ATOM     22  C   UNL     1       3.496  -1.885   0.200  0.00  0.00    +0.006 A 
ATOM     23  C   UNL     1       2.774  -3.056   0.327  0.00  0.00    +0.024 A 
ATOM     24  C   UNL     1       1.522  -3.167  -0.264  0.00  0.00    +0.036 A 
ATOM     25  C   UNL     1       1.000  -2.099  -0.981  0.00  0.00    +0.043 A 
ATOM     26  C   UNL     1       1.724  -0.928  -1.101  0.00  0.00    +0.046 A 
ATOM     27 CL   UNL     1       1.069   0.410  -1.992  0.00  0.00    -0.083 Cl
ENDBRANCH   1  24
TORSDOF 3
