REMARK  Name = ZINC04747285
REMARK  4 active torsions:
REMARK  status: ('A' for Active; 'I' for Inactive)
REMARK    1  A    between atoms: C_1  and  C_2
REMARK    2  A    between atoms: C_3  and  C_18
REMARK    3  A    between atoms: C_18  and  N_20
REMARK    4  A    between atoms: N_20  and  C_21
REMARK                            x       y       z     vdW  Elec       q    Type
REMARK                         _______ _______ _______ _____ _____    ______ ____
ROOT
ATOM      1  C   UNL     1      -0.467   4.929  -1.895  0.00  0.00    +0.079 C 
ATOM      2  C   UNL     1      -0.226   3.922  -0.769  0.00  0.00    +0.185 C 
ATOM      3  C   UNL     1       0.968   3.028  -1.132  0.00  0.00    +0.128 C 
ATOM      4  C   UNL     1       1.074   1.959  -0.031  0.00  0.00    +0.120 C 
ATOM      5  C   UNL     1       1.145   2.662   1.306  0.00  0.00    +0.015 A 
ATOM      6  C   UNL     1       1.726   2.006   2.377  0.00  0.00    +0.009 A 
ATOM      7  C   UNL     1       1.799   2.623   3.611  0.00  0.00    +0.001 A 
ATOM      8  C   UNL     1       1.288   3.897   3.777  0.00  0.00    +0.004 A 
ATOM      9  C   UNL     1       0.709   4.554   2.712  0.00  0.00    +0.046 A 
ATOM     10  C   UNL     1       0.637   3.939   1.465  0.00  0.00    +0.128 A 
ATOM     11  O   UNL     1       0.076   4.622   0.435  0.00  0.00    -0.468 OA
ATOM     12  N   UNL     1      -0.173   1.176  -0.050  0.00  0.00    -0.319 N 
ATOM     13  C   UNL     1      -1.341   1.789  -0.305  0.00  0.00    +0.134 C 
ATOM     14  S   UNL     1      -2.785   0.872  -0.240  0.00  0.00    -0.019 S 
ATOM     15  N   UNL     1      -1.414   3.090  -0.601  0.00  0.00    -0.289 N 
ATOM     16  H   UNL     1      -0.150   0.221   0.116  0.00  0.00    +0.148 HD
ATOM     17  H   UNL     1      -2.290   3.492  -0.710  0.00  0.00    +0.151 HD
ENDROOT
BRANCH   3  18
ATOM     18  C   UNL     1       2.231   3.848  -1.177  0.00  0.00    +0.064 C 
ATOM     19  S   UNL     1       2.211   5.373  -0.697  0.00  0.00    -0.039 S 
BRANCH  18  20
ATOM     20  N   UNL     1       3.377   3.296  -1.621  0.00  0.00    -0.312 N 
ATOM     21  H   UNL     1       3.409   2.351  -1.837  0.00  0.00    +0.152 HD
BRANCH  20  22
ATOM     22  C   UNL     1       4.521   4.086  -1.771  0.00  0.00    +0.031 A 
ATOM     23  C   UNL     1       4.423   5.354  -2.329  0.00  0.00    +0.023 A 
ATOM     24  C   UNL     1       5.554   6.134  -2.471  0.00  0.00    +0.002 A 
ATOM     25  C   UNL     1       6.785   5.649  -2.069  0.00  0.00    +0.000 A 
ATOM     26  C   UNL     1       6.887   4.384  -1.519  0.00  0.00    +0.002 A 
ATOM     27  C   UNL     1       5.759   3.602  -1.369  0.00  0.00    +0.023 A 
ENDBRANCH  20  22
ENDBRANCH  18  20
ENDBRANCH   3  18
TORSDOF 3
