REMARK  Name = ZINC08610184
REMARK  6 active torsions:
REMARK  status: ('A' for Active; 'I' for Inactive)
REMARK    1  A    between atoms: C_1  and  C_2
REMARK    2  A    between atoms: C_2  and  O_3
REMARK    3  A    between atoms: O_3  and  C_4
REMARK    4  A    between atoms: C_9  and  N_10
REMARK    5  A    between atoms: N_19  and  C_29
REMARK    6  A    between atoms: C_29  and  C_30
REMARK                            x       y       z     vdW  Elec       q    Type
REMARK                         _______ _______ _______ _____ _____    ______ ____
ROOT
ATOM      1  N   UNL     1      -3.541  -0.805   0.139  0.00  0.00    -0.266 N 
ATOM      2  C   UNL     1      -4.702  -1.489   0.138  0.00  0.00    +0.307 C 
ATOM      3  O   UNL     1      -4.694  -2.700   0.251  0.00  0.00    -0.252 OA
ATOM      4  N   UNL     1      -5.870  -0.833   0.013  0.00  0.00    -0.285 N 
ATOM      5  C   UNL     1      -5.903   0.614  -0.238  0.00  0.00    +0.115 C 
ATOM      6  C   UNL     1      -6.799   1.299   0.789  0.00  0.00    +0.088 C 
ATOM      7  C   UNL     1      -8.141   0.609   0.985  0.00  0.00    +0.184 C 
ATOM      8  C   UNL     1      -7.963  -0.890   1.243  0.00  0.00    +0.088 C 
ATOM      9  C   UNL     1      -7.153  -1.541   0.122  0.00  0.00    +0.115 C 
ATOM     10  N   UNL     1      -9.081   0.827  -0.107  0.00  0.00    -0.255 N 
ATOM     11  C   UNL     1     -10.392   0.520   0.089  0.00  0.00    +0.253 C 
ATOM     12  O   UNL     1     -11.151   0.392  -0.847  0.00  0.00    -0.270 OA
ATOM     13  C   UNL     1     -10.859   0.394   1.484  0.00  0.00    +0.079 A 
ATOM     14  C   UNL     1     -12.147  -0.036   1.788  0.00  0.00    +0.017 A 
ATOM     15  C   UNL     1     -12.535  -0.141   3.109  0.00  0.00    +0.001 A 
ATOM     16  C   UNL     1     -11.649   0.177   4.125  0.00  0.00    +0.004 A 
ATOM     17  C   UNL     1     -10.368   0.607   3.834  0.00  0.00    +0.046 A 
ATOM     18  C   UNL     1      -9.965   0.722   2.514  0.00  0.00    +0.135 A 
ATOM     19  O   UNL     1      -8.723   1.159   2.192  0.00  0.00    -0.467 OA
ATOM     20  H   UNL     1      -3.549   0.165   0.114  0.00  0.00    +0.156 HD
ENDROOT
BRANCH   1  26
ATOM     21  C   UNL     1      -1.124  -0.807  -0.013  0.00  0.00    +0.142 A 
ATOM     22  C   UNL     1       0.079  -1.492   0.030  0.00  0.00    +0.047 A 
ATOM     23  C   UNL     1       0.090  -2.857   0.253  0.00  0.00    +0.004 A 
ATOM     24  C   UNL     1      -1.098  -3.541   0.434  0.00  0.00    +0.002 A 
ATOM     25  C   UNL     1      -2.303  -2.864   0.393  0.00  0.00    +0.027 A 
ATOM     26  C   UNL     1      -2.321  -1.494   0.175  0.00  0.00    +0.077 A 
BRANCH  21  27
ATOM     27  O   UNL     1      -1.137   0.535  -0.233  0.00  0.00    -0.490 OA
BRANCH  27  29
ATOM     28  C   UNL     1      -0.086   2.671  -0.650  0.00  0.00    +0.048 C 
ATOM     29  C   UNL     1       0.128   1.174  -0.418  0.00  0.00    +0.226 C 
ENDBRANCH  27  29
ENDBRANCH  21  27
ENDBRANCH   1  26
BRANCH  10  30
ATOM     30  C   UNL     1      -8.694   1.388  -1.399  0.00  0.00    +0.150 C 
BRANCH  30  31
ATOM     31  C   UNL     1      -9.386   2.712  -1.598  0.00  0.00    +0.005 A 
ATOM     32  C   UNL     1     -10.508   2.793  -2.401  0.00  0.00    +0.008 A 
ATOM     33  C   UNL     1     -11.142   4.007  -2.584  0.00  0.00    +0.000 A 
ATOM     34  C   UNL     1     -10.655   5.143  -1.964  0.00  0.00    +0.003 A 
ATOM     35  C   UNL     1      -9.534   5.065  -1.160  0.00  0.00    +0.038 A 
ATOM     36  C   UNL     1      -8.901   3.848  -0.972  0.00  0.00    +0.128 A 
ATOM     37  F   UNL     1      -7.807   3.770  -0.183  0.00  0.00    -0.205 F 
ENDBRANCH  30  31
ENDBRANCH  10  30
TORSDOF 5
