REMARK  Name = ZINC45520599
REMARK  11 active torsions:
REMARK  status: ('A' for Active; 'I' for Inactive)
REMARK    1  A    between atoms: C_1  and  C_2
REMARK    2  A    between atoms: C_5  and  C_8
REMARK    3  A    between atoms: C_8  and  N_9
REMARK    4  A    between atoms: N_12  and  C_13
REMARK    5  A    between atoms: C_13  and  C_15
REMARK    6  A    between atoms: C_13  and  C_19
REMARK    7  A    between atoms: C_15  and  C_16
REMARK    8  A    between atoms: C_16  and  C_17
REMARK    9  A    between atoms: C_16  and  C_18
REMARK   10  A    between atoms: N_21  and  C_22
REMARK   11  A    between atoms: C_22  and  C_23
REMARK                            x       y       z     vdW  Elec       q    Type
REMARK                         _______ _______ _______ _____ _____    ______ ____
ROOT
ATOM      1  C   UNL     1       3.103  -7.677   0.294  0.00  0.00    +0.161 C 
ENDROOT
BRANCH   1   5
ATOM      2  N   UNL     1       0.884  -4.751   0.431  0.00  0.00    -0.295 N 
ATOM      3  C   UNL     1       1.337  -6.001   0.211  0.00  0.00    +0.300 C 
ATOM      4  O   UNL     1       0.575  -6.863  -0.183  0.00  0.00    -0.253 OA
ATOM      5  N   UNL     1       2.634  -6.296   0.427  0.00  0.00    -0.288 N 
ATOM      6  H   UNL     1       1.492  -4.063   0.745  0.00  0.00    +0.151 HD
ATOM      7  H   UNL     1       3.257  -5.593   0.670  0.00  0.00    +0.151 HD
BRANCH   2   8
ATOM      8  C   UNL     1      -0.526  -4.430   0.196  0.00  0.00    +0.141 C 
BRANCH   8  13
ATOM      9  C   UNL     1      -1.468   1.138   1.418  0.00  0.00    +0.044 C 
ATOM     10  C   UNL     1      -1.222  -0.314   1.100  0.00  0.00    -0.050 A 
ATOM     11  C   UNL     1      -0.853  -0.688  -0.179  0.00  0.00    +0.003 A 
ATOM     12  C   UNL     1      -0.628  -2.020  -0.471  0.00  0.00    +0.005 A 
ATOM     13  C   UNL     1      -0.770  -2.978   0.515  0.00  0.00    -0.030 A 
ATOM     14  C   UNL     1      -1.138  -2.604   1.794  0.00  0.00    +0.005 A 
ATOM     15  C   UNL     1      -1.360  -1.271   2.087  0.00  0.00    +0.003 A 
ENDBRANCH   8  13
ENDBRANCH   2   8
ENDBRANCH   1   5
BRANCH   1  16
ATOM     16  C   UNL     1       4.284  -7.897   1.204  0.00  0.00    +0.234 C 
ATOM     17  O   UNL     1       4.909  -6.947   1.626  0.00  0.00    -0.274 OA
ATOM     18  N   UNL     1       4.645  -9.149   1.550  0.00  0.00    -0.310 N 
ATOM     19  H   UNL     1       4.190  -9.910   1.158  0.00  0.00    +0.149 HD
BRANCH  18  20
ATOM     20  C   UNL     1       5.724  -9.359   2.518  0.00  0.00    +0.141 C 
BRANCH  20  21
ATOM     21  C   UNL     1       5.929 -10.837   2.729  0.00  0.00    -0.014 A 
ATOM     22  C   UNL     1       5.221 -11.509   3.717  0.00  0.00    +0.010 A 
ATOM     23  C   UNL     1       5.439 -12.866   3.878  0.00  0.00    +0.042 A 
ATOM     24  C   UNL     1       6.354 -13.507   3.049  0.00  0.00    +0.099 A 
ATOM     25  N   UNL     1       7.009 -12.830   2.118  0.00  0.00    -0.349 N 
ATOM     26  C   UNL     1       6.817 -11.537   1.939  0.00  0.00    +0.089 A 
ATOM     27  N   UNL     1       6.583 -14.870   3.199  0.00  0.00    -0.312 N 
ATOM     28  C   UNL     1       7.643 -15.548   2.438  0.00  0.00    +0.134 C 
ATOM     29  C   UNL     1       8.500 -16.358   3.417  0.00  0.00    +0.178 C 
ATOM     30  O   UNL     1       7.650 -17.195   4.206  0.00  0.00    -0.377 OA
ATOM     31  C   UNL     1       6.720 -16.480   5.023  0.00  0.00    +0.178 C 
ATOM     32  C   UNL     1       5.776 -15.675   4.130  0.00  0.00    +0.134 C 
ATOM     33  H   UNL     1       7.643 -13.298   1.552  0.00  0.00    +0.167 HD
ENDBRANCH  20  21
ENDBRANCH  18  20
ENDBRANCH   1  16
BRANCH   1  34
ATOM     34  C   UNL     1       3.522  -7.937  -1.155  0.00  0.00    +0.034 C 
BRANCH  34  35
ATOM     35  C   UNL     1       3.887  -9.413  -1.324  0.00  0.00    -0.015 C 
ATOM     36  C   UNL     1       2.634 -10.272  -1.144  0.00  0.00    +0.007 C 
ATOM     37  C   UNL     1       4.464  -9.639  -2.723  0.00  0.00    +0.007 C 
ENDBRANCH  34  35
ENDBRANCH   1  34
TORSDOF 8
