REMARK  Name = ZINC01696240
REMARK  6 active torsions:
REMARK  status: ('A' for Active; 'I' for Inactive)
REMARK    1  A    between atoms: C_1  and  C_2
REMARK    2  A    between atoms: C_2  and  C_15
REMARK    3  A    between atoms: C_3  and  C_13
REMARK    4  A    between atoms: C_7  and  C_8
REMARK    5  A    between atoms: C_7  and  C_9
REMARK    6  A    between atoms: N_11  and  C_12
REMARK                            x       y       z     vdW  Elec       q    Type
REMARK                         _______ _______ _______ _____ _____    ______ ____
ROOT
ATOM      1  C   UNL     1      -0.542  -2.183   0.039  0.00  0.00    +0.013 C 
ATOM      2  C   UNL     1       0.982  -2.318   0.048  0.00  0.00    -0.008 C 
ATOM      3  C   UNL     1       1.422  -3.266   1.185  0.00  0.00    +0.109 C 
ATOM      4  C   UNL     1       2.735  -2.638   1.715  0.00  0.00    +0.016 C 
ATOM      5  C   UNL     1       2.442  -1.119   1.640  0.00  0.00    +0.017 C 
ATOM      6  C   UNL     1       1.631  -0.954   0.339  0.00  0.00    +0.050 C 
ATOM      7  C   UNL     1       2.559  -0.559  -0.811  0.00  0.00    +0.021 C 
ATOM      8  C   UNL     1       1.469  -2.854  -1.300  0.00  0.00    +0.013 C 
ENDROOT
BRANCH   6   9
ATOM      9  C   UNL     1       0.565   0.095   0.525  0.00  0.00    +0.219 C 
ATOM     10  O   UNL     1       0.394   0.600   1.614  0.00  0.00    -0.275 OA
ATOM     11  N   UNL     1      -0.199   0.472  -0.520  0.00  0.00    -0.318 N 
ATOM     12  C   UNL     1      -1.301   1.417  -0.318  0.00  0.00    +0.128 C 
ATOM     13  H   UNL     1      -0.022   0.116  -1.404  0.00  0.00    +0.148 HD
ENDBRANCH   6   9
BRANCH   3  14
ATOM     14  C   UNL     1       1.678  -4.651   0.650  0.00  0.00    +0.360 C 
ATOM     15  O   UNL     1       2.771  -4.943   0.226  0.00  0.00    -0.246 OA
ATOM     16  O   UNL     1       0.692  -5.562   0.646  0.00  0.00    -0.246 OA
ENDBRANCH   3  14
TORSDOF 2
