REMARK  Name = ZINC12603180
REMARK  10 active torsions:
REMARK  status: ('A' for Active; 'I' for Inactive)
REMARK    1  A    between atoms: C_1  and  C_2
REMARK    2  A    between atoms: C_2  and  C_3
REMARK    3  A    between atoms: C_2  and  N_4
REMARK    4  A    between atoms: N_4  and  C_5
REMARK    5  A    between atoms: C_8  and  C_31
REMARK    6  A    between atoms: C_11  and  C_27
REMARK    7  A    between atoms: C_27  and  O_29
REMARK    8  A    between atoms: O_29  and  C_30
REMARK    9  A    between atoms: C_34  and  O_37
REMARK   10  A    between atoms: O_37  and  C_38
REMARK                            x       y       z     vdW  Elec       q    Type
REMARK                         _______ _______ _______ _____ _____    ______ ____
ROOT
ATOM      1  C   UNL     1       2.514  -0.693  -1.998  0.00  0.00    -0.068 C 
ATOM      2  C   UNL     1       2.429   0.752  -1.500  0.00  0.00    +0.008 C 
ATOM      3  C   UNL     1       1.529   1.563  -2.436  0.00  0.00    +0.087 C 
ATOM      4  N   UNL     1       2.080   1.520  -3.795  0.00  0.00    -0.274 NA
ATOM      5  C   UNL     1       1.367   2.427  -4.701  0.00  0.00    +0.172 C 
ATOM      6  C   UNL     1       2.204   2.647  -5.969  0.00  0.00    +0.068 C 
ATOM      7  C   UNL     1       2.655   1.299  -6.474  0.00  0.00    -0.016 A 
ATOM      8  C   UNL     1       3.192   0.939  -7.767  0.00  0.00    +0.003 A 
ATOM      9  C   UNL     1       3.461   1.676  -8.924  0.00  0.00    +0.010 A 
ATOM     10  C   UNL     1       3.981   0.989  -9.992  0.00  0.00    +0.001 A 
ATOM     11  C   UNL     1       4.234  -0.372  -9.940  0.00  0.00    +0.002 A 
ATOM     12  C   UNL     1       3.978  -1.127  -8.808  0.00  0.00    +0.026 A 
ATOM     13  C   UNL     1       3.450  -0.456  -7.707  0.00  0.00    +0.047 A 
ATOM     14  N   UNL     1       3.088  -0.884  -6.462  0.00  0.00    -0.356 N 
ATOM     15  H   UNL     1       3.157  -1.798  -6.144  0.00  0.00    +0.166 HD
ATOM     16  C   UNL     1       2.612   0.169  -5.730  0.00  0.00    +0.038 A 
ATOM     17  C   UNL     1       2.104   0.143  -4.310  0.00  0.00    +0.103 C 
ATOM     18  C   UNL     1       3.033  -0.704  -3.439  0.00  0.00    +0.009 C 
ENDROOT
BRANCH   3  19
ATOM     19  C   UNL     1       1.467   2.992  -1.961  0.00  0.00    -0.030 A 
ATOM     20  C   UNL     1       2.497   3.864  -2.261  0.00  0.00    +0.009 A 
ATOM     21  C   UNL     1       2.443   5.174  -1.827  0.00  0.00    +0.046 A 
ATOM     22  C   UNL     1       1.354   5.615  -1.090  0.00  0.00    +0.130 A 
ATOM     23  C   UNL     1       0.321   4.738  -0.791  0.00  0.00    +0.046 A 
ATOM     24  C   UNL     1       0.378   3.430  -1.232  0.00  0.00    +0.009 A 
BRANCH  22  25
ATOM     25  O   UNL     1       1.299   6.903  -0.661  0.00  0.00    -0.406 OA
BRANCH  25  26
ATOM     26  C   UNL     1       0.147   7.287   0.093  0.00  0.00    +0.575 C 
ATOM     27  F   UNL     1       0.063   6.503   1.248  0.00  0.00    -0.133 F 
ATOM     28  F   UNL     1       0.253   8.636   0.451  0.00  0.00    -0.133 F 
ATOM     29  F   UNL     1      -1.002   7.100  -0.683  0.00  0.00    -0.133 F 
ENDBRANCH  25  26
ENDBRANCH  22  25
ENDBRANCH   3  19
BRANCH   1  30
ATOM     30  N   UNL     1       1.179  -1.306  -1.953  0.00  0.00    +0.383 N 
ATOM     31  H   UNL     1       0.567  -0.827  -2.597  0.00  0.00    -0.085 HD
ATOM     32  H   UNL     1       0.807  -1.234  -1.018  0.00  0.00    -0.085 HD
BRANCH  30  34
ATOM     33  C   UNL     1       2.128  -3.468  -1.303  0.00  0.00    -0.014 C 
ATOM     34  C   UNL     1       1.278  -2.722  -2.333  0.00  0.00    -0.078 C 
ATOM     35  C   UNL     1      -0.123  -3.336  -2.380  0.00  0.00    -0.014 C 
ENDBRANCH  30  34
ENDBRANCH   1  30
BRANCH   5  36
ATOM     36  C   UNL     1       0.038   1.821  -5.075  0.00  0.00    +0.325 C 
ATOM     37  O   UNL     1      -0.373   0.854  -4.480  0.00  0.00    -0.249 OA
BRANCH  36  38
ATOM     38  O   UNL     1      -0.687   2.357  -6.069  0.00  0.00    -0.467 OA
ATOM     39  C   UNL     1      -1.936   1.731  -6.370  0.00  0.00    +0.280 C 
ENDBRANCH  36  38
ENDBRANCH   5  36
TORSDOF 7
