REMARK  Name = ZINC08282345
REMARK  6 active torsions:
REMARK  status: ('A' for Active; 'I' for Inactive)
REMARK    1  A    between atoms: C_2  and  C_3
REMARK    2  A    between atoms: C_3  and  N_4
REMARK    3  A    between atoms: C_14  and  S_15
REMARK    4  A    between atoms: S_15  and  C_16
REMARK    5  A    between atoms: C_16  and  C_17
REMARK    6  A    between atoms: C_20  and  C_22
REMARK                            x       y       z     vdW  Elec       q    Type
REMARK                         _______ _______ _______ _____ _____    ______ ____
ROOT
ATOM      1  N   UNL     1      -3.322  -7.354   2.487  0.00  0.00    -0.283 N 
ATOM      2  C   UNL     1      -3.639  -8.657   2.306  0.00  0.00    +0.263 A 
ATOM      3  O   UNL     1      -3.806  -9.404   3.253  0.00  0.00    -0.267 OA
ATOM      4  C   UNL     1      -3.768  -9.138   0.924  0.00  0.00    +0.065 A 
ATOM      5  C   UNL     1      -4.086 -10.464   0.632  0.00  0.00    +0.015 A 
ATOM      6  C   UNL     1      -4.195 -10.859  -0.672  0.00  0.00    +0.001 A 
ATOM      7  C   UNL     1      -3.992  -9.955  -1.707  0.00  0.00    +0.002 A 
ATOM      8  C   UNL     1      -3.679  -8.650  -1.450  0.00  0.00    +0.028 A 
ATOM      9  C   UNL     1      -3.561  -8.215  -0.126  0.00  0.00    +0.079 A 
ATOM     10  N   UNL     1      -3.255  -6.937   0.173  0.00  0.00    -0.223 NA
ATOM     11  C   UNL     1      -3.144  -6.529   1.413  0.00  0.00    +0.173 A 
ENDROOT
BRANCH   1  12
ATOM     12  C   UNL     1      -3.175  -6.822   3.844  0.00  0.00    +0.154 C 
BRANCH  12  14
ATOM     13  C   UNL     1      -5.007  -6.759   5.458  0.00  0.00    +0.005 C 
ATOM     14  C   UNL     1      -4.507  -6.314   4.332  0.00  0.00    -0.013 C 
ENDBRANCH  12  14
ENDBRANCH   1  12
BRANCH  11  15
ATOM     15  S   UNL     1      -2.741  -4.840   1.709  0.00  0.00    -0.081 S 
BRANCH  15  16
ATOM     16  C   UNL     1      -2.618  -4.243   0.004  0.00  0.00    +0.136 C 
BRANCH  16  17
ATOM     17  C   UNL     1      -2.270  -2.776   0.010  0.00  0.00    +0.090 A 
ATOM     18  C   UNL     1      -3.146  -1.756   0.024  0.00  0.00    +0.221 A 
ATOM     19  O   UNL     1      -2.429  -0.612   0.029  0.00  0.00    -0.443 OA
ATOM     20  C   UNL     1      -1.126  -0.946   0.008  0.00  0.00    +0.234 A 
ATOM     21  N   UNL     1      -1.032  -2.258   0.000  0.00  0.00    -0.213 NA
BRANCH  20  22
ATOM     22  C   UNL     1       0.002  -0.004   0.002  0.00  0.00    +0.074 A 
ATOM     23  C   UNL     1      -0.017   1.379   0.010  0.00  0.00    +0.021 A 
ATOM     24  C   UNL     1       1.184   2.049   0.002  0.00  0.00    +0.008 A 
ATOM     25  C   UNL     1       2.342   1.339  -0.013  0.00  0.00    +0.046 A 
ATOM     26  S   UNL     1       1.754  -0.346  -0.017  0.00  0.00    -0.092 S 
ENDBRANCH  20  22
ENDBRANCH  16  17
ENDBRANCH  15  16
ENDBRANCH  11  15
TORSDOF 6
