REMARK  Name = ZINC37278755
REMARK  5 active torsions:
REMARK  status: ('A' for Active; 'I' for Inactive)
REMARK    1  A    between atoms: C_1  and  N_2
REMARK    2  A    between atoms: C_6  and  C_7
REMARK    3  A    between atoms: C_7  and  C_9
REMARK    4  A    between atoms: C_7  and  N_14
REMARK    5  A    between atoms: N_14  and  C_15
REMARK                            x       y       z     vdW  Elec       q    Type
REMARK                         _______ _______ _______ _____ _____    ______ ____
ROOT
ATOM      1  C   UNL     1       0.030  -0.354   2.521  0.00  0.00    +0.202 C 
ENDROOT
BRANCH   1   7
ATOM      2  C   UNL     1      -0.018   1.461   0.010  0.00  0.00    +0.150 C 
ATOM      3  N   UNL     1       0.002  -0.004   0.002  0.00  0.00    -0.337 N 
ATOM      4  C   UNL     1       0.009  -0.810  -1.104  0.00  0.00    +0.104 A 
ATOM      5  C   UNL     1       0.029  -2.081  -0.660  0.00  0.00    +0.102 A 
ATOM      6  N   UNL     1       0.034  -2.052   0.681  0.00  0.00    -0.348 N 
ATOM      7  C   UNL     1       0.023  -0.811   1.085  0.00  0.00    +0.115 A 
ATOM      8  H   UNL     1       0.048  -2.831   1.260  0.00  0.00    +0.167 HD
ENDBRANCH   1   7
BRANCH   1   9
ATOM      9  C   UNL     1       1.449  -0.300   3.024  0.00  0.00    +0.132 A 
ATOM     10  C   UNL     1       2.053  -1.237   3.777  0.00  0.00    +0.047 A 
ATOM     11  C   UNL     1       3.370  -0.783   4.017  0.00  0.00    +0.041 A 
ATOM     12  C   UNL     1       3.493   0.405   3.397  0.00  0.00    +0.195 A 
ATOM     13  O   UNL     1       2.328   0.689   2.792  0.00  0.00    -0.465 OA
ENDBRANCH   1   9
BRANCH   1  14
ATOM     14  N   UNL     1      -0.572   0.978   2.612  0.00  0.00    -0.327 N 
ATOM     15  H   UNL     1      -0.008   1.767   2.601  0.00  0.00    +0.147 HD
BRANCH  14  16
ATOM     16  C   UNL     1      -1.959   1.113   2.716  0.00  0.00    +0.042 A 
ATOM     17  C   UNL     1      -2.768  -0.016   2.738  0.00  0.00    +0.025 A 
ATOM     18  C   UNL     1      -4.139   0.120   2.841  0.00  0.00    +0.017 A 
ATOM     19  C   UNL     1      -4.707   1.379   2.921  0.00  0.00    +0.019 A 
ATOM     20  C   UNL     1      -3.904   2.506   2.900  0.00  0.00    +0.032 A 
ATOM     21  C   UNL     1      -2.532   2.376   2.802  0.00  0.00    +0.040 A 
ATOM     22 BR   UNL     1      -1.434   3.916   2.780  0.00  0.00    -0.048 Br
ATOM     23 BR   UNL     1      -6.584   1.561   3.061  0.00  0.00    -0.050 Br
ENDBRANCH  14  16
ENDBRANCH   1  14
TORSDOF 4
