REMARK  Name = ZINC41349397
REMARK  5 active torsions:
REMARK  status: ('A' for Active; 'I' for Inactive)
REMARK    1  A    between atoms: C_6  and  C_7
REMARK    2  A    between atoms: C_13  and  N_18
REMARK    3  A    between atoms: C_19  and  C_21
REMARK    4  A    between atoms: C_21  and  O_22
REMARK    5  A    between atoms: O_22  and  C_23
REMARK                            x       y       z     vdW  Elec       q    Type
REMARK                         _______ _______ _______ _____ _____    ______ ____
ROOT
ATOM      1  C   UNL     1      -1.268  -0.762  -0.177  0.00  0.00    +0.139 A 
ATOM      2  C   UNL     1      -1.227  -2.110  -0.359  0.00  0.00    +0.098 A 
ATOM      3  C   UNL     1      -2.432  -2.850  -0.361  0.00  0.00    +0.193 A 
ATOM      4  O   UNL     1      -2.433  -4.059  -0.521  0.00  0.00    -0.287 OA
ATOM      5  C   UNL     1      -3.689  -2.100  -0.162  0.00  0.00    +0.066 A 
ATOM      6  C   UNL     1      -4.923  -2.748  -0.149  0.00  0.00    +0.038 A 
ATOM      7  C   UNL     1      -6.078  -2.010   0.041  0.00  0.00    +0.034 A 
ATOM      8  C   UNL     1      -6.005  -0.630   0.218  0.00  0.00    +0.027 A 
ATOM      9  C   UNL     1      -4.788   0.016   0.206  0.00  0.00    +0.049 A 
ATOM     10  C   UNL     1      -3.618  -0.710   0.017  0.00  0.00    +0.139 A 
ATOM     11  O   UNL     1      -2.417  -0.093   0.009  0.00  0.00    -0.455 OA
ENDROOT
BRANCH   1  17
ATOM     12  C   UNL     1      -0.008   1.377   0.012  0.00  0.00    +0.014 A 
ATOM     13  C   UNL     1       1.179   2.077   0.011  0.00  0.00    +0.039 A 
ATOM     14  C   UNL     1       2.380   1.410  -0.178  0.00  0.00    +0.123 A 
ATOM     15  C   UNL     1       2.394   0.036  -0.367  0.00  0.00    +0.039 A 
ATOM     16  C   UNL     1       1.213  -0.674  -0.368  0.00  0.00    +0.014 A 
ATOM     17  C   UNL     1      -0.000  -0.007  -0.177  0.00  0.00    +0.018 A 
ATOM     18  F   UNL     1       3.541   2.101  -0.178  0.00  0.00    -0.205 F 
ENDBRANCH   1  17
BRANCH   7  19
ATOM     19  N   UNL     1      -7.323  -2.652   0.055  0.00  0.00    -0.283 N 
ATOM     20  C   UNL     1      -7.431  -3.902   0.547  0.00  0.00    +0.255 C 
ATOM     21  O   UNL     1      -6.472  -4.434   1.065  0.00  0.00    -0.272 OA
ATOM     22  H   UNL     1      -8.107  -2.197  -0.289  0.00  0.00    +0.155 HD
BRANCH  20  23
ATOM     23  C   UNL     1      -8.743  -4.637   0.455  0.00  0.00    +0.325 C 
BRANCH  23  24
ATOM     24  O   UNL     1      -8.605  -5.933   1.042  0.00  0.00    -0.477 OA
BRANCH  24  25
ATOM     25  C   UNL     1      -9.707  -6.732   1.040  0.00  0.00    +0.197 A 
ATOM     26  C   UNL     1     -10.598  -6.687   2.103  0.00  0.00    +0.206 A 
ATOM     27  C   UNL     1     -11.719  -7.501   2.100  0.00  0.00    +0.200 A 
ATOM     28  C   UNL     1     -11.951  -8.359   1.037  0.00  0.00    +0.199 A 
ATOM     29  C   UNL     1     -11.061  -8.405  -0.024  0.00  0.00    +0.200 A 
ATOM     30  C   UNL     1      -9.942  -7.588  -0.026  0.00  0.00    +0.206 A 
ATOM     31  F   UNL     1      -9.078  -7.628  -1.064  0.00  0.00    -0.198 F 
ATOM     32  F   UNL     1     -11.287  -9.242  -1.060  0.00  0.00    -0.199 F 
ATOM     33  F   UNL     1     -13.045  -9.152   1.036  0.00  0.00    -0.199 F 
ATOM     34  F   UNL     1     -12.587  -7.458   3.135  0.00  0.00    -0.199 F 
ATOM     35  F   UNL     1     -10.373  -5.851   3.140  0.00  0.00    -0.198 F 
ENDBRANCH  24  25
ENDBRANCH  23  24
ENDBRANCH  20  23
ENDBRANCH   7  19
TORSDOF 5
