REMARK  Name = ZINC40874777
REMARK  8 active torsions:
REMARK  status: ('A' for Active; 'I' for Inactive)
REMARK    1  A    between atoms: C_1  and  C_2
REMARK    2  A    between atoms: C_11  and  C_13
REMARK    3  A    between atoms: C_13  and  O_14
REMARK    4  A    between atoms: O_14  and  C_15
REMARK    5  A    between atoms: C_15  and  C_17
REMARK    6  A    between atoms: N_19  and  C_22
REMARK    7  A    between atoms: C_22  and  C_23
REMARK    8  A    between atoms: C_26  and  C_29
REMARK                            x       y       z     vdW  Elec       q    Type
REMARK                         _______ _______ _______ _____ _____    ______ ____
ROOT
ATOM      1  C   UNL     1      -0.731  -4.398   6.101  0.00  0.00    +0.361 C 
ATOM      2  O   UNL     1       0.221  -4.427   6.856  0.00  0.00    -0.243 OA
ENDROOT
BRANCH   1   3
ATOM      3  C   UNL     1      -1.931  -5.200   6.397  0.00  0.00    +0.189 A 
ATOM      4  C   UNL     1      -2.103  -6.011   7.484  0.00  0.00    +0.145 A 
ATOM      5  N   UNL     1      -3.330  -6.556   7.374  0.00  0.00    -0.247 N 
ATOM      6  N   UNL     1      -3.894  -6.054   6.193  0.00  0.00    -0.065 NA
ATOM      7  N   UNL     1      -3.045  -5.255   5.646  0.00  0.00    -0.123 NA
BRANCH   5   8
ATOM      8  C   UNL     1      -3.955  -7.495   8.310  0.00  0.00    +0.180 C 
BRANCH   8   9
ATOM      9  C   UNL     1      -5.286  -6.947   8.757  0.00  0.00    -0.026 A 
ATOM     10  C   UNL     1      -5.356  -6.135   9.875  0.00  0.00    +0.006 A 
ATOM     11  C   UNL     1      -6.571  -5.630  10.290  0.00  0.00    +0.008 A 
ATOM     12  C   UNL     1      -7.731  -5.939   9.578  0.00  0.00    -0.026 A 
ATOM     13  C   UNL     1      -7.654  -6.758   8.451  0.00  0.00    +0.008 A 
ATOM     14  C   UNL     1      -6.431  -7.253   8.044  0.00  0.00    +0.006 A 
BRANCH  12  15
ATOM     15  C   UNL     1      -9.036  -5.402  10.017  0.00  0.00    +0.000 C 
ATOM     16  C   UNL     1     -10.136  -5.698   9.339  0.00  0.00    +0.009 C 
ENDBRANCH  12  15
ENDBRANCH   8   9
ENDBRANCH   5   8
ENDBRANCH   1   3
BRANCH   1  17
ATOM     17  O   UNL     1      -0.689  -3.632   4.993  0.00  0.00    -0.454 OA
BRANCH  17  18
ATOM     18  C   UNL     1       0.506  -2.880   4.769  0.00  0.00    +0.288 C 
BRANCH  18  29
ATOM     19  C   UNL     1      -0.018   1.503   0.010  0.00  0.00    +0.064 C 
ATOM     20  C   UNL     1       0.002  -0.004   0.002  0.00  0.00    +0.025 A 
ATOM     21  C   UNL     1      -0.097  -0.667  -1.172  0.00  0.00    +0.021 A 
ATOM     22  C   UNL     1      -0.079  -2.069  -1.192  0.00  0.00    +0.005 A 
ATOM     23  C   UNL     1       0.039  -2.757  -0.022  0.00  0.00    +0.047 A 
ATOM     24  C   UNL     1       0.140  -2.049   1.189  0.00  0.00    +0.141 A 
ATOM     25  N   UNL     1       0.126  -0.682   1.177  0.00  0.00    -0.265 N 
ATOM     26  C   UNL     1       0.229   0.002   2.336  0.00  0.00    +0.259 A 
ATOM     27  O   UNL     1       0.211   1.223   2.339  0.00  0.00    -0.267 OA
ATOM     28  C   UNL     1       0.355  -0.710   3.534  0.00  0.00    +0.097 A 
ATOM     29  C   UNL     1       0.370  -2.090   3.493  0.00  0.00    +0.086 A 
ATOM     30  N   UNL     1       0.256  -2.720   2.334  0.00  0.00    -0.231 NA
ENDBRANCH  18  29
ENDBRANCH  17  18
ENDBRANCH   1  17
TORSDOF 7
