REMARK  Name = ZINC65080966
REMARK  9 active torsions:
REMARK  status: ('A' for Active; 'I' for Inactive)
REMARK    1  A    between atoms: C_1  and  C_2
REMARK    2  A    between atoms: C_2  and  C_3
REMARK    3  A    between atoms: C_3  and  C_4
REMARK    4  A    between atoms: C_4  and  C_6
REMARK    5  A    between atoms: C_4  and  N_11
REMARK    6  A    between atoms: C_12  and  C_14
REMARK    7  A    between atoms: C_26  and  C_36
REMARK    8  A    between atoms: N_28  and  C_29
REMARK    9  A    between atoms: C_32  and  C_35
REMARK                            x       y       z     vdW  Elec       q    Type
REMARK                         _______ _______ _______ _____ _____    ______ ____
ROOT
ATOM      1  C   UNL     1       2.131  -4.220  -1.602  0.00  0.00    +0.092 C 
ATOM      2  C   UNL     1       1.674  -5.627  -1.991  0.00  0.00    +0.016 C 
ATOM      3  C   UNL     1       2.474  -6.108  -3.204  0.00  0.00    +0.020 C 
ATOM      4  C   UNL     1       3.961  -6.165  -2.840  0.00  0.00    +0.107 C 
ATOM      5  N   UNL     1       4.374  -4.852  -2.327  0.00  0.00    -0.309 N 
ATOM      6  C   UNL     1       3.614  -4.255  -1.220  0.00  0.00    +0.119 C 
ATOM      7  C   UNL     1       5.456  -4.189  -2.875  0.00  0.00    +0.164 A 
ATOM      8  N   UNL     1       6.243  -4.562  -3.864  0.00  0.00    -0.205 NA
ATOM      9  C   UNL     1       7.262  -3.807  -4.290  0.00  0.00    +0.173 A 
ATOM     10  C   UNL     1       7.457  -2.590  -3.632  0.00  0.00    +0.082 A 
ATOM     11  S   UNL     1       6.147  -2.601  -2.433  0.00  0.00    -0.049 S 
ATOM     12  C   UNL     1       8.542  -1.935  -4.191  0.00  0.00    +0.076 A 
ATOM     13  N   UNL     1       9.024  -2.680  -5.152  0.00  0.00    -0.169 NA
ATOM     14  N   UNL     1       8.264  -3.849  -5.251  0.00  0.00    -0.213 N 
ATOM     15  C   UNL     1       9.078  -0.593  -3.764  0.00  0.00    +0.069 C 
ENDROOT
BRANCH  14  16
ATOM     16  C   UNL     1       8.477  -4.888  -6.165  0.00  0.00    +0.068 A 
ATOM     17  C   UNL     1       8.229  -6.204  -5.793  0.00  0.00    +0.028 A 
ATOM     18  C   UNL     1       8.440  -7.226  -6.697  0.00  0.00    +0.005 A 
ATOM     19  C   UNL     1       8.897  -6.942  -7.971  0.00  0.00    -0.050 A 
ATOM     20  C   UNL     1       9.145  -5.634  -8.344  0.00  0.00    +0.005 A 
ATOM     21  C   UNL     1       8.931  -4.606  -7.447  0.00  0.00    +0.028 A 
ATOM     22  C   UNL     1       9.126  -8.061  -8.954  0.00  0.00    +0.044 C 
ENDBRANCH  14  16
BRANCH   1  24
ATOM     23  N   UNL     1       1.551  -2.512   0.092  0.00  0.00    -0.308 N 
ATOM     24  C   UNL     1       1.321  -3.735  -0.427  0.00  0.00    +0.218 C 
ATOM     25  O   UNL     1       0.461  -4.444   0.051  0.00  0.00    -0.275 OA
ATOM     26  H   UNL     1       2.238  -1.944  -0.291  0.00  0.00    +0.149 HD
BRANCH  23  27
ATOM     27  C   UNL     1       0.763  -2.041   1.233  0.00  0.00    +0.110 C 
BRANCH  27  28
ATOM     28  C   UNL     1       1.382  -2.542   2.512  0.00  0.00    +0.010 A 
ATOM     29  C   UNL     1       0.774  -3.018   3.626  0.00  0.00    +0.013 A 
ATOM     30  C   UNL     1       1.553  -3.428   4.692  0.00  0.00    +0.008 A 
ATOM     31  C   UNL     1       2.902  -3.340   4.593  0.00  0.00    +0.045 A 
ATOM     32  S   UNL     1       3.108  -2.669   2.951  0.00  0.00    -0.100 S 
ENDBRANCH  27  28
BRANCH  27  33
ATOM     33  C   UNL     1       0.742  -0.511   1.242  0.00  0.00    +0.027 C 
BRANCH  33  35
ATOM     34  C   UNL     1      -0.019   1.526   0.010  0.00  0.00    +0.004 C 
ATOM     35  C   UNL     1       0.002  -0.004   0.002  0.00  0.00    -0.001 C 
ENDBRANCH  33  35
ENDBRANCH  27  33
ENDBRANCH  23  27
ENDBRANCH   1  24
TORSDOF 6
