REMARK  Name = ZINC59384651
REMARK  10 active torsions:
REMARK  status: ('A' for Active; 'I' for Inactive)
REMARK    1  A    between atoms: C_1  and  C_2
REMARK    2  A    between atoms: C_3  and  C_18
REMARK    3  A    between atoms: C_4  and  C_10
REMARK    4  A    between atoms: C_13  and  O_16
REMARK    5  A    between atoms: O_16  and  C_17
REMARK    6  A    between atoms: N_20  and  N_21
REMARK    7  A    between atoms: C_22  and  C_23
REMARK    8  A    between atoms: C_26  and  C_29
REMARK    9  A    between atoms: C_29  and  O_31
REMARK   10  A    between atoms: O_31  and  C_32
REMARK                            x       y       z     vdW  Elec       q    Type
REMARK                         _______ _______ _______ _____ _____    ______ ____
ROOT
ATOM      1  C   UNL     1      -0.039   1.491   0.091  0.00  0.00    +0.061 C 
ATOM      2  C   UNL     1      -0.009  -0.015   0.030  0.00  0.00    +0.017 C 
ATOM      3  C   UNL     1      -1.170  -0.703   0.033  0.00  0.00    +0.057 C 
ATOM      4  C   UNL     1      -1.094  -2.215  -0.031  0.00  0.00    +0.139 C 
ATOM      5  N   UNL     1       0.250  -2.813  -0.091  0.00  0.00    -0.315 N 
ATOM      6  C   UNL     1       1.319  -1.992  -0.086  0.00  0.00    +0.135 C 
ATOM      7  S   UNL     1       2.887  -2.674  -0.156  0.00  0.00    -0.019 S 
ATOM      8  N   UNL     1       1.193  -0.660  -0.034  0.00  0.00    -0.300 N 
ATOM      9  H   UNL     1       0.363  -3.776  -0.133  0.00  0.00    +0.149 HD
ATOM     10  H   UNL     1       2.001  -0.124  -0.037  0.00  0.00    +0.154 HD
ENDROOT
BRANCH   4  11
ATOM     11  C   UNL     1      -1.794  -2.767   1.185  0.00  0.00    -0.022 A 
ATOM     12  C   UNL     1      -1.186  -2.691   2.425  0.00  0.00    +0.009 A 
ATOM     13  C   UNL     1      -1.825  -3.196   3.540  0.00  0.00    +0.046 A 
ATOM     14  C   UNL     1      -3.078  -3.780   3.416  0.00  0.00    +0.120 A 
ATOM     15  C   UNL     1      -3.685  -3.855   2.171  0.00  0.00    +0.046 A 
ATOM     16  C   UNL     1      -3.044  -3.343   1.059  0.00  0.00    +0.009 A 
BRANCH  14  17
ATOM     17  O   UNL     1      -3.708  -4.278   4.512  0.00  0.00    -0.495 OA
ATOM     18  C   UNL     1      -4.995  -4.865   4.309  0.00  0.00    +0.277 C 
ENDBRANCH  14  17
ENDBRANCH   4  11
BRANCH   3  19
ATOM     19  C   UNL     1      -2.417  -0.035   0.093  0.00  0.00    +0.263 C 
ATOM     20  O   UNL     1      -3.077   0.116  -0.919  0.00  0.00    -0.269 OA
ATOM     21  N   UNL     1      -2.873   0.435   1.272  0.00  0.00    -0.203 N 
ATOM     22  H   UNL     1      -2.315   0.382   2.064  0.00  0.00    +0.178 HD
BRANCH  21  23
ATOM     23  N   UNL     1      -4.152   1.000   1.353  0.00  0.00    -0.187 NA
ATOM     24  C   UNL     1      -4.592   1.452   2.488  0.00  0.00    +0.138 C 
BRANCH  24  25
ATOM     25  C   UNL     1      -5.937   2.046   2.573  0.00  0.00    -0.005 A 
ATOM     26  C   UNL     1      -6.744   2.118   1.432  0.00  0.00    +0.010 A 
ATOM     27  C   UNL     1      -7.991   2.669   1.511  0.00  0.00    +0.015 A 
ATOM     28  C   UNL     1      -8.462   3.161   2.732  0.00  0.00    +0.059 A 
ATOM     29  C   UNL     1      -7.656   3.090   3.873  0.00  0.00    +0.015 A 
ATOM     30  C   UNL     1      -6.411   2.534   3.796  0.00  0.00    +0.010 A 
BRANCH  28  31
ATOM     31  C   UNL     1      -9.809   3.756   2.817  0.00  0.00    +0.339 C 
ATOM     32  O   UNL     1     -10.509   3.819   1.827  0.00  0.00    -0.245 OA
BRANCH  31  33
ATOM     33  O   UNL     1     -10.263   4.231   3.994  0.00  0.00    -0.464 OA
ATOM     34  C   UNL     1     -11.576   4.794   4.003  0.00  0.00    +0.280 C 
ENDBRANCH  31  33
ENDBRANCH  28  31
ENDBRANCH  24  25
ENDBRANCH  21  23
ENDBRANCH   3  19
TORSDOF 7
