REMARK  Name = ZINC03014109
REMARK  8 active torsions:
REMARK  status: ('A' for Active; 'I' for Inactive)
REMARK    1  A    between atoms: C_1  and  O_2
REMARK    2  A    between atoms: O_2  and  C_3
REMARK    3  A    between atoms: C_5  and  C_17
REMARK    4  A    between atoms: C_8  and  O_9
REMARK    5  A    between atoms: O_9  and  C_10
REMARK    6  A    between atoms: C_10  and  C_12
REMARK    7  A    between atoms: C_31  and  N_35
REMARK    8  A    between atoms: C_32  and  C_33
REMARK                            x       y       z     vdW  Elec       q    Type
REMARK                         _______ _______ _______ _____ _____    ______ ____
ROOT
ATOM      1  C   UNL     1       1.250   3.643   0.001  0.00  0.00    +0.105 C 
ATOM      2  C   UNL     1       1.177   2.140  -0.006  0.00  0.00    +0.092 A 
ATOM      3  C   UNL     1      -0.029   1.504  -0.012  0.00  0.00    +0.152 A 
ATOM      4  C   UNL     1      -0.038   0.032  -0.016  0.00  0.00    +0.060 A 
ATOM      5  C   UNL     1      -1.239  -0.681  -0.020  0.00  0.00    +0.015 A 
ATOM      6  C   UNL     1      -1.212  -2.058  -0.023  0.00  0.00    +0.001 A 
ATOM      7  C   UNL     1      -0.001  -2.735  -0.021  0.00  0.00    +0.004 A 
ATOM      8  C   UNL     1       1.192  -2.043  -0.017  0.00  0.00    +0.047 A 
ATOM      9  C   UNL     1       1.187  -0.654  -0.014  0.00  0.00    +0.143 A 
ATOM     10  O   UNL     1       2.345   0.041  -0.009  0.00  0.00    -0.422 OA
ATOM     11  C   UNL     1       2.362   1.383  -0.005  0.00  0.00    +0.345 A 
ATOM     12  O   UNL     1       3.434   1.962  -0.002  0.00  0.00    -0.245 OA
ATOM     13  O   UNL     1      -1.187   2.189  -0.020  0.00  0.00    -0.440 OA
ATOM     14  C   UNL     1      -1.203   3.481  -0.388  0.00  0.00    +0.199 C 
ATOM     15  C   UNL     1      -0.074   4.229  -0.403  0.00  0.00    +0.098 C 
ENDROOT
BRANCH   1  18
ATOM     16  C   UNL     1       3.077   5.295   2.866  0.00  0.00    +0.163 A 
ATOM     17  C   UNL     1       2.752   4.857   1.592  0.00  0.00    +0.054 A 
ATOM     18  C   UNL     1       1.601   4.119   1.387  0.00  0.00    -0.031 A 
ATOM     19  C   UNL     1       0.768   3.822   2.450  0.00  0.00    +0.008 A 
ATOM     20  C   UNL     1       1.089   4.251   3.724  0.00  0.00    +0.050 A 
ATOM     21  C   UNL     1       2.241   4.992   3.937  0.00  0.00    +0.173 A 
BRANCH  16  23
ATOM     22  C   UNL     1       5.017   6.296   1.923  0.00  0.00    +0.277 C 
ATOM     23  O   UNL     1       4.208   6.022   3.069  0.00  0.00    -0.491 OA
ENDBRANCH  16  23
BRANCH  21  24
ATOM     24  O   UNL     1       2.556   5.419   5.189  0.00  0.00    -0.416 OA
BRANCH  24  25
ATOM     25  C   UNL     1       2.241   6.694   5.497  0.00  0.00    +0.380 C 
ATOM     26  O   UNL     1       1.615   7.374   4.707  0.00  0.00    -0.241 OA
BRANCH  25  27
ATOM     27  C   UNL     1       2.655   7.260   6.783  0.00  0.00    +0.212 A 
ATOM     28  C   UNL     1       2.405   8.530   7.220  0.00  0.00    +0.056 A 
ATOM     29  C   UNL     1       2.979   8.639   8.496  0.00  0.00    +0.042 A 
ATOM     30  C   UNL     1       3.547   7.446   8.779  0.00  0.00    +0.196 A 
ATOM     31  O   UNL     1       3.346   6.616   7.747  0.00  0.00    -0.456 OA
ENDBRANCH  25  27
ENDBRANCH  24  25
ENDBRANCH  21  24
ENDBRANCH   1  18
BRANCH  14  32
ATOM     32  N   UNL     1      -2.392   4.055  -0.763  0.00  0.00    -0.328 N 
ATOM     33  H   UNL     1      -2.421   5.112  -1.067  0.00  0.00    +0.145 HD
ATOM     34  H   UNL     1      -3.317   3.459  -0.760  0.00  0.00    +0.145 HD
ENDBRANCH  14  32
BRANCH  15  35
ATOM     35  C   UNL     1      -0.143   5.601  -0.809  0.00  0.00    +0.101 C 
ATOM     36  N   UNL     1      -0.198   6.689  -1.132  0.00  0.00    -0.191 NA
ENDBRANCH  15  35
TORSDOF 7
