REMARK  Name = ZINC06657315
REMARK  7 active torsions:
REMARK  status: ('A' for Active; 'I' for Inactive)
REMARK    1  A    between atoms: C_1  and  C_2
REMARK    2  A    between atoms: C_2  and  O_3
REMARK    3  A    between atoms: O_3  and  C_4
REMARK    4  A    between atoms: C_9  and  C_10
REMARK    5  A    between atoms: C_13  and  C_27
REMARK    6  A    between atoms: C_16  and  C_18
REMARK    7  A    between atoms: C_32  and  O_33
REMARK                            x       y       z     vdW  Elec       q    Type
REMARK                         _______ _______ _______ _____ _____    ______ ____
ROOT
ATOM      1  C   UNL     1       2.055  -1.434   3.442  0.00  0.00    +0.084 C 
ATOM      2  N   UNL     1       3.142  -2.132   4.139  0.00  0.00    +0.401 N 
ATOM      3  C   UNL     1       3.827  -1.180   5.029  0.00  0.00    -0.028 C 
ATOM      4  C   UNL     1       4.574  -0.162   4.161  0.00  0.00    +0.044 C 
ATOM      5  C   UNL     1       3.651   0.350   3.089  0.00  0.00    +0.040 C 
ATOM      6  N   UNL     1       2.550  -0.230   2.787  0.00  0.00    -0.298 NA
ATOM      7  H   UNL     1       2.761  -2.890   4.684  0.00  0.00    -0.081 HD
ATOM      8  H   UNL     1       3.798  -2.495   3.464  0.00  0.00    -0.081 HD
ENDROOT
BRANCH   5   9
ATOM      9  C   UNL     1       4.032   1.571   2.354  0.00  0.00    -0.001 A 
ATOM     10  C   UNL     1       5.230   2.224   2.655  0.00  0.00    +0.013 A 
ATOM     11  C   UNL     1       5.584   3.364   1.966  0.00  0.00    +0.050 A 
ATOM     12  C   UNL     1       4.754   3.868   0.975  0.00  0.00    +0.166 A 
ATOM     13  C   UNL     1       3.556   3.221   0.670  0.00  0.00    +0.167 A 
ATOM     14  C   UNL     1       3.198   2.074   1.352  0.00  0.00    +0.059 A 
ATOM     15  O   UNL     1       2.931   3.909  -0.330  0.00  0.00    -0.453 OA
ATOM     16  C   UNL     1       3.555   5.206  -0.351  0.00  0.00    +0.466 C 
ATOM     17  O   UNL     1       4.876   4.959   0.165  0.00  0.00    -0.453 OA
ENDBRANCH   5   9
BRANCH   1  23
ATOM     18  C   UNL     1       0.802  -1.824   1.306  0.00  0.00    +0.124 A 
ATOM     19  C   UNL     1       0.260  -2.673   0.351  0.00  0.00    +0.046 A 
ATOM     20  C   UNL     1       0.372  -4.041   0.501  0.00  0.00    +0.004 A 
ATOM     21  C   UNL     1       1.024  -4.566   1.602  0.00  0.00    +0.000 A 
ATOM     22  C   UNL     1       1.565  -3.723   2.555  0.00  0.00    +0.007 A 
ATOM     23  C   UNL     1       1.460  -2.353   2.406  0.00  0.00    +0.001 A 
BRANCH  18  24
ATOM     24  O   UNL     1       0.693  -0.477   1.160  0.00  0.00    -0.492 OA
BRANCH  24  26
ATOM     25  C   UNL     1      -0.019   1.526   0.010  0.00  0.00    +0.048 C 
ATOM     26  C   UNL     1       0.002  -0.004   0.002  0.00  0.00    +0.225 C 
ENDBRANCH  24  26
ENDBRANCH  18  24
ENDBRANCH   1  23
BRANCH   3  27
ATOM     27  C   UNL     1       4.807  -1.918   5.904  0.00  0.00    -0.019 A 
ATOM     28  C   UNL     1       5.338  -3.123   5.485  0.00  0.00    +0.005 A 
ATOM     29  C   UNL     1       6.236  -3.801   6.287  0.00  0.00    +0.000 A 
ATOM     30  C   UNL     1       6.606  -3.275   7.512  0.00  0.00    +0.004 A 
ATOM     31  C   UNL     1       6.078  -2.071   7.936  0.00  0.00    +0.045 A 
ATOM     32  C   UNL     1       5.180  -1.387   7.130  0.00  0.00    +0.118 A 
BRANCH  32  33
ATOM     33  O   UNL     1       4.664  -0.199   7.542  0.00  0.00    -0.507 OA
ATOM     34  H   UNL     1       3.846  -0.281   8.051  0.00  0.00    +0.292 HD
ENDBRANCH  32  33
ENDBRANCH   3  27
TORSDOF 6
