REMARK  Name = ZINC59948351
REMARK  4 active torsions:
REMARK  status: ('A' for Active; 'I' for Inactive)
REMARK    1  A    between atoms: C_1  and  C_2
REMARK    2  A    between atoms: C_5  and  C_8
REMARK    3  A    between atoms: C_26  and  C_28
REMARK    4  A    between atoms: C_26  and  C_29
REMARK                            x       y       z     vdW  Elec       q    Type
REMARK                         _______ _______ _______ _____ _____    ______ ____
ROOT
ATOM      1  C   UNL     1       0.059  -4.275  -0.021  0.00  0.00    +0.063 C 
ATOM      2  C   UNL     1       1.369  -4.745   0.637  0.00  0.00    +0.048 C 
ATOM      3  C   UNL     1       1.210  -5.789   1.728  0.00  0.00    +0.028 C 
ATOM      4  C   UNL     1       2.422  -6.470   2.199  0.00  0.00    -0.002 A 
ATOM      5  C   UNL     1       2.415  -7.171   3.409  0.00  0.00    +0.010 A 
ATOM      6  C   UNL     1       3.559  -7.812   3.834  0.00  0.00    +0.001 A 
ATOM      7  C   UNL     1       4.708  -7.760   3.064  0.00  0.00    +0.000 A 
ATOM      8  C   UNL     1       4.722  -7.065   1.868  0.00  0.00    +0.004 A 
ATOM      9  C   UNL     1       3.587  -6.412   1.425  0.00  0.00    -0.039 A 
ATOM     10  C   UNL     1       3.636  -5.651   0.129  0.00  0.00    +0.036 C 
ATOM     11  C   UNL     1       2.238  -5.404  -0.434  0.00  0.00    +0.015 C 
ATOM     12  N   UNL     1       0.029  -6.087   2.170  0.00  0.00    -0.361 N 
ATOM     13  C   UNL     1      -1.133  -5.622   1.697  0.00  0.00    +0.024 C 
ATOM     14  C   UNL     1      -1.214  -4.773   0.642  0.00  0.00    +0.022 C 
ATOM     15  C   UNL     1      -2.445  -4.337   0.137  0.00  0.00    +0.162 C 
ATOM     16  O   UNL     1      -2.467  -3.576  -0.810  0.00  0.00    -0.292 OA
ATOM     17  C   UNL     1      -3.743  -4.796   0.747  0.00  0.00    +0.086 C 
ATOM     18  C   UNL     1      -3.531  -6.176   1.380  0.00  0.00    -0.023 C 
ATOM     19  C   UNL     1      -2.400  -6.079   2.389  0.00  0.00    +0.060 C 
ATOM     20  C   UNL     1      -4.814  -6.619   2.086  0.00  0.00    +0.011 C 
ATOM     21  C   UNL     1      -3.163  -7.188   0.293  0.00  0.00    +0.011 C 
ATOM     22  H   UNL     1      -0.018  -6.706   2.916  0.00  0.00    +0.165 HD
ENDROOT
BRANCH   1  27
ATOM     23  C   UNL     1      -0.018   1.503   0.010  0.00  0.00    +0.044 C 
ATOM     24  C   UNL     1       0.002  -0.004   0.002  0.00  0.00    -0.050 A 
ATOM     25  C   UNL     1       0.006  -0.689  -1.199  0.00  0.00    +0.003 A 
ATOM     26  C   UNL     1       0.025  -2.071  -1.206  0.00  0.00    +0.004 A 
ATOM     27  C   UNL     1       0.040  -2.768  -0.013  0.00  0.00    -0.039 A 
ATOM     28  C   UNL     1       0.037  -2.084   1.188  0.00  0.00    +0.004 A 
ATOM     29  C   UNL     1       0.023  -0.702   1.195  0.00  0.00    +0.003 A 
ENDBRANCH   1  27
TORSDOF 1
