REMARK  Name = ZINC36623056
REMARK  11 active torsions:
REMARK  status: ('A' for Active; 'I' for Inactive)
REMARK    1  A    between atoms: C_1  and  C_2
REMARK    2  A    between atoms: C_2  and  C_3
REMARK    3  A    between atoms: C_6  and  C_9
REMARK    4  A    between atoms: C_9  and  C_11
REMARK    5  A    between atoms: C_9  and  N_12
REMARK    6  A    between atoms: C_13  and  C_15
REMARK    7  A    between atoms: N_18  and  S_21
REMARK    8  A    between atoms: S_21  and  C_24
REMARK    9  A    between atoms: C_25  and  C_32
REMARK   10  A    between atoms: C_27  and  C_31
REMARK   11  A    between atoms: C_29  and  C_30
REMARK                            x       y       z     vdW  Elec       q    Type
REMARK                         _______ _______ _______ _____ _____    ______ ____
ROOT
ATOM      1  C   UNL     1      -7.492   0.315  -2.155  0.00  0.00    +0.077 C 
ATOM      2  C   UNL     1      -7.606   1.829  -1.962  0.00  0.00    +0.030 C 
ATOM      3  C   UNL     1      -8.506   2.413  -3.054  0.00  0.00    +0.110 C 
ATOM      4  N   UNL     1      -9.793   1.705  -3.036  0.00  0.00    -0.177 NA
ATOM      5  C   UNL     1      -9.793   0.238  -3.124  0.00  0.00    +0.110 C 
ATOM      6  C   UNL     1      -8.878  -0.322  -2.031  0.00  0.00    +0.030 C 
ENDROOT
BRANCH   1   8
ATOM      7  N   UNL     1      -5.300   0.157  -1.020  0.00  0.00    -0.309 N 
ATOM      8  C   UNL     1      -6.580  -0.259  -1.102  0.00  0.00    +0.217 C 
ATOM      9  O   UNL     1      -6.997  -1.095  -0.329  0.00  0.00    -0.275 OA
ATOM     10  H   UNL     1      -4.967   0.825  -1.639  0.00  0.00    +0.149 HD
BRANCH   7  11
ATOM     11  C   UNL     1      -4.413  -0.401   0.003  0.00  0.00    +0.100 C 
ATOM     12  C   UNL     1      -3.802  -1.707  -0.508  0.00  0.00    +0.033 C 
BRANCH  11  16
ATOM     13  C   UNL     1      -1.293   2.388   0.860  0.00  0.00    -0.048 A 
ATOM     14  C   UNL     1      -1.881   1.673   1.886  0.00  0.00    +0.004 A 
ATOM     15  C   UNL     1      -2.891   0.770   1.609  0.00  0.00    +0.006 A 
ATOM     16  C   UNL     1      -3.313   0.583   0.306  0.00  0.00    -0.027 A 
ATOM     17  C   UNL     1      -2.726   1.300  -0.720  0.00  0.00    +0.006 A 
ATOM     18  C   UNL     1      -1.719   2.206  -0.443  0.00  0.00    +0.004 A 
BRANCH  13  20
ATOM     19  C   UNL     1      -0.801   4.749   1.438  0.00  0.00    +0.009 C 
ATOM     20  C   UNL     1      -0.193   3.372   1.162  0.00  0.00    +0.032 C 
ENDBRANCH  13  20
ENDBRANCH  11  16
ENDBRANCH   7  11
ENDBRANCH   1   8
BRANCH   4  21
ATOM     21  S   UNL     1     -11.216   2.543  -2.917  0.00  0.00    +0.061 S 
ATOM     22  O   UNL     1     -12.173   1.644  -2.373  0.00  0.00    -0.153 OA
ATOM     23  O   UNL     1     -10.905   3.787  -2.303  0.00  0.00    -0.153 OA
BRANCH  21  24
ATOM     24  C   UNL     1     -11.744   2.909  -4.557  0.00  0.00    +0.111 A 
ATOM     25  C   UNL     1     -12.707   2.124  -5.165  0.00  0.00    -0.024 A 
ATOM     26  C   UNL     1     -13.121   2.411  -6.452  0.00  0.00    +0.008 A 
ATOM     27  C   UNL     1     -12.573   3.483  -7.131  0.00  0.00    -0.050 A 
ATOM     28  C   UNL     1     -11.612   4.268  -6.524  0.00  0.00    +0.008 A 
ATOM     29  C   UNL     1     -11.200   3.984  -5.235  0.00  0.00    -0.024 A 
ATOM     30  C   UNL     1     -10.156   4.843  -4.571  0.00  0.00    +0.046 C 
ATOM     31  C   UNL     1     -13.024   3.795  -8.535  0.00  0.00    +0.044 C 
ATOM     32  C   UNL     1     -13.304   0.955  -4.424  0.00  0.00    +0.046 C 
ENDBRANCH  21  24
ENDBRANCH   4  21
TORSDOF 6
