REMARK  Name = ZINC11957503
REMARK  7 active torsions:
REMARK  status: ('A' for Active; 'I' for Inactive)
REMARK    1  A    between atoms: C_1  and  C_2
REMARK    2  A    between atoms: C_2  and  C_21
REMARK    3  A    between atoms: C_7  and  C_20
REMARK    4  A    between atoms: C_10  and  O_11
REMARK    5  A    between atoms: C_10  and  N_45
REMARK    6  A    between atoms: O_11  and  C_12
REMARK    7  A    between atoms: C_17  and  C_18
REMARK                            x       y       z     vdW  Elec       q    Type
REMARK                         _______ _______ _______ _____ _____    ______ ____
ROOT
ATOM      1  C   UNL     1       1.655  -4.341  -0.442  0.00  0.00    +0.011 C 
ATOM      2  C   UNL     1       1.096  -4.939   0.865  0.00  0.00    -0.036 C 
ATOM      3  C   UNL     1      -0.414  -4.860   0.837  0.00  0.00    -0.009 C 
ATOM      4  C   UNL     1      -1.067  -3.901   1.818  0.00  0.00    -0.063 C 
ATOM      5  C   UNL     1      -0.355  -4.085   3.188  0.00  0.00    -0.010 C 
ATOM      6  C   UNL     1       0.982  -3.359   2.880  0.00  0.00    -0.048 C 
ATOM      7  C   UNL     1       1.823  -4.316   2.038  0.00  0.00    +0.011 C 
ATOM      8  C   UNL     1       0.557  -2.173   1.981  0.00  0.00    -0.067 C 
ATOM      9  C   UNL     1       1.704  -2.894   4.153  0.00  0.00    +0.009 C 
ATOM     10  C   UNL     1       1.475  -6.442   0.841  0.00  0.00    +0.011 C 
ATOM     11  N   UNL     1      -0.807  -2.469   1.546  0.00  0.00    +0.404 N 
ATOM     12  H   UNL     1      -1.461  -1.906   2.103  0.00  0.00    -0.076 HD
ENDROOT
BRANCH  11  13
ATOM     13  C   UNL     1      -1.014  -2.120   0.100  0.00  0.00    +0.157 C 
BRANCH  13  14
ATOM     14  O   UNL     1      -1.282  -0.718   0.024  0.00  0.00    -0.509 OA
BRANCH  14  15
ATOM     15  C   UNL     1      -2.509  -0.303   0.429  0.00  0.00    +0.132 A 
ATOM     16  C   UNL     1      -3.472  -1.231   0.796  0.00  0.00    +0.046 A 
ATOM     17  C   UNL     1      -4.720  -0.807   1.208  0.00  0.00    +0.004 A 
ATOM     18  C   UNL     1      -5.020   0.545   1.258  0.00  0.00    +0.001 A 
ATOM     19  C   UNL     1      -4.075   1.480   0.897  0.00  0.00    +0.019 A 
ATOM     20  C   UNL     1      -2.808   1.065   0.478  0.00  0.00    +0.105 A 
BRANCH  20  21
ATOM     21  C   UNL     1      -1.791   2.061   0.096  0.00  0.00    +0.390 C 
ATOM     22  O   UNL     1      -0.689   1.697  -0.263  0.00  0.00    -0.240 OA
ATOM     23  O   UNL     1      -2.083   3.376   0.145  0.00  0.00    -0.240 OA
ENDBRANCH  20  21
ENDBRANCH  14  15
ENDBRANCH  13  14
ENDBRANCH  11  13
TORSDOF 4
