REMARK  Name = ZINC08798784
REMARK  10 active torsions:
REMARK  status: ('A' for Active; 'I' for Inactive)
REMARK    1  A    between atoms: C_1  and  N_2
REMARK    2  A    between atoms: C_10  and  C_12
REMARK    3  A    between atoms: C_12  and  C_14
REMARK    4  A    between atoms: C_12  and  N_55
REMARK    5  A    between atoms: C_14  and  N_15
REMARK    6  A    between atoms: N_15  and  S_16
REMARK    7  A    between atoms: S_16  and  C_19
REMARK    8  A    between atoms: C_24  and  N_25
REMARK    9  A    between atoms: C_28  and  N_55
REMARK   10  A    between atoms: C_29  and  N_55
REMARK                            x       y       z     vdW  Elec       q    Type
REMARK                         _______ _______ _______ _____ _____    ______ ____
ROOT
ATOM      1  C   UNL     1      -0.886  -1.336   0.613  0.00  0.00    -0.023 C 
ENDROOT
BRANCH   1  11
ATOM      2  C   UNL     1      -1.004   4.975   0.351  0.00  0.00    +0.129 C 
ATOM      3  N   UNL     1       0.199   4.233   0.750  0.00  0.00    -0.333 N 
ATOM      4  C   UNL     1       0.727   4.734   2.021  0.00  0.00    +0.105 C 
ATOM      5  C   UNL     1       1.962   3.907   2.399  0.00  0.00    +0.024 C 
ATOM      6  C   UNL     1       1.494   2.489   2.737  0.00  0.00    +0.038 C 
ATOM      7  C   UNL     1       0.549   1.999   1.670  0.00  0.00    -0.026 A 
ATOM      8  C   UNL     1      -0.042   2.860   0.761  0.00  0.00    +0.033 A 
ATOM      9  C   UNL     1      -0.917   2.348  -0.198  0.00  0.00    +0.023 A 
ATOM     10  C   UNL     1      -1.184   0.996  -0.249  0.00  0.00    +0.004 A 
ATOM     11  C   UNL     1      -0.593   0.141   0.663  0.00  0.00    -0.059 A 
ATOM     12  C   UNL     1       0.271   0.642   1.616  0.00  0.00    +0.007 A 
ENDBRANCH   1  11
BRANCH   1  15
ATOM     13  C   UNL     1      -2.647  -1.627  -1.024  0.00  0.00    -0.096 C 
ATOM     14  C   UNL     1      -2.795  -2.737   1.123  0.00  0.00    -0.096 C 
ATOM     15  N   UNL     1      -2.340  -1.520   0.417  0.00  0.00    +0.381 N 
ATOM     16  H   UNL     1      -2.834  -0.707   0.804  0.00  0.00    -0.082 HD
ENDBRANCH   1  15
BRANCH   1  17
ATOM     17  C   UNL     1      -0.110  -1.971  -0.543  0.00  0.00    +0.095 C 
BRANCH  17  18
ATOM     18  N   UNL     1      -0.414  -3.403  -0.607  0.00  0.00    -0.191 NA
ATOM     19  H   UNL     1      -0.811  -3.849   0.157  0.00  0.00    +0.148 HD
BRANCH  18  20
ATOM     20  S   UNL     1      -0.081  -4.259  -1.984  0.00  0.00    +0.061 S 
ATOM     21  O   UNL     1      -0.394  -5.617  -1.705  0.00  0.00    -0.153 OA
ATOM     22  O   UNL     1      -0.675  -3.546  -3.060  0.00  0.00    -0.153 OA
BRANCH  20  23
ATOM     23  C   UNL     1       1.662  -4.186  -2.234  0.00  0.00    +0.135 A 
ATOM     24  C   UNL     1       2.174  -3.559  -3.355  0.00  0.00    +0.031 A 
ATOM     25  C   UNL     1       3.541  -3.497  -3.549  0.00  0.00    +0.002 A 
ATOM     26  C   UNL     1       4.396  -4.071  -2.627  0.00  0.00    +0.002 A 
ATOM     27  C   UNL     1       3.885  -4.702  -1.508  0.00  0.00    +0.035 A 
ATOM     28  C   UNL     1       2.517  -4.760  -1.312  0.00  0.00    +0.152 A 
BRANCH  28  29
ATOM     29  N   UNL     1       1.969  -5.436  -0.115  0.00  0.00    +0.058 N 
ATOM     30  O   UNL     1       2.705  -6.077   0.613  0.00  0.00    -0.126 OA
ATOM     31  O   UNL     1       0.781  -5.351   0.142  0.00  0.00    -0.126 OA
ENDBRANCH  28  29
ENDBRANCH  20  23
ENDBRANCH  18  20
ENDBRANCH  17  18
ENDBRANCH   1  17
TORSDOF 7
