REMARK  Name = ZINC39513695
REMARK  5 active torsions:
REMARK  status: ('A' for Active; 'I' for Inactive)
REMARK    1  A    between atoms: C_4  and  C_7
REMARK    2  A    between atoms: C_7  and  N_8
REMARK    3  A    between atoms: C_17  and  S_20
REMARK    4  A    between atoms: S_20  and  O_23
REMARK    5  A    between atoms: O_23  and  C_24
REMARK                            x       y       z     vdW  Elec       q    Type
REMARK                         _______ _______ _______ _____ _____    ______ ____
ROOT
ATOM      1  N   UNL     1       4.153  -0.953   1.342  0.00  0.00    +0.387 N 
ATOM      2  C   UNL     1       3.142  -1.754   2.042  0.00  0.00    -0.078 C 
ATOM      3  C   UNL     1       3.565  -1.957   3.498  0.00  0.00    -0.018 C 
ATOM      4  C   UNL     1       4.908  -2.693   3.537  0.00  0.00    +0.011 C 
ATOM      5  C   UNL     1       5.942  -1.888   2.745  0.00  0.00    +0.042 C 
ATOM      6  C   UNL     1       5.431  -1.668   1.323  0.00  0.00    -0.051 C 
ATOM      7  C   UNL     1       5.268  -3.019   0.610  0.00  0.00    -0.009 C 
ATOM      8  C   UNL     1       6.215  -2.990  -0.608  0.00  0.00    +0.028 C 
ATOM      9  C   UNL     1       6.411  -1.482  -0.901  0.00  0.00    +0.170 C 
ATOM     10  C   UNL     1       6.468  -0.862   0.518  0.00  0.00    +0.019 C 
ATOM     11  I   UNL     1       6.256   0.024   3.704  0.00  0.00    -0.083 I 
ATOM     12  H   UNL     1       4.269  -0.071   1.819  0.00  0.00    -0.080 HD
ENDROOT
BRANCH   9  13
ATOM     13  S   UNL     1       7.964  -1.197  -1.794  0.00  0.00    +0.123 S 
ATOM     14  O   UNL     1       8.062   0.166  -2.184  0.00  0.00    -0.136 OA
ATOM     15  O   UNL     1       9.040  -1.838  -1.123  0.00  0.00    -0.136 OA
BRANCH  13  16
ATOM     16  O   UNL     1       7.810  -1.964  -3.100  0.00  0.00    -0.346 OA
BRANCH  16  17
ATOM     17  C   UNL     1       6.986  -1.364  -3.999  0.00  0.00    +0.156 A 
ATOM     18  C   UNL     1       5.628  -1.649  -3.995  0.00  0.00    +0.048 A 
ATOM     19  C   UNL     1       4.793  -1.038  -4.910  0.00  0.00    +0.004 A 
ATOM     20  C   UNL     1       5.309  -0.143  -5.829  0.00  0.00    +0.000 A 
ATOM     21  C   UNL     1       6.661   0.142  -5.836  0.00  0.00    +0.004 A 
ATOM     22  C   UNL     1       7.500  -0.462  -4.919  0.00  0.00    +0.048 A 
ENDBRANCH  16  17
ENDBRANCH  13  16
ENDBRANCH   9  13
BRANCH   1  23
ATOM     23  C   UNL     1       3.711  -0.707  -0.038  0.00  0.00    -0.042 C 
BRANCH  23  27
ATOM     24  C   UNL     1       0.122   1.609   0.006  0.00  0.00    +0.000 A 
ATOM     25  C   UNL     1       1.351   2.240  -0.028  0.00  0.00    +0.000 A 
ATOM     26  C   UNL     1       2.513   1.490  -0.042  0.00  0.00    +0.002 A 
ATOM     27  C   UNL     1       2.445   0.110  -0.021  0.00  0.00    -0.064 A 
ATOM     28  C   UNL     1       1.216  -0.521   0.014  0.00  0.00    +0.002 A 
ATOM     29  C   UNL     1       0.054   0.228   0.027  0.00  0.00    +0.000 A 
ENDBRANCH  23  27
ENDBRANCH   1  23
TORSDOF 5
