REMARK  Name = ZINC09783277
REMARK  6 active torsions:
REMARK  status: ('A' for Active; 'I' for Inactive)
REMARK    1  A    between atoms: C_1  and  N_2
REMARK    2  A    between atoms: N_2  and  C_3
REMARK    3  A    between atoms: N_2  and  C_4
REMARK    4  A    between atoms: C_7  and  C_10
REMARK    5  A    between atoms: C_11  and  C_12
REMARK    6  A    between atoms: N_22  and  C_23
REMARK                            x       y       z     vdW  Elec       q    Type
REMARK                         _______ _______ _______ _____ _____    ______ ____
ROOT
ATOM      1  C   UNL     1      -1.316  -0.528   1.043  0.00  0.00    +0.141 A 
ATOM      2  N   UNL     1      -2.513  -0.060   1.315  0.00  0.00    -0.229 NA
ATOM      3  C   UNL     1      -3.598  -0.447   0.617  0.00  0.00    +0.079 A 
ATOM      4  C   UNL     1      -4.871   0.054   0.909  0.00  0.00    +0.028 A 
ATOM      5  C   UNL     1      -5.948  -0.361   0.179  0.00  0.00    +0.002 A 
ATOM      6  C   UNL     1      -5.801  -1.277  -0.855  0.00  0.00    +0.001 A 
ATOM      7  C   UNL     1      -4.560  -1.789  -1.167  0.00  0.00    +0.015 A 
ATOM      8  C   UNL     1      -3.447  -1.380  -0.435  0.00  0.00    +0.065 A 
ATOM      9  C   UNL     1      -2.100  -1.891  -0.724  0.00  0.00    +0.267 A 
ATOM     10  O   UNL     1      -1.909  -2.696  -1.618  0.00  0.00    -0.267 OA
ATOM     11  N   UNL     1      -1.079  -1.432   0.036  0.00  0.00    -0.261 N 
ENDROOT
BRANCH  11  12
ATOM     12  C   UNL     1       0.225  -1.884  -0.202  0.00  0.00    +0.052 A 
ATOM     13  C   UNL     1       1.011  -1.265  -1.165  0.00  0.00    +0.027 A 
ATOM     14  C   UNL     1       2.298  -1.709  -1.393  0.00  0.00    +0.017 A 
ATOM     15  C   UNL     1       2.801  -2.777  -0.671  0.00  0.00    +0.018 A 
ATOM     16  C   UNL     1       2.019  -3.399   0.285  0.00  0.00    +0.017 A 
ATOM     17  C   UNL     1       0.732  -2.955   0.522  0.00  0.00    +0.027 A 
ATOM     18 BR   UNL     1       4.562  -3.388  -0.993  0.00  0.00    -0.050 Br
ENDBRANCH  11  12
BRANCH   1  20
ATOM     19  C   UNL     1      -0.390   0.796   2.866  0.00  0.00    +0.011 C 
ATOM     20  C   UNL     1      -0.185  -0.061   1.844  0.00  0.00    +0.047 C 
BRANCH  19  24
ATOM     21  C   UNL     1       2.891   2.150   5.189  0.00  0.00    +0.029 A 
ATOM     22  C   UNL     1       1.604   2.591   5.483  0.00  0.00    +0.023 A 
ATOM     23  C   UNL     1       0.537   2.155   4.732  0.00  0.00    +0.010 A 
ATOM     24  C   UNL     1       0.747   1.265   3.671  0.00  0.00    -0.025 A 
ATOM     25  C   UNL     1       2.042   0.820   3.383  0.00  0.00    +0.010 A 
ATOM     26  C   UNL     1       3.105   1.265   4.136  0.00  0.00    +0.023 A 
BRANCH  21  28
ATOM     27  C   UNL     1       3.767   3.627   6.971  0.00  0.00    +0.129 C 
ATOM     28  N   UNL     1       3.968   2.594   5.952  0.00  0.00    -0.336 N 
ATOM     29  C   UNL     1       5.302   2.029   5.735  0.00  0.00    +0.129 C 
ENDBRANCH  21  28
ENDBRANCH  19  24
ENDBRANCH   1  20
TORSDOF 4
