REMARK  Name = ZINC11998765
REMARK  12 active torsions:
REMARK  status: ('A' for Active; 'I' for Inactive)
REMARK    1  A    between atoms: C_1  and  C_2
REMARK    2  A    between atoms: C_2  and  C_3
REMARK    3  A    between atoms: C_2  and  C_4
REMARK    4  A    between atoms: C_4  and  C_5
REMARK    5  A    between atoms: C_5  and  C_6
REMARK    6  A    between atoms: C_6  and  C_17
REMARK    7  A    between atoms: N_9  and  C_13
REMARK    8  A    between atoms: C_13  and  C_14
REMARK    9  A    between atoms: C_14  and  N_67
REMARK   10  A    between atoms: C_15  and  N_67
REMARK   11  A    between atoms: C_16  and  N_67
REMARK   12  A    between atoms: C_23  and  C_25
REMARK                            x       y       z     vdW  Elec       q    Type
REMARK                         _______ _______ _______ _____ _____    ______ ____
ROOT
ATOM      1  C   UNL     1      -1.341   4.765   2.536  0.00  0.00    +0.115 C 
ATOM      2  C   UNL     1      -0.594   5.963   1.983  0.00  0.00    +0.247 C 
ATOM      3  O   UNL     1       0.564   6.004   1.628  0.00  0.00    -0.273 OA
ATOM      4  N   UNL     1      -1.492   6.973   1.969  0.00  0.00    -0.226 N 
ATOM      5  C   UNL     1      -2.684   6.582   2.434  0.00  0.00    +0.309 C 
ATOM      6  O   UNL     1      -3.649   7.316   2.520  0.00  0.00    -0.252 OA
ATOM      7  N   UNL     1      -2.694   5.287   2.796  0.00  0.00    -0.285 N 
ATOM      8  H   UNL     1      -3.446   4.792   3.157  0.00  0.00    +0.151 HD
ENDROOT
BRANCH   1   9
ATOM      9  C   UNL     1      -1.388   3.637   1.503  0.00  0.00    +0.024 C 
ATOM     10  C   UNL     1       0.024   3.077   1.296  0.00  0.00    +0.025 C 
ATOM     11  C   UNL     1      -0.035   1.926   0.286  0.00  0.00    +0.108 C 
ATOM     12  N   UNL     1      -0.683   2.404  -0.943  0.00  0.00    -0.297 N 
ATOM     13  C   UNL     1      -2.003   3.042  -0.843  0.00  0.00    +0.108 C 
ATOM     14  C   UNL     1      -1.925   4.181   0.177  0.00  0.00    +0.025 C 
ATOM     15  C   UNL     1      -0.078   2.261  -2.138  0.00  0.00    +0.248 C 
ATOM     16  O   UNL     1       1.050   1.812  -2.199  0.00  0.00    -0.270 OA
BRANCH  15  17
ATOM     17  C   UNL     1      -0.785   2.651  -3.376  0.00  0.00    +0.055 A 
ATOM     18  C   UNL     1      -2.153   2.403  -3.510  0.00  0.00    +0.014 A 
ATOM     19  C   UNL     1      -2.807   2.769  -4.667  0.00  0.00    +0.001 A 
ATOM     20  C   UNL     1      -2.111   3.382  -5.696  0.00  0.00    +0.001 A 
ATOM     21  C   UNL     1      -0.757   3.631  -5.571  0.00  0.00    +0.021 A 
ATOM     22  C   UNL     1      -0.090   3.275  -4.415  0.00  0.00    +0.053 A 
ATOM     23 CL   UNL     1       1.609   3.595  -4.256  0.00  0.00    -0.083 Cl
ENDBRANCH  15  17
ENDBRANCH   1   9
BRANCH   1  24
ATOM     24  C   UNL     1      -0.693   4.279   3.833  0.00  0.00    +0.036 C 
BRANCH  24  25
ATOM     25  C   UNL     1      -0.771   5.385   4.888  0.00  0.00    +0.005 C 
BRANCH  25  27
ATOM     26  C   UNL     1      -0.088   6.043   7.199  0.00  0.00    +0.007 C 
ATOM     27  C   UNL     1      -0.122   4.898   6.186  0.00  0.00    -0.017 C 
ATOM     28  C   UNL     1      -0.936   3.735   6.758  0.00  0.00    +0.007 C 
ENDBRANCH  25  27
ENDBRANCH  24  25
ENDBRANCH   1  24
BRANCH   4  29
ATOM     29  C   UNL     1      -1.194   8.331   1.506  0.00  0.00    +0.099 C 
BRANCH  29  30
ATOM     30  C   UNL     1      -0.691   9.172   2.680  0.00  0.00    -0.060 C 
BRANCH  30  33
ATOM     31  C   UNL     1      -0.136  11.433   3.348  0.00  0.00    -0.097 C 
ATOM     32  C   UNL     1       0.737  10.533   1.276  0.00  0.00    -0.097 C 
ATOM     33  N   UNL     1      -0.416  10.543   2.201  0.00  0.00    +0.377 N 
ATOM     34  H   UNL     1      -1.241  10.894   1.701  0.00  0.00    -0.083 HD
ENDBRANCH  30  33
ENDBRANCH  29  30
ENDBRANCH   4  29
TORSDOF 8
