REMARK  Name = ZINC63491877
REMARK  8 active torsions:
REMARK  status: ('A' for Active; 'I' for Inactive)
REMARK    1  A    between atoms: C_1  and  O_2
REMARK    2  A    between atoms: O_2  and  C_3
REMARK    3  A    between atoms: C_8  and  C_19
REMARK    4  A    between atoms: C_10  and  N_13
REMARK    5  A    between atoms: N_21  and  C_22
REMARK    6  A    between atoms: C_22  and  C_23
REMARK    7  A    between atoms: C_28  and  O_29
REMARK    8  A    between atoms: O_29  and  C_30
REMARK                            x       y       z     vdW  Elec       q    Type
REMARK                         _______ _______ _______ _____ _____    ______ ____
ROOT
ATOM      1  C   UNL     1       2.118  -0.081  -1.272  0.00  0.00    +0.121 A 
ATOM      2  C   UNL     1       2.355   0.500  -2.525  0.00  0.00    +0.047 A 
ATOM      3  C   UNL     1       2.337  -0.229  -3.666  0.00  0.00    +0.029 A 
ATOM      4  C   UNL     1       2.073  -1.623  -3.611  0.00  0.00    +0.045 A 
ATOM      5  N   UNL     1       2.002  -2.535  -4.560  0.00  0.00    -0.369 N 
ATOM      6  C   UNL     1       1.698  -3.835  -3.953  0.00  0.00    +0.211 C 
ATOM      7  C   UNL     1       1.592  -3.585  -2.465  0.00  0.00    +0.054 C 
ATOM      8  C   UNL     1       1.825  -2.233  -2.293  0.00  0.00    +0.021 A 
ATOM      9  C   UNL     1       1.864  -1.409  -1.141  0.00  0.00    +0.057 A 
ATOM     10  H   UNL     1       2.129  -2.372  -5.508  0.00  0.00    +0.161 HD
ENDROOT
BRANCH   7  11
ATOM     11  N   UNL     1       1.321  -4.504  -1.494  0.00  0.00    -0.272 N 
ATOM     12  C   UNL     1       1.652  -5.931  -1.589  0.00  0.00    +0.114 C 
ATOM     13  C   UNL     1       1.572  -6.469  -0.143  0.00  0.00    +0.029 C 
ATOM     14  C   UNL     1       0.588  -5.471   0.511  0.00  0.00    +0.098 C 
ATOM     15  C   UNL     1       0.723  -4.218  -0.325  0.00  0.00    +0.220 C 
ATOM     16  O   UNL     1       0.344  -3.116   0.009  0.00  0.00    -0.275 OA
ENDBRANCH   7  11
BRANCH   6  17
ATOM     17  C   UNL     1       2.809  -4.812  -4.239  0.00  0.00    +0.241 C 
ATOM     18  O   UNL     1       3.933  -4.409  -4.448  0.00  0.00    -0.273 OA
ATOM     19  N   UNL     1       2.553  -6.136  -4.262  0.00  0.00    -0.309 N 
ATOM     20  H   UNL     1       1.643  -6.455  -4.159  0.00  0.00    +0.149 HD
BRANCH  19  21
ATOM     21  C   UNL     1       3.649  -7.091  -4.441  0.00  0.00    +0.143 C 
BRANCH  21  22
ATOM     22  C   UNL     1       3.099  -8.494  -4.430  0.00  0.00    +0.012 A 
ATOM     23  C   UNL     1       3.182  -9.260  -3.283  0.00  0.00    +0.024 A 
ATOM     24  C   UNL     1       2.678 -10.548  -3.272  0.00  0.00    +0.018 A 
ATOM     25  C   UNL     1       2.089 -11.072  -4.409  0.00  0.00    +0.019 A 
ATOM     26  C   UNL     1       2.003 -10.309  -5.558  0.00  0.00    +0.047 A 
ATOM     27  C   UNL     1       2.504  -9.015  -5.569  0.00  0.00    +0.125 A 
ATOM     28 BR   UNL     1       2.794 -11.594  -1.701  0.00  0.00    -0.050 Br
BRANCH  27  29
ATOM     29  O   UNL     1       2.416  -8.262  -6.697  0.00  0.00    -0.495 OA
ATOM     30  C   UNL     1       1.790  -8.864  -7.832  0.00  0.00    +0.277 C 
ENDBRANCH  27  29
ENDBRANCH  21  22
ENDBRANCH  19  21
ENDBRANCH   6  17
BRANCH   1  32
ATOM     31  C   UNL     1       2.419   2.092  -0.353  0.00  0.00    +0.277 C 
ATOM     32  O   UNL     1       2.148   0.703  -0.160  0.00  0.00    -0.495 OA
ENDBRANCH   1  32
TORSDOF 6
