REMARK  Name = ZINC63572589
REMARK  2 active torsions:
REMARK  status: ('A' for Active; 'I' for Inactive)
REMARK    1  A    between atoms: C_6  and  C_7
REMARK    2  A    between atoms: N_25  and  C_26
REMARK                            x       y       z     vdW  Elec       q    Type
REMARK                         _______ _______ _______ _____ _____    ______ ____
ROOT
ATOM      1  C   UNL     1      -1.761  -1.503  -0.561  0.00  0.00    +0.134 C 
ATOM      2  C   UNL     1      -1.758  -2.325  -1.854  0.00  0.00    +0.131 C 
ATOM      3  C   UNL     1      -0.406  -3.024  -1.922  0.00  0.00    -0.035 C 
ATOM      4  C   UNL     1       0.140  -2.673  -3.080  0.00  0.00    +0.001 A 
ATOM      5  C   UNL     1       1.396  -3.076  -3.733  0.00  0.00    +0.030 A 
ATOM      6  C   UNL     1       1.657  -2.502  -4.937  0.00  0.00    +0.042 A 
ATOM      7  C   UNL     1       0.804  -1.576  -5.550  0.00  0.00    +0.022 A 
ATOM      8  C   UNL     1      -0.372  -1.153  -5.023  0.00  0.00    +0.027 A 
ATOM      9  C   UNL     1      -0.757  -1.690  -3.760  0.00  0.00    +0.043 A 
ATOM     10  N   UNL     1      -1.845  -1.474  -3.042  0.00  0.00    -0.375 N 
ATOM     11 CL   UNL     1       3.124  -2.937  -5.757  0.00  0.00    -0.084 Cl
ATOM     12  C   UNL     1       0.131  -3.862  -0.787  0.00  0.00    +0.052 C 
ATOM     13  C   UNL     1       0.013  -3.007   0.488  0.00  0.00    +0.114 C 
ATOM     14  N   UNL     1      -1.312  -2.378   0.533  0.00  0.00    -0.276 N 
ATOM     15  C   UNL     1      -2.125  -2.603   1.584  0.00  0.00    +0.307 C 
ATOM     16  O   UNL     1      -3.256  -2.158   1.584  0.00  0.00    -0.252 OA
ATOM     17  N   UNL     1      -1.683  -3.322   2.635  0.00  0.00    -0.269 N 
ATOM     18  H   UNL     1      -0.768  -3.643   2.653  0.00  0.00    +0.156 HD
ATOM     19  H   UNL     1      -2.570  -0.863  -3.250  0.00  0.00    +0.160 HD
ENDROOT
BRANCH  17  20
ATOM     20  C   UNL     1      -2.547  -3.607   3.701  0.00  0.00    +0.038 A 
ATOM     21  C   UNL     1      -3.562  -2.719   4.028  0.00  0.00    +0.027 A 
ATOM     22  C   UNL     1      -4.413  -2.998   5.080  0.00  0.00    +0.051 A 
ATOM     23  C   UNL     1      -4.256  -4.165   5.813  0.00  0.00    +0.162 A 
ATOM     24  C   UNL     1      -3.242  -5.058   5.486  0.00  0.00    +0.164 A 
ATOM     25  C   UNL     1      -2.390  -4.778   4.428  0.00  0.00    +0.072 A 
ATOM     26  O   UNL     1      -3.077  -6.212   6.188  0.00  0.00    -0.485 OA
ATOM     27  C   UNL     1      -3.713  -6.283   7.469  0.00  0.00    +0.270 C 
ATOM     28  C   UNL     1      -5.152  -5.773   7.320  0.00  0.00    +0.270 C 
ATOM     29  O   UNL     1      -5.102  -4.421   6.849  0.00  0.00    -0.485 OA
ENDBRANCH  17  20
BRANCH   1  35
ATOM     30  C   UNL     1      -1.248   0.939  -0.366  0.00  0.00    +0.008 A 
ATOM     31  C   UNL     1      -0.386   2.012  -0.491  0.00  0.00    +0.038 A 
ATOM     32  C   UNL     1       0.905   1.813  -0.950  0.00  0.00    +0.123 A 
ATOM     33  C   UNL     1       1.331   0.538  -1.283  0.00  0.00    +0.038 A 
ATOM     34  C   UNL     1       0.468  -0.533  -1.157  0.00  0.00    +0.008 A 
ATOM     35  C   UNL     1      -0.821  -0.333  -0.698  0.00  0.00    -0.025 A 
ATOM     36  F   UNL     1       1.748   2.861  -1.073  0.00  0.00    -0.205 F 
ENDBRANCH   1  35
TORSDOF 2
