REMARK  Name = ZINC18947634
REMARK  6 active torsions:
REMARK  status: ('A' for Active; 'I' for Inactive)
REMARK    1  A    between atoms: C_1  and  C_2
REMARK    2  A    between atoms: C_5  and  C_8
REMARK    3  A    between atoms: C_10  and  C_13
REMARK    4  A    between atoms: C_13  and  C_14
REMARK    5  A    between atoms: C_14  and  C_15
REMARK    6  A    between atoms: N_17  and  C_18
REMARK                            x       y       z     vdW  Elec       q    Type
REMARK                         _______ _______ _______ _____ _____    ______ ____
ROOT
ATOM      1  C   UNL     1       0.002  -0.004   0.008  0.00  0.00    +0.218 C 
ATOM      2  O   UNL     1       1.061  -0.597  -0.010  0.00  0.00    -0.275 OA
ATOM      3  N   UNL     1      -1.156  -0.694   0.009  0.00  0.00    -0.284 N 
ATOM      4  H   UNL     1      -2.000  -0.223   0.089  0.00  0.00    +0.155 HD
ENDROOT
BRANCH   3   5
ATOM      5  C   UNL     1      -1.140  -2.090  -0.104  0.00  0.00    +0.051 A 
ATOM      6  C   UNL     1      -0.112  -2.822   0.473  0.00  0.00    +0.073 A 
ATOM      7  C   UNL     1      -0.097  -4.204   0.362  0.00  0.00    +0.164 A 
ATOM      8  C   UNL     1      -1.113  -4.855  -0.328  0.00  0.00    +0.163 A 
ATOM      9  C   UNL     1      -2.139  -4.121  -0.905  0.00  0.00    +0.066 A 
ATOM     10  C   UNL     1      -2.156  -2.743  -0.790  0.00  0.00    +0.043 A 
ATOM     11 BR   UNL     1      -3.560  -1.747  -1.572  0.00  0.00    -0.048 Br
ATOM     12  O   UNL     1      -1.118  -6.212  -0.444  0.00  0.00    -0.485 OA
ATOM     13  C   UNL     1       0.118  -6.885  -0.178  0.00  0.00    +0.270 C 
ATOM     14  C   UNL     1       0.707  -6.311   1.118  0.00  0.00    +0.270 C 
ATOM     15  O   UNL     1       0.920  -4.908   0.930  0.00  0.00    -0.485 OA
ENDBRANCH   3   5
BRANCH   1  16
ATOM     16  C   UNL     1      -0.017   1.502   0.027  0.00  0.00    +0.105 C 
BRANCH  16  17
ATOM     17  C   UNL     1       1.418   2.031   0.021  0.00  0.00    +0.108 C 
BRANCH  17  20
ATOM     18  C   UNL     1       1.377   5.572   0.640  0.00  0.00    +0.202 A 
ATOM     19  N   UNL     1       1.398   4.302   1.105  0.00  0.00    -0.191 NA
ATOM     20  C   UNL     1       1.398   3.538   0.041  0.00  0.00    +0.228 A 
ATOM     21  O   UNL     1       1.384   4.346  -1.024  0.00  0.00    -0.338 OA
ATOM     22  N   UNL     1       1.366   5.505  -0.666  0.00  0.00    -0.056 NA
BRANCH  18  27
ATOM     23  C   UNL     1       1.336  10.376   3.816  0.00  0.00    +0.044 C 
ATOM     24  C   UNL     1       1.347   9.119   2.985  0.00  0.00    -0.050 A 
ATOM     25  C   UNL     1       1.335   9.206   1.605  0.00  0.00    +0.004 A 
ATOM     26  C   UNL     1       1.345   8.057   0.839  0.00  0.00    +0.012 A 
ATOM     27  C   UNL     1       1.367   6.810   1.458  0.00  0.00    +0.022 A 
ATOM     28  C   UNL     1       1.374   6.728   2.849  0.00  0.00    +0.012 A 
ATOM     29  C   UNL     1       1.369   7.883   3.606  0.00  0.00    +0.004 A 
ENDBRANCH  18  27
ENDBRANCH  17  20
ENDBRANCH  16  17
ENDBRANCH   1  16
TORSDOF 5
