REMARK  Name = ZINC35523020
REMARK  6 active torsions:
REMARK  status: ('A' for Active; 'I' for Inactive)
REMARK    1  A    between atoms: C_4  and  C_7
REMARK    2  A    between atoms: C_7  and  C_8
REMARK    3  A    between atoms: C_7  and  N_14
REMARK    4  A    between atoms: C_20  and  C_22
REMARK    5  A    between atoms: C_22  and  N_23
REMARK    6  A    between atoms: C_31  and  C_33
REMARK                            x       y       z     vdW  Elec       q    Type
REMARK                         _______ _______ _______ _____ _____    ______ ____
ROOT
ATOM      1  N   UNL     1       3.611  -1.868  -0.933  0.00  0.00    -0.289 NA
ATOM      2  C   UNL     1       3.188  -1.459  -2.279  0.00  0.00    +0.104 C 
ATOM      3  C   UNL     1       2.921  -2.707  -3.127  0.00  0.00    +0.123 C 
ATOM      4  N   UNL     1       4.115  -3.565  -3.084  0.00  0.00    -0.301 N 
ATOM      5  C   UNL     1       4.680  -3.906  -1.770  0.00  0.00    +0.123 C 
ATOM      6  C   UNL     1       4.878  -2.611  -0.975  0.00  0.00    +0.104 C 
ATOM      7  C   UNL     1       4.675  -4.028  -4.219  0.00  0.00    +0.199 C 
ATOM      8  O   UNL     1       4.196  -3.738  -5.295  0.00  0.00    -0.278 OA
ENDROOT
BRANCH   1   9
ATOM      9  C   UNL     1       3.711  -0.707  -0.038  0.00  0.00    +0.117 C 
BRANCH   9  13
ATOM     10  C   UNL     1      -0.017   1.378   0.010  0.00  0.00    +0.000 A 
ATOM     11  C   UNL     1       1.171   2.086   0.002  0.00  0.00    +0.000 A 
ATOM     12  C   UNL     1       2.377   1.411  -0.013  0.00  0.00    +0.005 A 
ATOM     13  C   UNL     1       2.396   0.029  -0.020  0.00  0.00    -0.026 A 
ATOM     14  C   UNL     1       1.208  -0.679  -0.012  0.00  0.00    +0.005 A 
ATOM     15  C   UNL     1       0.002  -0.004   0.002  0.00  0.00    +0.000 A 
ENDBRANCH   9  13
BRANCH   9  16
ATOM     16  C   UNL     1       4.044  -1.175   1.356  0.00  0.00    -0.026 A 
ATOM     17  C   UNL     1       3.455  -2.320   1.860  0.00  0.00    +0.005 A 
ATOM     18  C   UNL     1       3.760  -2.748   3.138  0.00  0.00    +0.000 A 
ATOM     19  C   UNL     1       4.654  -2.033   3.912  0.00  0.00    +0.000 A 
ATOM     20  C   UNL     1       5.243  -0.888   3.408  0.00  0.00    +0.000 A 
ATOM     21  C   UNL     1       4.941  -0.462   2.128  0.00  0.00    +0.005 A 
ENDBRANCH   9  16
ENDBRANCH   1   9
BRANCH   7  22
ATOM     22  C   UNL     1       5.898  -4.906  -4.152  0.00  0.00    +0.020 C 
BRANCH  22  23
ATOM     23  N   UNL     1       6.312  -5.274  -5.513  0.00  0.00    +0.395 N 
ATOM     24  C   UNL     1       6.726  -4.068  -6.240  0.00  0.00    -0.055 C 
ATOM     25  C   UNL     1       6.857  -4.380  -7.736  0.00  0.00    +0.103 C 
ATOM     26  N   UNL     1       7.697  -5.576  -7.879  0.00  0.00    -0.353 N 
ATOM     27  C   UNL     1       8.321  -6.036  -8.992  0.00  0.00    +0.086 A 
ATOM     28  C   UNL     1       8.989  -7.163  -8.664  0.00  0.00    +0.019 A 
ATOM     29  C   UNL     1       8.764  -7.406  -7.292  0.00  0.00    +0.021 A 
ATOM     30  C   UNL     1       7.971  -6.425  -6.838  0.00  0.00    +0.009 A 
ATOM     31  C   UNL     1       7.432  -6.228  -5.442  0.00  0.00    +0.012 C 
ATOM     32  H   UNL     1       5.536  -5.704  -5.994  0.00  0.00    -0.080 HD
BRANCH  31  33
ATOM     33  C   UNL     1       6.946  -7.545  -4.894  0.00  0.00    -0.037 A 
ATOM     34  C   UNL     1       5.618  -7.902  -5.031  0.00  0.00    +0.004 A 
ATOM     35  C   UNL     1       5.171  -9.110  -4.529  0.00  0.00    +0.000 A 
ATOM     36  C   UNL     1       6.053  -9.961  -3.889  0.00  0.00    +0.001 A 
ATOM     37  C   UNL     1       7.381  -9.605  -3.751  0.00  0.00    +0.020 A 
ATOM     38  C   UNL     1       7.830  -8.398  -4.259  0.00  0.00    +0.043 A 
ATOM     39 CL   UNL     1       9.499  -7.953  -4.092  0.00  0.00    -0.083 Cl
ENDBRANCH  31  33
ENDBRANCH  22  23
ENDBRANCH   7  22
TORSDOF 6
