REMARK  Name = ZINC35375052
REMARK  8 active torsions:
REMARK  status: ('A' for Active; 'I' for Inactive)
REMARK    1  A    between atoms: C_1  and  C_2
REMARK    2  A    between atoms: C_2  and  C_3
REMARK    3  A    between atoms: C_3  and  C_5
REMARK    4  A    between atoms: C_3  and  C_6
REMARK    5  A    between atoms: C_6  and  N_7
REMARK    6  A    between atoms: C_8  and  C_10
REMARK    7  A    between atoms: N_23  and  C_24
REMARK    8  A    between atoms: C_28  and  C_30
REMARK                            x       y       z     vdW  Elec       q    Type
REMARK                         _______ _______ _______ _____ _____    ______ ____
ROOT
ATOM      1  C   UNL     1       2.208  -4.484   3.602  0.00  0.00    +0.028 C 
ATOM      2  C   UNL     1       2.197  -3.829   5.015  0.00  0.00    +0.061 C 
ATOM      3  S   UNL     1       3.046  -5.182   5.949  0.00  0.00    -0.174 S 
ATOM      4  C   UNL     1       2.447  -6.582   4.918  0.00  0.00    -0.016 C 
ATOM      5  N   UNL     1       1.960  -5.926   3.695  0.00  0.00    +0.397 N 
ATOM      6  C   UNL     1       3.604  -7.523   4.616  0.00  0.00    +0.017 C 
ATOM      7  C   UNL     1       3.107  -8.679   3.740  0.00  0.00    +0.109 C 
ATOM      8  N   UNL     1       1.948  -9.302   4.395  0.00  0.00    -0.285 N 
ATOM      9  C   UNL     1       0.807  -8.455   4.771  0.00  0.00    +0.109 C 
ATOM     10  C   UNL     1       1.318  -7.301   5.641  0.00  0.00    +0.017 C 
ATOM     11  C   UNL     1       1.932 -10.626   4.646  0.00  0.00    +0.306 C 
ATOM     12  O   UNL     1       2.840 -11.330   4.252  0.00  0.00    -0.252 OA
ATOM     13  N   UNL     1       0.908 -11.168   5.335  0.00  0.00    -0.269 N 
ATOM     14  H   UNL     1       0.965  -6.079   3.629  0.00  0.00    -0.083 HD
ATOM     15  H   UNL     1       0.135 -10.628   5.560  0.00  0.00    +0.156 HD
ATOM     16  H   UNL     1       2.398  -6.373   2.903  0.00  0.00    -0.083 HD
ENDROOT
BRANCH  13  17
ATOM     17  C   UNL     1       0.962 -12.511   5.726  0.00  0.00    +0.035 A 
ATOM     18  C   UNL     1       2.179 -13.090   6.061  0.00  0.00    +0.023 A 
ATOM     19  C   UNL     1       2.228 -14.415   6.447  0.00  0.00    +0.002 A 
ATOM     20  C   UNL     1       1.067 -15.166   6.498  0.00  0.00    +0.003 A 
ATOM     21  C   UNL     1      -0.146 -14.592   6.165  0.00  0.00    -0.049 A 
ATOM     22  C   UNL     1      -0.203 -13.265   5.784  0.00  0.00    +0.026 A 
ATOM     23  C   UNL     1      -1.408 -15.414   6.222  0.00  0.00    +0.044 C 
ENDBRANCH  13  17
BRANCH   1  25
ATOM     24  N   UNL     1       1.171  -2.526   2.502  0.00  0.00    -0.316 N 
ATOM     25  C   UNL     1       1.137  -3.849   2.753  0.00  0.00    +0.200 C 
ATOM     26  O   UNL     1       0.243  -4.530   2.296  0.00  0.00    -0.278 OA
ATOM     27  H   UNL     1       1.886  -1.981   2.868  0.00  0.00    +0.149 HD
BRANCH  24  28
ATOM     28  C   UNL     1       0.130  -1.909   1.677  0.00  0.00    +0.107 C 
BRANCH  28  29
ATOM     29  C   UNL     1       0.402  -0.409   1.549  0.00  0.00    +0.003 C 
ATOM     30  C   UNL     1       1.708  -0.191   0.781  0.00  0.00    +0.009 C 
BRANCH  29  32
ATOM     31  C   UNL     1      -0.541   1.771   0.773  0.00  0.00    +0.004 C 
ATOM     32  C   UNL     1      -0.751   0.256   0.793  0.00  0.00    +0.001 C 
ENDBRANCH  29  32
ENDBRANCH  28  29
ENDBRANCH  24  28
ENDBRANCH   1  25
TORSDOF 5
