REMARK  Name = ZINC20242417
REMARK  6 active torsions:
REMARK  status: ('A' for Active; 'I' for Inactive)
REMARK    1  A    between atoms: C_1  and  C_2
REMARK    2  A    between atoms: C_7  and  N_12
REMARK    3  A    between atoms: C_9  and  C_11
REMARK    4  A    between atoms: C_13  and  C_15
REMARK    5  A    between atoms: N_21  and  C_32
REMARK    6  A    between atoms: C_32  and  C_33
REMARK                            x       y       z     vdW  Elec       q    Type
REMARK                         _______ _______ _______ _____ _____    ______ ____
ROOT
ATOM      1  C   UNL     1       1.077   1.649   0.176  0.00  0.00    +0.039 A 
ATOM      2  C   UNL     1       0.928   3.035   0.246  0.00  0.00    +0.014 A 
ATOM      3  C   UNL     1       2.046   3.842   0.248  0.00  0.00    +0.020 A 
ATOM      4  C   UNL     1       3.312   3.288   0.169  0.00  0.00    +0.065 A 
ATOM      5  C   UNL     1       3.477   1.914   0.096  0.00  0.00    +0.054 A 
ATOM      6  C   UNL     1       2.350   1.093   0.099  0.00  0.00    +0.037 A 
ATOM      7  N   UNL     1       4.724   1.320   0.024  0.00  0.00    -0.262 N 
ATOM      8  C   UNL     1       5.768   1.619  -0.703  0.00  0.00    +0.252 C 
ATOM      9  O   UNL     1       6.729   0.887  -0.567  0.00  0.00    -0.270 OA
ATOM     10  C   UNL     1       5.939   2.715  -1.659  0.00  0.00    +0.053 A 
ATOM     11  C   UNL     1       6.564   2.462  -2.888  0.00  0.00    +0.014 A 
ATOM     12  C   UNL     1       6.731   3.478  -3.802  0.00  0.00    +0.001 A 
ATOM     13  C   UNL     1       6.283   4.756  -3.514  0.00  0.00    +0.001 A 
ATOM     14  C   UNL     1       5.665   5.016  -2.304  0.00  0.00    +0.018 A 
ATOM     15  C   UNL     1       5.495   4.006  -1.380  0.00  0.00    +0.056 A 
ATOM     16  S   UNL     1       4.717   4.352   0.162  0.00  0.00    +0.088 S 
ATOM     17  O   UNL     1       5.589   3.777   1.125  0.00  0.00    -0.247 OA
ENDROOT
BRANCH   1  19
ATOM     18  N   UNL     1      -1.348   1.314   0.247  0.00  0.00    -0.308 N 
ATOM     19  C   UNL     1      -0.115   0.774   0.178  0.00  0.00    +0.244 C 
ATOM     20  O   UNL     1       0.017  -0.433   0.112  0.00  0.00    -0.270 OA
ATOM     21  H   UNL     1      -1.467   2.406   0.306  0.00  0.00    +0.149 HD
BRANCH  18  27
ATOM     22  C   UNL     1      -4.611  -1.032   1.677  0.00  0.00    +0.008 C 
ATOM     23  C   UNL     1      -4.925   0.263   0.924  0.00  0.00    -0.009 C 
ATOM     24  C   UNL     1      -5.311  -0.067  -0.519  0.00  0.00    +0.003 C 
ATOM     25  C   UNL     1      -4.148  -0.787  -1.206  0.00  0.00    +0.002 C 
ATOM     26  C   UNL     1      -2.914   0.118  -1.201  0.00  0.00    +0.022 C 
ATOM     27  C   UNL     1      -2.529   0.448   0.242  0.00  0.00    +0.076 C 
ATOM     28  C   UNL     1      -3.692   1.167   0.929  0.00  0.00    +0.009 C 
ATOM     29  C   UNL     1      -3.306   1.497   2.372  0.00  0.00    +0.009 C 
ENDBRANCH  18  27
ENDBRANCH   1  19
BRANCH   7  30
ATOM     30  C   UNL     1       4.905   0.165   0.907  0.00  0.00    +0.152 C 
BRANCH  30  31
ATOM     31  C   UNL     1       5.559   0.611   2.189  0.00  0.00    +0.005 A 
ATOM     32  C   UNL     1       6.910   0.397   2.387  0.00  0.00    +0.008 A 
ATOM     33  C   UNL     1       7.512   0.811   3.560  0.00  0.00    +0.000 A 
ATOM     34  C   UNL     1       6.761   1.430   4.543  0.00  0.00    +0.003 A 
ATOM     35  C   UNL     1       5.409   1.639   4.350  0.00  0.00    +0.038 A 
ATOM     36  C   UNL     1       4.806   1.230   3.172  0.00  0.00    +0.128 A 
ATOM     37  F   UNL     1       3.484   1.435   2.983  0.00  0.00    -0.205 F 
ENDBRANCH  30  31
ENDBRANCH   7  30
TORSDOF 4
