REMARK  Name = ZINC20903789
REMARK  7 active torsions:
REMARK  status: ('A' for Active; 'I' for Inactive)
REMARK    1  A    between atoms: C_1  and  C_2
REMARK    2  A    between atoms: C_2  and  C_3
REMARK    3  A    between atoms: C_6  and  C_9
REMARK    4  A    between atoms: C_12  and  C_34
REMARK    5  A    between atoms: C_19  and  C_22
REMARK    6  A    between atoms: C_22  and  C_23
REMARK    7  A    between atoms: N_25  and  C_26
REMARK                            x       y       z     vdW  Elec       q    Type
REMARK                         _______ _______ _______ _____ _____    ______ ____
ROOT
ATOM      1  C   UNL     1      -2.470  -0.494   0.039  0.00  0.00    +0.136 C 
ATOM      2  C   UNL     1      -3.212  -1.846   0.041  0.00  0.00    +0.087 C 
ATOM      3  C   UNL     1      -2.102  -2.871   0.032  0.00  0.00    +0.069 C 
ATOM      4  N   UNL     1      -0.962  -2.271   0.020  0.00  0.00    -0.182 NA
ATOM      5  N   UNL     1      -1.050  -0.881   0.020  0.00  0.00    -0.195 N 
ATOM      6  C   UNL     1       0.007  -0.018   0.009  0.00  0.00    +0.170 C 
ATOM      7  N   UNL     1      -0.017   1.309   0.008  0.00  0.00    -0.157 NA
ATOM      8  C   UNL     1       1.046   2.065  -0.002  0.00  0.00    +0.252 C 
ATOM      9  O   UNL     1       0.981   3.279  -0.002  0.00  0.00    -0.272 OA
ATOM     10  C   UNL     1       2.376   1.321  -0.015  0.00  0.00    +0.150 C 
ATOM     11  S   UNL     1       1.752  -0.408  -0.009  0.00  0.00    -0.078 S 
ENDROOT
BRANCH   1  15
ATOM     12  C   UNL     1      -3.465   1.754  -3.454  0.00  0.00    -0.048 A 
ATOM     13  C   UNL     1      -4.011   2.098  -2.232  0.00  0.00    +0.004 A 
ATOM     14  C   UNL     1      -3.689   1.371  -1.101  0.00  0.00    +0.006 A 
ATOM     15  C   UNL     1      -2.821   0.299  -1.193  0.00  0.00    -0.025 A 
ATOM     16  C   UNL     1      -2.272  -0.043  -2.415  0.00  0.00    +0.006 A 
ATOM     17  C   UNL     1      -2.597   0.682  -3.546  0.00  0.00    +0.004 A 
BRANCH  12  19
ATOM     18  C   UNL     1      -2.820   3.697  -4.854  0.00  0.00    +0.009 C 
ATOM     19  C   UNL     1      -3.816   2.547  -4.686  0.00  0.00    +0.032 C 
ENDBRANCH  12  19
ENDBRANCH   1  15
BRANCH   3  20
ATOM     20  C   UNL     1      -2.293  -4.333   0.036  0.00  0.00    -0.002 A 
ATOM     21  C   UNL     1      -3.582  -4.872   0.055  0.00  0.00    +0.010 A 
ATOM     22  C   UNL     1      -3.754  -6.241   0.052  0.00  0.00    +0.001 A 
ATOM     23  C   UNL     1      -2.654  -7.080   0.043  0.00  0.00    +0.000 A 
ATOM     24  C   UNL     1      -1.374  -6.553   0.030  0.00  0.00    +0.001 A 
ATOM     25  C   UNL     1      -1.187  -5.186   0.026  0.00  0.00    +0.010 A 
ENDBRANCH   3  20
BRANCH  10  26
ATOM     26  C   UNL     1       3.173   1.622  -1.285  0.00  0.00    +0.120 C 
BRANCH  26  27
ATOM     27  C   UNL     1       4.436   0.799  -1.292  0.00  0.00    +0.219 C 
ATOM     28  O   UNL     1       4.675   0.046  -0.372  0.00  0.00    -0.275 OA
ATOM     29  N   UNL     1       5.301   0.900  -2.321  0.00  0.00    -0.285 N 
ATOM     30  H   UNL     1       5.049   1.525  -3.191  0.00  0.00    +0.155 HD
BRANCH  29  31
ATOM     31  C   UNL     1       6.519   0.211  -2.283  0.00  0.00    +0.036 A 
ATOM     32  C   UNL     1       7.655   0.775  -2.848  0.00  0.00    +0.026 A 
ATOM     33  C   UNL     1       8.857   0.096  -2.804  0.00  0.00    +0.043 A 
ATOM     34  C   UNL     1       8.928  -1.151  -2.208  0.00  0.00    +0.159 A 
ATOM     35  C   UNL     1       7.794  -1.720  -1.649  0.00  0.00    +0.160 A 
ATOM     36  C   UNL     1       6.590  -1.040  -1.685  0.00  0.00    +0.064 A 
ATOM     37  F   UNL     1       7.866  -2.937  -1.067  0.00  0.00    -0.202 F 
ATOM     38  F   UNL     1      10.104  -1.815  -2.172  0.00  0.00    -0.202 F 
ENDBRANCH  29  31
ENDBRANCH  26  27
ENDBRANCH  10  26
TORSDOF 6
