REMARK  Name = ZINC36764589
REMARK  7 active torsions:
REMARK  status: ('A' for Active; 'I' for Inactive)
REMARK    1  A    between atoms: C_1  and  C_2
REMARK    2  A    between atoms: C_2  and  C_3
REMARK    3  A    between atoms: C_2  and  C_4
REMARK    4  A    between atoms: C_2  and  C_5
REMARK    5  A    between atoms: C_7  and  C_10
REMARK    6  A    between atoms: C_10  and  C_12
REMARK    7  A    between atoms: C_10  and  N_22
REMARK                            x       y       z     vdW  Elec       q    Type
REMARK                         _______ _______ _______ _____ _____    ______ ____
ROOT
ATOM      1  C   UNL     1       3.576  -0.751  -3.427  0.00  0.00    +0.029 C 
ENDROOT
BRANCH   1   2
ATOM      2  C   UNL     1       4.302  -2.061  -3.257  0.00  0.00    -0.054 A 
ATOM      3  C   UNL     1       3.970  -3.141  -4.074  0.00  0.00    +0.003 A 
ATOM      4  C   UNL     1       4.606  -4.337  -3.946  0.00  0.00    +0.009 A 
ATOM      5  C   UNL     1       5.613  -4.490  -2.977  0.00  0.00    -0.018 A 
ATOM      6  C   UNL     1       6.292  -5.710  -2.816  0.00  0.00    +0.008 A 
ATOM      7  C   UNL     1       7.262  -5.820  -1.868  0.00  0.00    +0.001 A 
ATOM      8  C   UNL     1       7.594  -4.740  -1.051  0.00  0.00    +0.001 A 
ATOM      9  C   UNL     1       6.958  -3.544  -1.179  0.00  0.00    +0.008 A 
ATOM     10  C   UNL     1       5.951  -3.392  -2.147  0.00  0.00    -0.018 A 
ATOM     11  C   UNL     1       5.275  -2.170  -2.312  0.00  0.00    +0.011 A 
ENDBRANCH   1   2
BRANCH   1  14
ATOM     12  C   UNL     1       0.707  -0.490  -1.238  0.00  0.00    +0.233 A 
ATOM     13  N   UNL     1       1.943  -0.232  -1.565  0.00  0.00    -0.197 NA
ATOM     14  C   UNL     1       2.243  -0.821  -2.728  0.00  0.00    +0.162 A 
ATOM     15  N   UNL     1       1.196  -1.464  -3.157  0.00  0.00    -0.063 NA
ATOM     16  O   UNL     1       0.175  -1.266  -2.191  0.00  0.00    -0.338 OA
BRANCH  12  18
ATOM     17  C   UNL     1      -0.019   1.526   0.010  0.00  0.00    +0.020 C 
ATOM     18  C   UNL     1       0.002  -0.004   0.002  0.00  0.00    +0.041 C 
ATOM     19  C   UNL     1       0.742  -0.511   1.242  0.00  0.00    +0.020 C 
ATOM     20  C   UNL     1      -1.433  -0.534   0.013  0.00  0.00    +0.020 C 
ENDBRANCH  12  18
ENDBRANCH   1  14
BRANCH   1  21
ATOM     21  N   UNL     1       3.365  -0.490  -4.858  0.00  0.00    +0.387 N 
ATOM     22  H   UNL     1       2.814  -1.235  -5.258  0.00  0.00    -0.089 HD
ATOM     23  H   UNL     1       2.880   0.386  -4.971  0.00  0.00    -0.089 HD
ATOM     24  H   UNL     1       4.258  -0.444  -5.326  0.00  0.00    -0.089 HD
ENDBRANCH   1  21
TORSDOF 4
