REMARK  Name = ZINC13500289
REMARK  17 active torsions:
REMARK  status: ('A' for Active; 'I' for Inactive)
REMARK    1  A    between atoms: C_1  and  C_2
REMARK    2  A    between atoms: C_4  and  C_33
REMARK    3  A    between atoms: C_9  and  C_14
REMARK    4  A    between atoms: C_14  and  N_68
REMARK    5  A    between atoms: C_15  and  C_16
REMARK    6  A    between atoms: C_15  and  N_68
REMARK    7  A    between atoms: C_16  and  C_17
REMARK    8  A    between atoms: C_17  and  O_18
REMARK    9  A    between atoms: C_19  and  C_21
REMARK   10  A    between atoms: C_19  and  C_30
REMARK   11  A    between atoms: C_19  and  N_68
REMARK   12  A    between atoms: N_25  and  C_26
REMARK   13  A    between atoms: C_26  and  C_27
REMARK   14  A    between atoms: C_26  and  C_28
REMARK   15  A    between atoms: C_26  and  C_29
REMARK   16  A    between atoms: C_30  and  C_31
REMARK   17  A    between atoms: C_30  and  C_32
REMARK                            x       y       z     vdW  Elec       q    Type
REMARK                         _______ _______ _______ _____ _____    ______ ____
ROOT
ATOM      1  N   UNL     1      -1.269  -1.381   1.130  0.00  0.00    +0.389 N 
ATOM      2  H   UNL     1      -1.135  -0.366   1.208  0.00  0.00    -0.080 HD
ENDROOT
BRANCH   1   3
ATOM      3  C   UNL     1      -0.713  -1.841  -0.160  0.00  0.00    -0.037 C 
BRANCH   3  12
ATOM      4  C   UNL     1      -5.020  -7.240  -2.974  0.00  0.00    +0.044 C 
ATOM      5  C   UNL     1      -3.807  -6.797  -2.196  0.00  0.00    -0.050 A 
ATOM      6  C   UNL     1      -2.948  -7.747  -1.662  0.00  0.00    +0.008 A 
ATOM      7  C   UNL     1      -1.833  -7.365  -0.947  0.00  0.00    -0.026 A 
ATOM      8  C   UNL     1      -1.565  -6.013  -0.758  0.00  0.00    +0.052 A 
ATOM      9  C   UNL     1      -2.439  -5.053  -1.301  0.00  0.00    -0.001 A 
ATOM     10  C   UNL     1      -3.564  -5.464  -2.023  0.00  0.00    +0.013 A 
ATOM     11  C   UNL     1      -2.147  -3.632  -1.097  0.00  0.00    +0.017 A 
ATOM     12  C   UNL     1      -1.042  -3.293  -0.389  0.00  0.00    +0.001 A 
ATOM     13  C   UNL     1      -0.198  -4.296   0.135  0.00  0.00    +0.251 A 
ATOM     14  O   UNL     1       0.793  -3.969   0.764  0.00  0.00    -0.268 OA
ATOM     15  N   UNL     1      -0.458  -5.603  -0.047  0.00  0.00    -0.322 N 
ATOM     16  H   UNL     1       0.144  -6.266   0.327  0.00  0.00    +0.169 HD
ATOM     17  C   UNL     1      -0.909  -8.408  -0.373  0.00  0.00    +0.046 C 
ENDBRANCH   3  12
ENDBRANCH   1   3
BRANCH   1  18
ATOM     18  C   UNL     1      -0.567  -2.045   2.248  0.00  0.00    -0.075 C 
BRANCH  18  19
ATOM     19  C   UNL     1       0.848  -1.472   2.351  0.00  0.00    +0.009 C 
BRANCH  19  20
ATOM     20  C   UNL     1       1.540  -2.041   3.591  0.00  0.00    +0.154 C 
BRANCH  20  21
ATOM     21  O   UNL     1       2.862  -1.505   3.687  0.00  0.00    -0.395 OA
ATOM     22  H   UNL     1       3.360  -1.824   4.452  0.00  0.00    +0.209 HD
ENDBRANCH  20  21
ENDBRANCH  19  20
ENDBRANCH  18  19
ENDBRANCH   1  18
BRANCH   1  23
ATOM     23  C   UNL     1      -2.715  -1.680   1.193  0.00  0.00    +0.006 C 
BRANCH  23  24
ATOM     24  C   UNL     1      -3.244  -1.264   2.541  0.00  0.00    +0.139 A 
ATOM     25  N   UNL     1      -3.163  -0.071   3.079  0.00  0.00    -0.115 NA
ATOM     26  N   UNL     1      -3.732  -0.117   4.234  0.00  0.00    -0.023 NA
ATOM     27  N   UNL     1      -4.174  -1.307   4.447  0.00  0.00    -0.043 NA
ATOM     28  N   UNL     1      -3.898  -2.042   3.423  0.00  0.00    -0.226 N 
BRANCH  28  29
ATOM     29  C   UNL     1      -4.229  -3.459   3.255  0.00  0.00    +0.059 C 
ATOM     30  C   UNL     1      -2.940  -4.271   3.115  0.00  0.00    +0.036 C 
ATOM     31  C   UNL     1      -5.011  -3.949   4.476  0.00  0.00    +0.036 C 
ATOM     32  C   UNL     1      -5.083  -3.637   1.998  0.00  0.00    +0.036 C 
ENDBRANCH  28  29
ENDBRANCH  23  24
BRANCH  23  33
ATOM     33  C   UNL     1      -3.432  -0.889   0.097  0.00  0.00    -0.024 C 
ATOM     34  C   UNL     1      -4.942  -1.111   0.212  0.00  0.00    +0.006 C 
ATOM     35  C   UNL     1      -3.122   0.601   0.257  0.00  0.00    +0.006 C 
ENDBRANCH  23  33
ENDBRANCH   1  23
TORSDOF 10
