REMARK  Name = ZINC08710302
REMARK  7 active torsions:
REMARK  status: ('A' for Active; 'I' for Inactive)
REMARK    1  A    between atoms: C_1  and  C_2
REMARK    2  A    between atoms: C_10  and  C_11
REMARK    3  A    between atoms: C_11  and  C_12
REMARK    4  A    between atoms: N_14  and  C_15
REMARK    5  A    between atoms: C_18  and  N_21
REMARK    6  A    between atoms: N_21  and  S_22
REMARK    7  A    between atoms: S_22  and  C_25
REMARK                            x       y       z     vdW  Elec       q    Type
REMARK                         _______ _______ _______ _____ _____    ______ ____
ROOT
ATOM      1  C   UNL     1       4.929   1.959  -4.275  0.00  0.00    +0.034 A 
ATOM      2  C   UNL     1       5.776   0.858  -4.254  0.00  0.00    +0.025 A 
ATOM      3  C   UNL     1       5.551  -0.169  -3.359  0.00  0.00    +0.026 A 
ATOM      4  C   UNL     1       4.478  -0.101  -2.480  0.00  0.00    +0.048 A 
ATOM      5  C   UNL     1       3.628   0.997  -2.505  0.00  0.00    +0.026 A 
ATOM      6  C   UNL     1       3.857   2.026  -3.396  0.00  0.00    +0.025 A 
ENDROOT
BRANCH   1   9
ATOM      7  C   UNL     1       5.675   2.735  -6.399  0.00  0.00    +0.222 C 
ATOM      8  O   UNL     1       5.855   1.585  -6.743  0.00  0.00    -0.275 OA
ATOM      9  N   UNL     1       5.158   3.001  -5.184  0.00  0.00    -0.285 N 
ATOM     10  H   UNL     1       4.944   3.915  -4.937  0.00  0.00    +0.155 HD
BRANCH   7  11
ATOM     11  C   UNL     1       6.030   3.864  -7.331  0.00  0.00    +0.135 C 
BRANCH  11  21
ATOM     12  C   UNL     1       4.552   1.289 -13.547  0.00  0.00    +0.044 C 
ATOM     13  C   UNL     1       5.007   1.835 -12.219  0.00  0.00    -0.047 A 
ATOM     14  C   UNL     1       4.065   2.262 -11.293  0.00  0.00    +0.004 A 
ATOM     15  C   UNL     1       4.460   2.760 -10.082  0.00  0.00    +0.012 A 
ATOM     16  C   UNL     1       5.819   2.838  -9.778  0.00  0.00    +0.024 A 
ATOM     17  C   UNL     1       6.777   2.410 -10.712  0.00  0.00    +0.135 A 
ATOM     18  C   UNL     1       6.354   1.912 -11.938  0.00  0.00    +0.050 A 
ATOM     19  O   UNL     1       7.990   2.594 -10.153  0.00  0.00    -0.463 OA
ATOM     20  C   UNL     1       7.876   3.118  -8.921  0.00  0.00    +0.200 A 
ATOM     21  C   UNL     1       6.585   3.301  -8.614  0.00  0.00    +0.007 A 
ENDBRANCH  11  21
ENDBRANCH   7  11
ENDBRANCH   1   9
BRANCH   4  22
ATOM     22  N   UNL     1       4.250  -1.142  -1.573  0.00  0.00    -0.216 N 
ATOM     23  H   UNL     1       3.519  -1.762  -1.721  0.00  0.00    +0.174 HD
BRANCH  22  24
ATOM     24  S   UNL     1       5.228  -1.315  -0.248  0.00  0.00    +0.072 S 
ATOM     25  O   UNL     1       6.566  -1.307  -0.728  0.00  0.00    -0.150 OA
ATOM     26  O   UNL     1       4.697  -2.393   0.510  0.00  0.00    -0.150 OA
BRANCH  24  27
ATOM     27  C   UNL     1       5.037   0.135   0.734  0.00  0.00    +0.112 A 
ATOM     28  C   UNL     1       3.993   0.225   1.636  0.00  0.00    +0.032 A 
ATOM     29  C   UNL     1       3.838   1.361   2.407  0.00  0.00    +0.051 A 
ATOM     30  C   UNL     1       4.731   2.415   2.278  0.00  0.00    +0.162 A 
ATOM     31  C   UNL     1       5.781   2.324   1.373  0.00  0.00    +0.164 A 
ATOM     32  C   UNL     1       5.930   1.181   0.601  0.00  0.00    +0.078 A 
ATOM     33  O   UNL     1       6.673   3.343   1.236  0.00  0.00    -0.485 OA
ATOM     34  C   UNL     1       6.277   4.618   1.753  0.00  0.00    +0.270 C 
ATOM     35  C   UNL     1       5.688   4.407   3.154  0.00  0.00    +0.270 C 
ATOM     36  O   UNL     1       4.561   3.531   3.038  0.00  0.00    -0.485 OA
ENDBRANCH  24  27
ENDBRANCH  22  24
ENDBRANCH   4  22
TORSDOF 6
