REMARK  Name = ZINC23362131
REMARK  14 active torsions:
REMARK  status: ('A' for Active; 'I' for Inactive)
REMARK    1  A    between atoms: C_1  and  C_2
REMARK    2  A    between atoms: C_2  and  N_3
REMARK    3  A    between atoms: N_3  and  C_4
REMARK    4  A    between atoms: N_3  and  C_6
REMARK    5  A    between atoms: C_4  and  C_5
REMARK    6  A    between atoms: C_9  and  C_12
REMARK    7  A    between atoms: C_12  and  N_13
REMARK    8  A    between atoms: C_15  and  N_30
REMARK    9  A    between atoms: C_18  and  C_20
REMARK   10  A    between atoms: N_22  and  C_23
REMARK   11  A    between atoms: C_23  and  C_24
REMARK   12  A    between atoms: N_30  and  C_31
REMARK   13  A    between atoms: C_31  and  C_32
REMARK   14  A    between atoms: C_33  and  C_34
REMARK                            x       y       z     vdW  Elec       q    Type
REMARK                         _______ _______ _______ _____ _____    ______ ____
ROOT
ATOM      1  N   UNL     1      -2.231  -0.260  -7.192  0.00  0.00    +0.391 N 
ATOM      2  C   UNL     1      -2.856   0.826  -6.414  0.00  0.00    -0.059 C 
ATOM      3  C   UNL     1      -4.158   1.220  -7.144  0.00  0.00    +0.036 C 
ATOM      4  C   UNL     1      -3.908   0.729  -8.594  0.00  0.00    +0.010 C 
ATOM      5  C   UNL     1      -3.097  -0.568  -8.350  0.00  0.00    +0.021 C 
ATOM      6  H   UNL     1      -1.323   0.037  -7.516  0.00  0.00    -0.080 HD
ENDROOT
BRANCH   5   7
ATOM      7  C   UNL     1      -2.259  -0.898  -9.558  0.00  0.00    +0.200 C 
ATOM      8  O   UNL     1      -1.049  -0.883  -9.479  0.00  0.00    -0.278 OA
ATOM      9  N   UNL     1      -2.854  -1.210 -10.726  0.00  0.00    -0.312 N 
ATOM     10  H   UNL     1      -3.822  -1.223 -10.789  0.00  0.00    +0.149 HD
BRANCH   9  11
ATOM     11  C   UNL     1      -2.040  -1.531 -11.901  0.00  0.00    +0.141 C 
BRANCH  11  12
ATOM     12  C   UNL     1      -2.941  -1.842 -13.068  0.00  0.00    -0.012 A 
ATOM     13  C   UNL     1      -3.372  -3.140 -13.297  0.00  0.00    +0.008 A 
ATOM     14  C   UNL     1      -4.200  -3.379 -14.382  0.00  0.00    +0.020 A 
ATOM     15  C   UNL     1      -4.567  -2.323 -15.195  0.00  0.00    +0.111 A 
ATOM     16  N   UNL     1      -4.138  -1.101 -14.947  0.00  0.00    -0.263 NA
ATOM     17  C   UNL     1      -3.354  -0.836 -13.920  0.00  0.00    +0.115 A 
ENDBRANCH  11  12
ENDBRANCH   9  11
ENDBRANCH   5   7
BRANCH   3  18
ATOM     18  N   UNL     1      -4.351   2.676  -7.110  0.00  0.00    -0.310 NA
ATOM     19  H   UNL     1      -3.958   3.074  -6.271  0.00  0.00    +0.122 HD
BRANCH  18  20
ATOM     20  C   UNL     1      -5.774   3.021  -7.240  0.00  0.00    +0.128 C 
BRANCH  20  21
ATOM     21  C   UNL     1      -5.932   4.519  -7.202  0.00  0.00    +0.033 C 
ATOM     22  C   UNL     1      -6.379   5.166  -8.271  0.00  0.00    +0.024 C 
ATOM     23 CL   UNL     1      -5.531   5.398  -5.760  0.00  0.00    -0.087 Cl
BRANCH  22  24
ATOM     24  C   UNL     1      -6.689   6.609  -8.185  0.00  0.00    -0.024 A 
ATOM     25  C   UNL     1      -6.492   7.435  -9.292  0.00  0.00    +0.008 A 
ATOM     26  C   UNL     1      -6.784   8.780  -9.206  0.00  0.00    +0.001 A 
ATOM     27  C   UNL     1      -7.271   9.311  -8.024  0.00  0.00    +0.000 A 
ATOM     28  C   UNL     1      -7.469   8.498  -6.923  0.00  0.00    +0.001 A 
ATOM     29  C   UNL     1      -7.186   7.149  -6.998  0.00  0.00    +0.008 A 
ENDBRANCH  22  24
ENDBRANCH  20  21
ENDBRANCH  18  20
ENDBRANCH   3  18
BRANCH   1  30
ATOM     30  C   UNL     1      -2.090  -1.454  -6.348  0.00  0.00    -0.042 C 
BRANCH  30  34
ATOM     31  C   UNL     1       0.687  -0.656  -3.199  0.00  0.00    +0.030 A 
ATOM     32  C   UNL     1      -0.666  -0.400  -3.015  0.00  0.00    +0.023 A 
ATOM     33  C   UNL     1      -1.560  -0.659  -4.035  0.00  0.00    +0.003 A 
ATOM     34  C   UNL     1      -1.111  -1.172  -5.238  0.00  0.00    -0.064 A 
ATOM     35  C   UNL     1       0.235  -1.428  -5.424  0.00  0.00    +0.003 A 
ATOM     36  C   UNL     1       1.136  -1.166  -4.410  0.00  0.00    +0.023 A 
BRANCH  31  37
ATOM     37  N   UNL     1       1.595  -0.395  -2.170  0.00  0.00    -0.330 N 
BRANCH  37  39
ATOM     38  C   UNL     1       1.134   1.672  -0.947  0.00  0.00    +0.024 C 
ATOM     39  C   UNL     1       1.119   0.143  -0.893  0.00  0.00    +0.102 C 
ENDBRANCH  37  39
BRANCH  37  40
ATOM     40  C   UNL     1       3.022  -0.660  -2.368  0.00  0.00    +0.102 C 
ATOM     41  C   UNL     1       3.339  -2.093  -1.938  0.00  0.00    +0.024 C 
ENDBRANCH  37  40
ENDBRANCH  31  37
ENDBRANCH  30  34
ENDBRANCH   1  30
TORSDOF 12
