REMARK  Name = ZINC20567858
REMARK  6 active torsions:
REMARK  status: ('A' for Active; 'I' for Inactive)
REMARK    1  A    between atoms: C_1  and  C_2
REMARK    2  A    between atoms: C_5  and  S_8
REMARK    3  A    between atoms: S_8  and  N_11
REMARK    4  A    between atoms: N_11  and  C_12
REMARK    5  A    between atoms: N_11  and  C_26
REMARK    6  A    between atoms: C_12  and  C_13
REMARK                            x       y       z     vdW  Elec       q    Type
REMARK                         _______ _______ _______ _____ _____    ______ ____
ROOT
ATOM      1  N   UNL     1       0.133   0.146  -0.265  0.00  0.00    -0.194 N 
ENDROOT
BRANCH   1   2
ATOM      2  C   UNL     1       0.446  -0.698   0.804  0.00  0.00    +0.053 A 
ATOM      3  C   UNL     1       1.011  -0.176   1.960  0.00  0.00    +0.026 A 
ATOM      4  C   UNL     1       1.314  -1.010   3.018  0.00  0.00    +0.023 A 
ATOM      5  C   UNL     1       1.067  -2.369   2.922  0.00  0.00    +0.059 A 
ATOM      6  C   UNL     1       0.510  -2.894   1.768  0.00  0.00    +0.061 A 
ATOM      7  C   UNL     1       0.199  -2.061   0.709  0.00  0.00    +0.046 A 
ATOM      8 CL   UNL     1       0.201  -4.598   1.651  0.00  0.00    -0.082 Cl
ATOM      9 CL   UNL     1       1.456  -3.416   4.251  0.00  0.00    -0.082 Cl
ENDBRANCH   1   2
BRANCH   1  10
ATOM     10  S   UNL     1      -0.931   1.397  -0.048  0.00  0.00    +0.075 S 
ATOM     11  O   UNL     1      -1.483   1.686  -1.325  0.00  0.00    -0.150 OA
ATOM     12  O   UNL     1      -1.737   1.055   1.071  0.00  0.00    -0.150 OA
BRANCH  10  17
ATOM     13  C   UNL     1       2.302   6.228   1.568  0.00  0.00    +0.044 C 
ATOM     14  C   UNL     1       1.494   5.022   1.164  0.00  0.00    -0.050 A 
ATOM     15  C   UNL     1       1.357   4.697  -0.172  0.00  0.00    +0.005 A 
ATOM     16  C   UNL     1       0.616   3.590  -0.543  0.00  0.00    +0.029 A 
ATOM     17  C   UNL     1       0.013   2.807   0.424  0.00  0.00    +0.109 A 
ATOM     18  C   UNL     1       0.146   3.134   1.760  0.00  0.00    +0.029 A 
ATOM     19  C   UNL     1       0.891   4.239   2.131  0.00  0.00    +0.005 A 
ENDBRANCH  10  17
ENDBRANCH   1  10
BRANCH   1  20
ATOM     20  C   UNL     1       0.745  -0.076  -1.577  0.00  0.00    +0.227 C 
BRANCH  20  21
ATOM     21  C   UNL     1       2.090   0.602  -1.625  0.00  0.00    +0.239 C 
ATOM     22  O   UNL     1       2.497   1.210  -0.658  0.00  0.00    -0.273 OA
ATOM     23  N   UNL     1       2.841   0.532  -2.742  0.00  0.00    -0.259 N 
ATOM     24  C   UNL     1       2.370  -0.199  -3.928  0.00  0.00    +0.209 C 
ATOM     25  C   UNL     1       3.518  -0.984  -4.509  0.00  0.00    +0.235 C 
ATOM     26  O   UNL     1       3.296  -2.014  -5.109  0.00  0.00    -0.274 OA
ATOM     27  N   UNL     1       4.787  -0.557  -4.369  0.00  0.00    -0.283 N 
ATOM     28  C   UNL     1       5.075   0.601  -3.639  0.00  0.00    +0.055 A 
ATOM     29  C   UNL     1       4.094   1.160  -2.813  0.00  0.00    +0.058 A 
ATOM     30  C   UNL     1       4.363   2.303  -2.083  0.00  0.00    +0.025 A 
ATOM     31  C   UNL     1       5.607   2.902  -2.178  0.00  0.00    +0.002 A 
ATOM     32  C   UNL     1       6.578   2.359  -2.999  0.00  0.00    +0.002 A 
ATOM     33  C   UNL     1       6.320   1.204  -3.727  0.00  0.00    +0.025 A 
ATOM     34  H   UNL     1       5.611  -1.119  -4.832  0.00  0.00    +0.155 HD
ENDBRANCH  20  21
ENDBRANCH   1  20
TORSDOF 5
