REMARK  Name = ZINC02201338
REMARK  8 active torsions:
REMARK  status: ('A' for Active; 'I' for Inactive)
REMARK    1  A    between atoms: C_1  and  O_2
REMARK    2  A    between atoms: O_2  and  C_3
REMARK    3  A    between atoms: C_3  and  C_5
REMARK    4  A    between atoms: C_10  and  N_11
REMARK    5  A    between atoms: N_11  and  C_12
REMARK    6  A    between atoms: C_13  and  C_14
REMARK    7  A    between atoms: C_13  and  C_16
REMARK    8  A    between atoms: C_18  and  C_21
REMARK                            x       y       z     vdW  Elec       q    Type
REMARK                         _______ _______ _______ _____ _____    ______ ____
ROOT
ATOM      1  C   UNL     1      -6.254  -0.485  -0.092  0.00  0.00    +0.120 A 
ATOM      2  N   UNL     1      -7.178   0.448   0.085  0.00  0.00    -0.238 NA
ATOM      3  C   UNL     1      -6.863   1.731   0.098  0.00  0.00    +0.086 A 
ATOM      4  C   UNL     1      -5.555   2.104  -0.074  0.00  0.00    +0.075 A 
ATOM      5  S   UNL     1      -4.774   0.505  -0.252  0.00  0.00    -0.074 S 
ENDROOT
BRANCH   3   6
ATOM      6  C   UNL     1      -7.912   2.757   0.297  0.00  0.00    +0.086 A 
ATOM      7  C   UNL     1      -9.241   2.406   0.479  0.00  0.00    +0.029 A 
ATOM      8  C   UNL     1     -10.188   3.443   0.631  0.00  0.00    +0.026 A 
ATOM      9  C   UNL     1     -11.562   3.150   1.042  0.00  0.00    -0.007 A 
ATOM     10  C   UNL     1     -11.993   1.843   1.279  0.00  0.00    +0.009 A 
ATOM     11  C   UNL     1     -13.284   1.616   1.662  0.00  0.00    +0.001 A 
ATOM     12  C   UNL     1     -14.177   2.671   1.818  0.00  0.00    +0.001 A 
ATOM     13  C   UNL     1     -13.788   3.958   1.594  0.00  0.00    +0.008 A 
ATOM     14  C   UNL     1     -12.467   4.226   1.200  0.00  0.00    -0.017 A 
ATOM     15  C   UNL     1     -12.029   5.544   0.962  0.00  0.00    +0.012 A 
ATOM     16  C   UNL     1     -10.755   5.799   0.572  0.00  0.00    +0.047 A 
ATOM     17  C   UNL     1      -9.822   4.773   0.393  0.00  0.00    +0.140 A 
ATOM     18  O   UNL     1      -8.568   5.061  -0.032  0.00  0.00    -0.422 OA
ATOM     19  C   UNL     1      -7.588   4.193   0.316  0.00  0.00    +0.347 A 
ATOM     20  O   UNL     1      -6.479   4.584   0.630  0.00  0.00    -0.244 OA
ENDBRANCH   3   6
BRANCH   1  22
ATOM     21  C   UNL     1      -7.003  -2.608   0.895  0.00  0.00    +0.093 C 
ATOM     22  C   UNL     1      -6.405  -1.952  -0.138  0.00  0.00    +0.098 C 
BRANCH  21  23
ATOM     23  N   UNL     1      -7.365  -1.923   2.022  0.00  0.00    -0.319 N 
ATOM     24  H   UNL     1      -7.267  -0.959   2.056  0.00  0.00    +0.152 HD
BRANCH  23  30
ATOM     25  C   UNL     1      -8.362  -1.901   4.229  0.00  0.00    +0.080 A 
ATOM     26  C   UNL     1      -8.877  -2.603   5.322  0.00  0.00    +0.017 A 
ATOM     27  C   UNL     1      -8.899  -3.980   5.306  0.00  0.00    +0.001 A 
ATOM     28  C   UNL     1      -8.413  -4.676   4.210  0.00  0.00    +0.002 A 
ATOM     29  C   UNL     1      -7.901  -3.998   3.123  0.00  0.00    +0.024 A 
ATOM     30  C   UNL     1      -7.875  -2.608   3.118  0.00  0.00    +0.045 A 
BRANCH  25  31
ATOM     31  C   UNL     1      -8.335  -0.428   4.239  0.00  0.00    +0.341 C 
ATOM     32  O   UNL     1      -7.791   0.177   3.336  0.00  0.00    -0.245 OA
BRANCH  31  34
ATOM     33  C   UNL     1      -8.851   1.676   5.195  0.00  0.00    +0.280 C 
ATOM     34  O   UNL     1      -8.915   0.250   5.250  0.00  0.00    -0.464 OA
ENDBRANCH  31  34
ENDBRANCH  25  31
ENDBRANCH  23  30
ENDBRANCH  21  23
BRANCH  22  35
ATOM     35  C   UNL     1      -5.923  -2.686  -1.269  0.00  0.00    +0.103 C 
ATOM     36  N   UNL     1      -5.541  -3.269  -2.167  0.00  0.00    -0.191 NA
ENDBRANCH  22  35
ENDBRANCH   1  22
TORSDOF 7
