REMARK  Name = ZINC13215628
REMARK  8 active torsions:
REMARK  status: ('A' for Active; 'I' for Inactive)
REMARK    1  A    between atoms: C_1  and  C_2
REMARK    2  A    between atoms: C_5  and  C_8
REMARK    3  A    between atoms: C_8  and  C_10
REMARK    4  A    between atoms: N_14  and  C_26
REMARK    5  A    between atoms: C_15  and  C_17
REMARK    6  A    between atoms: C_20  and  N_23
REMARK    7  A    between atoms: C_28  and  C_33
REMARK    8  A    between atoms: C_31  and  C_32
REMARK                            x       y       z     vdW  Elec       q    Type
REMARK                         _______ _______ _______ _____ _____    ______ ____
ROOT
ATOM      1  C   UNL     1       0.195  -4.978   1.238  0.00  0.00    +0.077 C 
ATOM      2  C   UNL     1       0.249  -6.331   1.232  0.00  0.00    +0.250 C 
ATOM      3  C   UNL     1       0.242  -6.824   2.625  0.00  0.00    +0.292 C 
ATOM      4  O   UNL     1       0.283  -7.993   2.952  0.00  0.00    -0.266 OA
ATOM      5  N   UNL     1       0.183  -5.785   3.479  0.00  0.00    -0.253 N 
ATOM      6  C   UNL     1       0.154  -4.551   2.687  0.00  0.00    +0.150 C 
ATOM      7  O   UNL     1       0.303  -7.109   0.126  0.00  0.00    -0.282 OA
ENDROOT
BRANCH   5   8
ATOM      8  C   UNL     1       0.158  -5.868   4.874  0.00  0.00    +0.041 A 
ATOM      9  C   UNL     1       1.327  -5.698   5.600  0.00  0.00    +0.039 A 
ATOM     10  C   UNL     1       1.296  -5.782   6.993  0.00  0.00    +0.065 A 
ATOM     11  C   UNL     1       0.087  -6.037   7.646  0.00  0.00    +0.015 A 
ATOM     12  C   UNL     1      -1.070  -6.205   6.914  0.00  0.00    +0.006 A 
ATOM     13  C   UNL     1      -1.040  -6.116   5.534  0.00  0.00    -0.029 A 
ATOM     14  C   UNL     1      -2.311  -6.295   4.743  0.00  0.00    +0.045 C 
BRANCH  10  15
ATOM     15  C   UNL     1       2.535  -5.602   7.773  0.00  0.00    +0.387 C 
ATOM     16  O   UNL     1       3.592  -5.379   7.199  0.00  0.00    -0.241 OA
ATOM     17  O   UNL     1       2.506  -5.676   8.993  0.00  0.00    -0.241 OA
ENDBRANCH  10  15
ENDBRANCH   5   8
BRANCH   6  18
ATOM     18  C   UNL     1      -1.115  -3.788   2.966  0.00  0.00    -0.022 A 
ATOM     19  C   UNL     1      -1.144  -2.838   3.970  0.00  0.00    +0.008 A 
ATOM     20  C   UNL     1      -2.308  -2.139   4.227  0.00  0.00    +0.033 A 
ATOM     21  C   UNL     1      -3.444  -2.389   3.479  0.00  0.00    +0.126 A 
ATOM     22  C   UNL     1      -3.415  -3.338   2.475  0.00  0.00    +0.033 A 
ATOM     23  C   UNL     1      -2.249  -4.034   2.215  0.00  0.00    +0.008 A 
BRANCH  21  24
ATOM     24  N   UNL     1      -4.691  -1.641   3.755  0.00  0.00    +0.056 N 
ATOM     25  O   UNL     1      -4.716  -0.811   4.634  0.00  0.00    -0.126 OA
ATOM     26  O   UNL     1      -5.684  -1.859   3.101  0.00  0.00    -0.126 OA
ENDBRANCH  21  24
ENDBRANCH   6  18
BRANCH   1  27
ATOM     27  C   UNL     1       0.183  -4.099   0.066  0.00  0.00    +0.195 C 
ATOM     28  O   UNL     1      -0.778  -4.092  -0.680  0.00  0.00    -0.287 OA
BRANCH  27  33
ATOM     29  C   UNL     1       4.682  -0.674  -1.006  0.00  0.00    +0.044 C 
ATOM     30  C   UNL     1       3.504  -1.571  -0.725  0.00  0.00    -0.050 A 
ATOM     31  C   UNL     1       2.430  -1.591  -1.598  0.00  0.00    +0.004 A 
ATOM     32  C   UNL     1       1.349  -2.409  -1.347  0.00  0.00    +0.012 A 
ATOM     33  C   UNL     1       1.339  -3.219  -0.210  0.00  0.00    +0.022 A 
ATOM     34  C   UNL     1       2.426  -3.194   0.666  0.00  0.00    +0.012 A 
ATOM     35  C   UNL     1       3.503  -2.375   0.401  0.00  0.00    +0.004 A 
ENDBRANCH  27  33
ENDBRANCH   1  27
TORSDOF 6
