REMARK  Name = ZINC41116349
REMARK  5 active torsions:
REMARK  status: ('A' for Active; 'I' for Inactive)
REMARK    1  A    between atoms: C_3  and  C_9
REMARK    2  A    between atoms: C_4  and  O_8
REMARK    3  A    between atoms: C_5  and  O_7
REMARK    4  A    between atoms: C_9  and  N_10
REMARK    5  A    between atoms: N_10  and  C_11
REMARK                            x       y       z     vdW  Elec       q    Type
REMARK                         _______ _______ _______ _____ _____    ______ ____
ROOT
ATOM      1  N   UNL     1       4.198   2.251  -1.388  0.00  0.00    -0.339 N 
ATOM      2  H   UNL     1       3.717   1.820  -2.111  0.00  0.00    +0.146 HD
ENDROOT
BRANCH   1   3
ATOM      3  C   UNL     1       5.397   2.925  -1.649  0.00  0.00    +0.031 A 
ATOM      4  C   UNL     1       6.089   3.537  -0.612  0.00  0.00    +0.027 A 
ATOM      5  C   UNL     1       7.272   4.203  -0.870  0.00  0.00    +0.051 A 
ATOM      6  C   UNL     1       7.772   4.261  -2.162  0.00  0.00    +0.162 A 
ATOM      7  C   UNL     1       7.083   3.647  -3.201  0.00  0.00    +0.164 A 
ATOM      8  C   UNL     1       5.897   2.976  -2.942  0.00  0.00    +0.072 A 
ATOM      9  O   UNL     1       7.562   3.687  -4.474  0.00  0.00    -0.485 OA
ATOM     10  C   UNL     1       8.557   4.677  -4.757  0.00  0.00    +0.270 C 
ATOM     11  C   UNL     1       9.602   4.644  -3.633  0.00  0.00    +0.270 C 
ATOM     12  O   UNL     1       8.938   4.926  -2.396  0.00  0.00    -0.485 OA
ENDBRANCH   1   3
BRANCH   1  13
ATOM     13  C   UNL     1       3.670   2.198  -0.023  0.00  0.00    +0.140 C 
BRANCH  13  16
ATOM     14  C   UNL     1      -0.017   1.378   0.010  0.00  0.00    +0.004 A 
ATOM     15  C   UNL     1       1.169   2.089   0.002  0.00  0.00    +0.009 A 
ATOM     16  C   UNL     1       2.379   1.420  -0.013  0.00  0.00    +0.015 A 
ATOM     17  C   UNL     1       2.405   0.035  -0.021  0.00  0.00    +0.163 A 
ATOM     18  C   UNL     1       1.211  -0.680  -0.013  0.00  0.00    +0.159 A 
ATOM     19  C   UNL     1       0.002  -0.004   0.002  0.00  0.00    +0.049 A 
BRANCH  18  20
ATOM     20  O   UNL     1       1.232  -2.040  -0.021  0.00  0.00    -0.503 OA
ATOM     21  H   UNL     1       1.246  -2.438   0.860  0.00  0.00    +0.292 HD
ENDBRANCH  18  20
BRANCH  17  22
ATOM     22  O   UNL     1       3.594  -0.625  -0.037  0.00  0.00    -0.503 OA
ATOM     23  H   UNL     1       3.947  -0.820   0.842  0.00  0.00    +0.292 HD
ENDBRANCH  17  22
ENDBRANCH  13  16
ENDBRANCH   1  13
TORSDOF 5
