REMARK  Name = ZINC33250666
REMARK  8 active torsions:
REMARK  status: ('A' for Active; 'I' for Inactive)
REMARK    1  A    between atoms: C_1  and  C_2
REMARK    2  A    between atoms: C_5  and  C_8
REMARK    3  A    between atoms: C_9  and  C_10
REMARK    4  A    between atoms: C_11  and  S_16
REMARK    5  A    between atoms: C_12  and  C_15
REMARK    6  A    between atoms: S_16  and  N_19
REMARK    7  A    between atoms: C_23  and  C_26
REMARK    8  A    between atoms: N_28  and  C_29
REMARK                            x       y       z     vdW  Elec       q    Type
REMARK                         _______ _______ _______ _____ _____    ______ ____
ROOT
ATOM      1  N   UNL     1       2.189  -2.476  -1.620  0.00  0.00    -0.176 NA
ATOM      2  C   UNL     1       1.105  -3.168  -2.330  0.00  0.00    +0.109 C 
ATOM      3  C   UNL     1       0.792  -2.393  -3.619  0.00  0.00    +0.018 C 
ATOM      4  C   UNL     1       2.076  -2.234  -4.436  0.00  0.00    +0.015 C 
ATOM      5  C   UNL     1       3.100  -1.433  -3.629  0.00  0.00    +0.091 C 
ATOM      6  C   UNL     1       3.437  -2.192  -2.342  0.00  0.00    +0.122 C 
ENDROOT
BRANCH   5   7
ATOM      7  C   UNL     1       4.352  -1.249  -4.447  0.00  0.00    +0.222 C 
ATOM      8  O   UNL     1       5.410  -1.682  -4.042  0.00  0.00    -0.275 OA
ATOM      9  N   UNL     1       4.297  -0.604  -5.630  0.00  0.00    -0.285 N 
ATOM     10  H   UNL     1       3.327  -0.278  -6.033  0.00  0.00    +0.155 HD
BRANCH   9  11
ATOM     11  C   UNL     1       5.474  -0.348  -6.344  0.00  0.00    +0.037 A 
ATOM     12  C   UNL     1       6.515  -1.267  -6.319  0.00  0.00    +0.027 A 
ATOM     13  C   UNL     1       7.677  -1.014  -7.022  0.00  0.00    +0.051 A 
ATOM     14  C   UNL     1       7.808   0.157  -7.755  0.00  0.00    +0.162 A 
ATOM     15  C   UNL     1       6.766   1.076  -7.784  0.00  0.00    +0.164 A 
ATOM     16  C   UNL     1       5.598   0.820  -7.082  0.00  0.00    +0.072 A 
ATOM     17  O   UNL     1       6.873   2.227  -8.503  0.00  0.00    -0.485 OA
ATOM     18  C   UNL     1       8.194   2.624  -8.890  0.00  0.00    +0.270 C 
ATOM     19  C   UNL     1       8.917   1.395  -9.456  0.00  0.00    +0.270 C 
ATOM     20  O   UNL     1       8.964   0.392  -8.435  0.00  0.00    -0.485 OA
ENDBRANCH   9  11
ENDBRANCH   5   7
BRANCH   1  21
ATOM     21  S   UNL     1       2.011  -2.031  -0.035  0.00  0.00    +0.066 S 
ATOM     22  O   UNL     1       3.321  -1.930   0.508  0.00  0.00    -0.153 OA
ATOM     23  O   UNL     1       1.021  -2.886   0.518  0.00  0.00    -0.153 OA
BRANCH  21  25
ATOM     24  C   UNL     1       2.009   0.794  -0.022  0.00  0.00    +0.187 A 
ATOM     25  C   UNL     1       1.335  -0.404  -0.024  0.00  0.00    +0.174 A 
ATOM     26  C   UNL     1      -0.022  -0.027  -0.014  0.00  0.00    +0.107 A 
ATOM     27  N   UNL     1      -0.048   1.276  -0.008  0.00  0.00    -0.081 NA
ATOM     28  O   UNL     1       1.063   1.752  -0.013  0.00  0.00    -0.353 OA
ATOM     29  C   UNL     1      -1.212  -0.952  -0.011  0.00  0.00    +0.071 C 
BRANCH  24  31
ATOM     30  C   UNL     1       3.974   2.234  -0.028  0.00  0.00    +0.011 C 
ATOM     31  C   UNL     1       3.461   0.988  -0.030  0.00  0.00    +0.051 C 
BRANCH  30  36
ATOM     32  C   UNL     1       9.672   2.997  -0.059  0.00  0.00    +0.044 C 
ATOM     33  C   UNL     1       8.179   2.797  -0.050  0.00  0.00    -0.050 A 
ATOM     34  C   UNL     1       7.337   3.896  -0.040  0.00  0.00    +0.004 A 
ATOM     35  C   UNL     1       5.969   3.721  -0.033  0.00  0.00    +0.008 A 
ATOM     36  C   UNL     1       5.433   2.429  -0.035  0.00  0.00    -0.025 A 
ATOM     37  C   UNL     1       6.290   1.325  -0.039  0.00  0.00    +0.008 A 
ATOM     38  C   UNL     1       7.656   1.516  -0.053  0.00  0.00    +0.004 A 
ENDBRANCH  30  36
ENDBRANCH  24  31
ENDBRANCH  21  25
ENDBRANCH   1  21
TORSDOF 6
