REMARK  Name = ZINC06408699
REMARK  13 active torsions:
REMARK  status: ('A' for Active; 'I' for Inactive)
REMARK    1  A    between atoms: C_1  and  C_2
REMARK    2  A    between atoms: C_9  and  C_14
REMARK    3  A    between atoms: C_14  and  C_16
REMARK    4  A    between atoms: C_14  and  N_67
REMARK    5  A    between atoms: N_20  and  C_21
REMARK    6  A    between atoms: C_21  and  C_22
REMARK    7  A    between atoms: C_22  and  O_23
REMARK    8  A    between atoms: O_23  and  C_24
REMARK    9  A    between atoms: C_25  and  C_26
REMARK   10  A    between atoms: C_25  and  N_67
REMARK   11  A    between atoms: C_26  and  C_27
REMARK   12  A    between atoms: C_33  and  C_34
REMARK   13  A    between atoms: C_33  and  N_67
REMARK                            x       y       z     vdW  Elec       q    Type
REMARK                         _______ _______ _______ _____ _____    ______ ____
ROOT
ATOM      1  C   UNL     1       0.028  -0.007  -0.008  0.00  0.00    +0.039 C 
ENDROOT
BRANCH   1  10
ATOM      2  C   UNL     1      -3.841   6.354   0.435  0.00  0.00    +0.044 C 
ATOM      3  C   UNL     1      -2.529   5.617   0.345  0.00  0.00    -0.050 A 
ATOM      4  C   UNL     1      -1.339   6.331   0.320  0.00  0.00    +0.005 A 
ATOM      5  C   UNL     1      -0.128   5.678   0.239  0.00  0.00    +0.026 A 
ATOM      6  C   UNL     1      -0.096   4.288   0.179  0.00  0.00    +0.049 A 
ATOM      7  C   UNL     1      -1.305   3.567   0.204  0.00  0.00    -0.001 A 
ATOM      8  C   UNL     1      -2.522   4.252   0.288  0.00  0.00    +0.013 A 
ATOM      9  C   UNL     1      -1.262   2.106   0.135  0.00  0.00    +0.017 A 
ATOM     10  C   UNL     1      -0.052   1.497   0.059  0.00  0.00    +0.011 A 
ATOM     11  C   UNL     1       1.131   2.266   0.038  0.00  0.00    +0.251 A 
ATOM     12  O   UNL     1       2.207   1.699  -0.035  0.00  0.00    -0.268 OA
ATOM     13  N   UNL     1       1.100   3.609   0.096  0.00  0.00    -0.322 N 
ATOM     14  H   UNL     1       1.933   4.107   0.079  0.00  0.00    +0.169 HD
ENDBRANCH   1  10
BRANCH   1  15
ATOM     15  C   UNL     1       0.564  -0.421  -1.355  0.00  0.00    +0.143 A 
ATOM     16  N   UNL     1       1.808  -0.341  -1.760  0.00  0.00    -0.115 NA
ATOM     17  N   UNL     1       1.863  -0.792  -2.966  0.00  0.00    -0.023 NA
ATOM     18  N   UNL     1       0.687  -1.159  -3.339  0.00  0.00    -0.044 NA
ATOM     19  N   UNL     1      -0.141  -0.951  -2.372  0.00  0.00    -0.228 N 
BRANCH  19  20
ATOM     20  C   UNL     1      -1.578  -1.234  -2.380  0.00  0.00    +0.175 C 
BRANCH  20  21
ATOM     21  C   UNL     1      -2.337  -0.008  -2.893  0.00  0.00    +0.183 C 
BRANCH  21  22
ATOM     22  O   UNL     1      -3.739  -0.285  -2.901  0.00  0.00    -0.381 OA
ATOM     23  C   UNL     1      -4.542   0.801  -3.366  0.00  0.00    +0.194 C 
ENDBRANCH  21  22
ENDBRANCH  20  21
ENDBRANCH  19  20
ENDBRANCH   1  15
BRANCH   1  24
ATOM     24  N   UNL     1       0.950  -0.484   1.044  0.00  0.00    +0.392 N 
ATOM     25  H   UNL     1       1.865  -0.038   0.913  0.00  0.00    -0.080 HD
BRANCH  24  26
ATOM     26  C   UNL     1       1.112  -1.950   0.946  0.00  0.00    -0.072 C 
BRANCH  26  27
ATOM     27  C   UNL     1       2.313  -2.370   1.795  0.00  0.00    +0.016 C 
BRANCH  27  28
ATOM     28  C   UNL     1       2.588  -3.837   1.586  0.00  0.00    -0.049 A 
ATOM     29  C   UNL     1       1.983  -4.777   2.401  0.00  0.00    +0.003 A 
ATOM     30  C   UNL     1       2.231  -6.122   2.206  0.00  0.00    +0.000 A 
ATOM     31  C   UNL     1       3.092  -6.528   1.203  0.00  0.00    +0.000 A 
ATOM     32  C   UNL     1       3.701  -5.589   0.393  0.00  0.00    +0.000 A 
ATOM     33  C   UNL     1       3.449  -4.243   0.584  0.00  0.00    +0.003 A 
ENDBRANCH  27  28
ENDBRANCH  26  27
ENDBRANCH  24  26
BRANCH  24  34
ATOM     34  C   UNL     1       0.426  -0.122   2.377  0.00  0.00    -0.034 C 
BRANCH  34  35
ATOM     35  C   UNL     1      -0.876  -0.833   2.644  0.00  0.00    -0.027 A 
ATOM     36  C   UNL     1      -1.093  -2.003   3.294  0.00  0.00    +0.009 A 
ATOM     37  C   UNL     1      -2.388  -2.469   3.421  0.00  0.00    +0.008 A 
ATOM     38  C   UNL     1      -3.403  -1.743   2.893  0.00  0.00    +0.045 A 
ATOM     39  S   UNL     1      -2.534  -0.349   2.193  0.00  0.00    -0.103 S 
ENDBRANCH  34  35
ENDBRANCH  24  34
ENDBRANCH   1  24
TORSDOF 11
