REMARK  Name = ZINC39665648
REMARK  9 active torsions:
REMARK  status: ('A' for Active; 'I' for Inactive)
REMARK    1  A    between atoms: C_1  and  C_2
REMARK    2  A    between atoms: C_2  and  C_4
REMARK    3  A    between atoms: C_2  and  O_28
REMARK    4  A    between atoms: C_4  and  N_5
REMARK    5  A    between atoms: C_6  and  C_8
REMARK    6  A    between atoms: C_19  and  C_21
REMARK    7  A    between atoms: O_28  and  C_29
REMARK    8  A    between atoms: C_32  and  O_35
REMARK    9  A    between atoms: O_35  and  C_36
REMARK                            x       y       z     vdW  Elec       q    Type
REMARK                         _______ _______ _______ _____ _____    ______ ____
ROOT
ATOM      1  C   UNL     1       2.245  -3.037   2.654  0.00  0.00    +0.100 C 
ATOM      2  C   UNL     1       0.842  -3.684   2.664  0.00  0.00    +0.121 C 
ATOM      3  N   UNL     1       0.944  -4.783   3.653  0.00  0.00    -0.296 N 
ATOM      4  C   UNL     1       1.774  -4.220   4.745  0.00  0.00    +0.115 C 
ATOM      5  C   UNL     1       2.853  -3.390   4.022  0.00  0.00    -0.004 C 
ATOM      6  C   UNL     1       3.157  -2.120   4.810  0.00  0.00    -0.010 C 
ATOM      7  C   UNL     1       3.814  -2.494   6.141  0.00  0.00    -0.082 C 
ATOM      8  N   UNL     1       5.051  -3.243   5.885  0.00  0.00    +0.379 N 
ATOM      9  C   UNL     1       4.740  -4.508   5.209  0.00  0.00    -0.082 C 
ATOM     10  C   UNL     1       4.122  -4.218   3.838  0.00  0.00    -0.010 C 
ATOM     11  C   UNL     1       0.404  -6.015   3.577  0.00  0.00    +0.247 C 
ATOM     12  O   UNL     1      -0.165  -6.368   2.562  0.00  0.00    -0.270 OA
ATOM     13  H   UNL     1       5.661  -2.692   5.300  0.00  0.00    -0.086 HD
ATOM     14  H   UNL     1       5.513  -3.436   6.760  0.00  0.00    -0.086 HD
ENDROOT
BRANCH  11  15
ATOM     15  C   UNL     1       0.503  -6.938   4.727  0.00  0.00    +0.037 A 
ATOM     16  C   UNL     1       0.699  -6.435   6.015  0.00  0.00    +0.014 A 
ATOM     17  C   UNL     1       0.791  -7.301   7.084  0.00  0.00    +0.016 A 
ATOM     18  C   UNL     1       0.690  -8.667   6.883  0.00  0.00    +0.018 A 
ATOM     19  C   UNL     1       0.495  -9.172   5.608  0.00  0.00    +0.016 A 
ATOM     20  C   UNL     1       0.396  -8.316   4.532  0.00  0.00    +0.014 A 
ATOM     21 BR   UNL     1       0.817  -9.848   8.354  0.00  0.00    -0.050 Br
ENDBRANCH  11  15
BRANCH   1  23
ATOM     22  N   UNL     1       3.110  -0.853   1.879  0.00  0.00    -0.312 N 
ATOM     23  C   UNL     1       2.133  -1.542   2.501  0.00  0.00    +0.218 C 
ATOM     24  O   UNL     1       1.163  -0.959   2.937  0.00  0.00    -0.275 OA
ATOM     25  H   UNL     1       3.885  -1.319   1.530  0.00  0.00    +0.149 HD
BRANCH  22  26
ATOM     26  C   UNL     1       3.000   0.601   1.730  0.00  0.00    +0.148 C 
BRANCH  26  28
ATOM     27  C   UNL     1       4.117   2.650   0.838  0.00  0.00    +0.053 C 
ATOM     28  C   UNL     1       4.232   1.132   0.994  0.00  0.00    +0.187 C 
BRANCH  28  29
ATOM     29  O   UNL     1       5.407   0.818   1.744  0.00  0.00    -0.488 OA
BRANCH  29  30
ATOM     30  C   UNL     1       6.540   0.562   1.037  0.00  0.00    +0.121 A 
ATOM     31  C   UNL     1       7.679   0.114   1.690  0.00  0.00    +0.049 A 
ATOM     32  C   UNL     1       8.830  -0.146   0.972  0.00  0.00    +0.049 A 
ATOM     33  C   UNL     1       8.847   0.041  -0.402  0.00  0.00    +0.120 A 
ATOM     34  C   UNL     1       7.708   0.489  -1.056  0.00  0.00    +0.049 A 
ATOM     35  C   UNL     1       6.556   0.744  -0.338  0.00  0.00    +0.049 A 
BRANCH  33  36
ATOM     36  O   UNL     1       9.980  -0.214  -1.109  0.00  0.00    -0.495 OA
ATOM     37  C   UNL     1       9.927   0.001  -2.521  0.00  0.00    +0.277 C 
ENDBRANCH  33  36
ENDBRANCH  29  30
ENDBRANCH  28  29
ENDBRANCH  26  28
ENDBRANCH  22  26
ENDBRANCH   1  23
TORSDOF 7
