REMARK  Name = ZINC64070214
REMARK  7 active torsions:
REMARK  status: ('A' for Active; 'I' for Inactive)
REMARK    1  A    between atoms: C_7  and  C_10
REMARK    2  A    between atoms: C_10  and  C_11
REMARK    3  A    between atoms: C_11  and  N_12
REMARK    4  A    between atoms: N_15  and  C_16
REMARK    5  A    between atoms: C_16  and  C_17
REMARK    6  A    between atoms: C_17  and  N_18
REMARK    7  A    between atoms: C_19  and  C_21
REMARK                            x       y       z     vdW  Elec       q    Type
REMARK                         _______ _______ _______ _____ _____    ______ ____
ROOT
ATOM      1  N   UNL     1      -0.458  -4.798  -1.460  0.00  0.00    -0.299 N 
ATOM      2  C   UNL     1      -0.811  -5.380  -2.623  0.00  0.00    +0.300 C 
ATOM      3  O   UNL     1      -0.369  -4.956  -3.674  0.00  0.00    -0.253 OA
ATOM      4  N   UNL     1      -1.652  -6.433  -2.622  0.00  0.00    -0.298 N 
ATOM      5  H   UNL     1      -0.810  -5.136  -0.622  0.00  0.00    +0.150 HD
ATOM      6  H   UNL     1      -2.004  -6.771  -1.784  0.00  0.00    +0.150 HD
ENDROOT
BRANCH   1   7
ATOM      7  C   UNL     1       0.457  -3.653  -1.462  0.00  0.00    +0.110 C 
BRANCH   7   8
ATOM      8  C   UNL     1       0.691  -3.186  -0.024  0.00  0.00    +0.052 C 
BRANCH   8  15
ATOM      9  C   UNL     1      -0.016   1.348   0.009  0.00  0.00    +0.001 A 
ATOM     10  C   UNL     1       1.166   2.101   0.002  0.00  0.00    +0.002 A 
ATOM     11  C   UNL     1       2.391   1.535  -0.013  0.00  0.00    +0.026 A 
ATOM     12  C   UNL     1       2.529   0.120  -0.022  0.00  0.00    +0.043 A 
ATOM     13  N   UNL     1       3.587  -0.654  -0.037  0.00  0.00    -0.380 N 
ATOM     14  C   UNL     1       3.143  -2.053  -0.041  0.00  0.00    +0.144 C 
ATOM     15  C   UNL     1       1.631  -2.008  -0.025  0.00  0.00    -0.040 C 
ATOM     16  C   UNL     1       1.295  -0.698  -0.014  0.00  0.00    -0.001 A 
ATOM     17  C   UNL     1       0.002  -0.004   0.002  0.00  0.00    +0.010 A 
ATOM     18  H   UNL     1       4.509  -0.353  -0.045  0.00  0.00    +0.160 HD
ENDBRANCH   8  15
ENDBRANCH   7   8
ENDBRANCH   1   7
BRANCH   4  19
ATOM     19  C   UNL     1      -2.035  -7.066  -3.886  0.00  0.00    +0.124 C 
BRANCH  19  20
ATOM     20  C   UNL     1      -2.991  -8.228  -3.606  0.00  0.00    +0.123 C 
BRANCH  20  21
ATOM     21  N   UNL     1      -3.374  -8.861  -4.870  0.00  0.00    -0.311 N 
ATOM     22  C   UNL     1      -4.216  -9.914  -4.869  0.00  0.00    +0.254 C 
ATOM     23  O   UNL     1      -4.656 -10.337  -3.821  0.00  0.00    -0.272 OA
ATOM     24  H   UNL     1      -3.022  -8.523  -5.708  0.00  0.00    +0.149 HD
BRANCH  22  25
ATOM     25  C   UNL     1      -4.610 -10.565  -6.169  0.00  0.00    +0.261 C 
ATOM     26  C   UNL     1      -5.492  -9.618  -7.019  0.00  0.00    +0.084 C 
ATOM     27  C   UNL     1      -6.491 -10.589  -7.625  0.00  0.00    +0.015 C 
ATOM     28  C   UNL     1      -6.408 -11.712  -6.946  0.00  0.00    +0.184 C 
ATOM     29  O   UNL     1      -5.503 -11.673  -5.941  0.00  0.00    -0.487 OA
ENDBRANCH  22  25
ENDBRANCH  20  21
ENDBRANCH  19  20
ENDBRANCH   4  19
TORSDOF 7
