REMARK  Name = ZINC20596745
REMARK  5 active torsions:
REMARK  status: ('A' for Active; 'I' for Inactive)
REMARK    1  A    between atoms: C_5  and  O_8
REMARK    2  A    between atoms: O_8  and  C_9
REMARK    3  A    between atoms: C_9  and  C_10
REMARK    4  A    between atoms: C_10  and  N_11
REMARK    5  A    between atoms: C_13  and  C_16
REMARK                            x       y       z     vdW  Elec       q    Type
REMARK                         _______ _______ _______ _____ _____    ______ ____
ROOT
ATOM      1  O   UNL     1       2.323   3.868   0.001  0.00  0.00    -0.487 OA
ENDROOT
BRANCH   1   6
ATOM      2  C   UNL     1      -0.013   1.076   0.008  0.00  0.00    +0.043 A 
ATOM      3  C   UNL     1      -1.220   1.751   0.017  0.00  0.00    +0.044 A 
ATOM      4  C   UNL     1      -1.242   3.134   0.031  0.00  0.00    +0.043 A 
ATOM      5  C   UNL     1      -0.056   3.845   0.023  0.00  0.00    +0.085 A 
ATOM      6  C   UNL     1       1.156   3.171   0.008  0.00  0.00    +0.157 A 
ATOM      7  C   UNL     1       1.176   1.783   0.000  0.00  0.00    +0.085 A 
ATOM      8 CL   UNL     1       2.691   0.935  -0.018  0.00  0.00    -0.080 Cl
ATOM      9 CL   UNL     1      -0.085   5.581   0.033  0.00  0.00    -0.080 Cl
ATOM     10 CL   UNL     1      -2.711   0.860   0.019  0.00  0.00    -0.083 Cl
ENDBRANCH   1   6
BRANCH   1  11
ATOM     11  C   UNL     1       2.869   4.207  -1.275  0.00  0.00    +0.252 C 
BRANCH  11  12
ATOM     12  C   UNL     1       4.173   4.984  -1.083  0.00  0.00    +0.186 C 
BRANCH  12  13
ATOM     13  N   UNL     1       4.732   5.332  -2.391  0.00  0.00    -0.248 N 
ATOM     14  C   UNL     1       5.056   6.567  -2.824  0.00  0.00    +0.145 A 
ATOM     15  C   UNL     1       5.542   6.427  -4.093  0.00  0.00    +0.193 A 
ATOM     16  N   UNL     1       5.502   5.124  -4.423  0.00  0.00    -0.123 NA
ATOM     17  N   UNL     1       5.026   4.446  -3.437  0.00  0.00    -0.065 NA
BRANCH  15  18
ATOM     18  C   UNL     1       6.024   7.520  -4.957  0.00  0.00    +0.408 C 
ATOM     19  O   UNL     1       6.013   8.665  -4.551  0.00  0.00    -0.239 OA
ATOM     20  O   UNL     1       6.476   7.249  -6.197  0.00  0.00    -0.239 OA
ENDBRANCH  15  18
ENDBRANCH  12  13
ENDBRANCH  11  12
ENDBRANCH   1  11
TORSDOF 5
