REMARK  Name = ZINC28160549
REMARK  7 active torsions:
REMARK  status: ('A' for Active; 'I' for Inactive)
REMARK    1  A    between atoms: C_1  and  C_2
REMARK    2  A    between atoms: C_5  and  N_9
REMARK    3  A    between atoms: C_6  and  C_8
REMARK    4  A    between atoms: C_10  and  C_12
REMARK    5  A    between atoms: C_12  and  C_13
REMARK    6  A    between atoms: C_21  and  C_31
REMARK    7  A    between atoms: C_24  and  C_26
REMARK                            x       y       z     vdW  Elec       q    Type
REMARK                         _______ _______ _______ _____ _____    ______ ____
ROOT
ATOM      1  C   UNL     1      -3.559   2.170   0.127  0.00  0.00    +0.150 C 
ATOM      2  C   UNL     1      -4.956   1.561   0.128  0.00  0.00    +0.252 C 
ATOM      3  O   UNL     1      -5.359   0.856  -0.777  0.00  0.00    -0.272 OA
ATOM      4  N   UNL     1      -5.690   1.849   1.167  0.00  0.00    -0.157 NA
ATOM      5  C   UNL     1      -5.291   2.613   2.177  0.00  0.00    +0.170 C 
ATOM      6  S   UNL     1      -3.625   3.076   1.725  0.00  0.00    -0.078 S 
ATOM      7  N   UNL     1      -5.989   2.963   3.295  0.00  0.00    -0.195 N 
ATOM      8  C   UNL     1      -7.364   2.546   3.611  0.00  0.00    +0.136 C 
ATOM      9  C   UNL     1      -7.644   3.218   4.969  0.00  0.00    +0.087 C 
ATOM     10  C   UNL     1      -6.364   3.960   5.280  0.00  0.00    +0.075 C 
ATOM     11  N   UNL     1      -5.513   3.768   4.328  0.00  0.00    -0.181 NA
ENDROOT
BRANCH   8  12
ATOM     12  C   UNL     1      -8.324   3.049   2.563  0.00  0.00    -0.025 A 
ATOM     13  C   UNL     1      -8.155   4.309   2.020  0.00  0.00    +0.008 A 
ATOM     14  C   UNL     1      -9.031   4.769   1.055  0.00  0.00    +0.038 A 
ATOM     15  C   UNL     1     -10.085   3.972   0.640  0.00  0.00    +0.123 A 
ATOM     16  C   UNL     1     -10.256   2.712   1.189  0.00  0.00    +0.038 A 
ATOM     17  C   UNL     1      -9.375   2.252   2.150  0.00  0.00    +0.008 A 
ATOM     18  F   UNL     1     -10.945   4.423  -0.298  0.00  0.00    -0.205 F 
ENDBRANCH   8  12
BRANCH  10  19
ATOM     19  C   UNL     1      -6.123   4.767   6.481  0.00  0.00    +0.035 A 
ATOM     20  C   UNL     1      -4.988   5.470   6.847  0.00  0.00    +0.017 A 
ATOM     21  C   UNL     1      -5.003   6.164   8.034  0.00  0.00    +0.008 A 
ATOM     22  C   UNL     1      -6.119   6.130   8.809  0.00  0.00    +0.046 A 
ATOM     23  S   UNL     1      -7.215   5.094   7.855  0.00  0.00    -0.095 S 
ENDBRANCH  10  19
BRANCH   1  24
ATOM     24  C   UNL     1      -2.478   1.087   0.142  0.00  0.00    +0.120 C 
BRANCH  24  26
ATOM     25  N   UNL     1      -0.011   0.966   0.007  0.00  0.00    -0.285 N 
ATOM     26  C   UNL     1      -1.121   1.730   0.017  0.00  0.00    +0.219 C 
ATOM     27  O   UNL     1      -1.028   2.936  -0.076  0.00  0.00    -0.275 OA
ATOM     28  H   UNL     1      -0.098  -0.131   0.022  0.00  0.00    +0.155 HD
BRANCH  25  33
ATOM     29  C   UNL     1       5.111   3.402  -0.106  0.00  0.00    +0.044 C 
ATOM     30  C   UNL     1       3.750   2.755  -0.076  0.00  0.00    -0.050 A 
ATOM     31  C   UNL     1       2.692   3.341  -0.747  0.00  0.00    +0.005 A 
ATOM     32  C   UNL     1       1.445   2.750  -0.722  0.00  0.00    +0.024 A 
ATOM     33  C   UNL     1       1.252   1.567  -0.020  0.00  0.00    +0.036 A 
ATOM     34  C   UNL     1       2.315   0.985   0.658  0.00  0.00    -0.029 A 
ATOM     35  C   UNL     1       3.562   1.577   0.623  0.00  0.00    +0.008 A 
ATOM     36  C   UNL     1       2.109  -0.296   1.425  0.00  0.00    +0.045 C 
ENDBRANCH  25  33
ENDBRANCH  24  26
ENDBRANCH   1  24
TORSDOF 5
