REMARK  Name = ZINC04458965
REMARK  4 active torsions:
REMARK  status: ('A' for Active; 'I' for Inactive)
REMARK    1  A    between atoms: C_7  and  C_11
REMARK    2  A    between atoms: N_12  and  N_13
REMARK    3  A    between atoms: C_14  and  C_16
REMARK    4  A    between atoms: C_16  and  N_17
REMARK                            x       y       z     vdW  Elec       q    Type
REMARK                         _______ _______ _______ _____ _____    ______ ____
ROOT
ATOM      1  N   UNL     1      -1.111  -1.774   0.102  0.00  0.00    -0.206 N 
ATOM      2  C   UNL     1      -2.427  -1.579   0.320  0.00  0.00    +0.252 C 
ATOM      3  O   UNL     1      -3.159  -2.529   0.504  0.00  0.00    -0.272 OA
ATOM      4  H   UNL     1      -0.527  -1.014  -0.045  0.00  0.00    +0.177 HD
ENDROOT
BRANCH   1   6
ATOM      5  C   UNL     1       0.694  -3.256  -0.016  0.00  0.00    +0.140 C 
ATOM      6  N   UNL     1      -0.588  -3.073   0.090  0.00  0.00    -0.188 NA
BRANCH   5  13
ATOM      7  C   UNL     1       5.017  -2.426  -1.614  0.00  0.00    +0.001 A 
ATOM      8  C   UNL     1       5.496  -1.184  -1.221  0.00  0.00    +0.002 A 
ATOM      9  C   UNL     1       4.724  -0.347  -0.446  0.00  0.00    +0.026 A 
ATOM     10  C   UNL     1       3.451  -0.744  -0.051  0.00  0.00    +0.047 A 
ATOM     11  C   UNL     1       2.966  -2.001  -0.450  0.00  0.00    +0.008 A 
ATOM     12  C   UNL     1       3.759  -2.837  -1.234  0.00  0.00    +0.010 A 
ATOM     13  C   UNL     1       1.614  -2.116   0.123  0.00  0.00    +0.020 A 
ATOM     14  C   UNL     1       1.381  -0.962   0.805  0.00  0.00    +0.093 A 
ATOM     15  N   UNL     1       2.467  -0.144   0.706  0.00  0.00    -0.360 N 
ATOM     16  H   UNL     1       2.538   0.735   1.111  0.00  0.00    +0.165 HD
ENDBRANCH   5  13
ENDBRANCH   1   6
BRANCH   2  17
ATOM     17  C   UNL     1      -2.990  -0.181   0.333  0.00  0.00    +0.223 C 
BRANCH  17  18
ATOM     18  N   UNL     1      -4.432  -0.238   0.587  0.00  0.00    -0.290 N 
ATOM     19  C   UNL     1      -5.288  -0.339  -0.461  0.00  0.00    +0.203 A 
ATOM     20  N   UNL     1      -6.580  -0.392  -0.277  0.00  0.00    -0.230 NA
ATOM     21  C   UNL     1      -7.098  -0.348   0.948  0.00  0.00    +0.116 A 
ATOM     22  C   UNL     1      -6.293  -0.244   2.093  0.00  0.00    +0.076 A 
ATOM     23  C   UNL     1      -4.880  -0.194   1.856  0.00  0.00    +0.263 A 
ATOM     24  O   UNL     1      -4.098  -0.107   2.787  0.00  0.00    -0.267 OA
ATOM     25  C   UNL     1      -7.000  -0.206   3.372  0.00  0.00    -0.023 A 
ATOM     26  C   UNL     1      -8.348  -0.274   3.329  0.00  0.00    -0.004 A 
ATOM     27  S   UNL     1      -8.746  -0.392   1.605  0.00  0.00    -0.073 S 
ATOM     28  C   UNL     1      -9.296  -0.255   4.489  0.00  0.00    +0.043 C 
ATOM     29  C   UNL     1      -8.495  -0.518   5.773  0.00  0.00    +0.005 C 
ATOM     30  C   UNL     1      -7.256   0.383   5.772  0.00  0.00    +0.005 C 
ATOM     31  C   UNL     1      -6.269  -0.094   4.707  0.00  0.00    +0.037 C 
ENDBRANCH  17  18
ENDBRANCH   2  17
TORSDOF 4
