REMARK  Name = ZINC18107127
REMARK  4 active torsions:
REMARK  status: ('A' for Active; 'I' for Inactive)
REMARK    1  A    between atoms: C_8  and  N_13
REMARK    2  A    between atoms: C_9  and  O_12
REMARK    3  A    between atoms: N_14  and  C_15
REMARK    4  A    between atoms: C_15  and  N_17
REMARK                            x       y       z     vdW  Elec       q    Type
REMARK                         _______ _______ _______ _____ _____    ______ ____
ROOT
ATOM      1  C   UNL     1       0.149   1.400   1.283  0.00  0.00    +0.017 A 
ATOM      2  C   UNL     1       1.283   2.114   0.957  0.00  0.00    +0.027 A 
ATOM      3  C   UNL     1       2.468   1.444   0.676  0.00  0.00    +0.051 A 
ATOM      4  C   UNL     1       2.495   0.043   0.730  0.00  0.00    +0.031 A 
ATOM      5  C   UNL     1       1.345  -0.667   1.060  0.00  0.00    +0.027 A 
ATOM      6  C   UNL     1       0.177   0.015   1.336  0.00  0.00    +0.019 A 
ATOM      7 BR   UNL     1      -1.390  -0.944   1.786  0.00  0.00    -0.050 Br
ATOM      8  C   UNL     1       3.876  -0.354   0.386  0.00  0.00    +0.150 A 
ATOM      9  C   UNL     1       4.573   0.832   0.153  0.00  0.00    +0.219 A 
ATOM     10  N   UNL     1       3.735   1.883   0.327  0.00  0.00    -0.324 N 
ATOM     11  H   UNL     1       3.987   2.814   0.221  0.00  0.00    +0.169 HD
ENDROOT
BRANCH   8  12
ATOM     12  N   UNL     1       4.360  -1.600   0.314  0.00  0.00    -0.175 NA
ATOM     13  N   UNL     1       5.596  -1.794  -0.001  0.00  0.00    -0.218 N 
ATOM     14  H   UNL     1       6.174  -1.038  -0.185  0.00  0.00    +0.176 HD
BRANCH  13  15
ATOM     15  C   UNL     1       6.084  -3.049  -0.074  0.00  0.00    +0.153 C 
ATOM     16  S   UNL     1       7.762  -3.303  -0.299  0.00  0.00    -0.017 S 
BRANCH  15  17
ATOM     17  N   UNL     1       5.251  -4.103   0.031  0.00  0.00    -0.307 N 
ATOM     18  C   UNL     1       3.791  -3.917   0.043  0.00  0.00    +0.135 C 
ATOM     19  C   UNL     1       3.174  -4.863  -0.993  0.00  0.00    +0.179 C 
ATOM     20  O   UNL     1       3.647  -6.192  -0.757  0.00  0.00    -0.377 OA
ATOM     21  C   UNL     1       5.060  -6.345  -0.904  0.00  0.00    +0.179 C 
ATOM     22  C   UNL     1       5.774  -5.475   0.131  0.00  0.00    +0.135 C 
ENDBRANCH  15  17
ENDBRANCH  13  15
ENDBRANCH   8  12
BRANCH   9  23
ATOM     23  O   UNL     1       5.876   0.919  -0.191  0.00  0.00    -0.492 OA
ATOM     24  H   UNL     1       6.033   0.907  -1.145  0.00  0.00    +0.294 HD
ENDBRANCH   9  23
TORSDOF 4
