REMARK  Name = ZINC40314284
REMARK  10 active torsions:
REMARK  status: ('A' for Active; 'I' for Inactive)
REMARK    1  A    between atoms: C_5  and  O_7
REMARK    2  A    between atoms: O_7  and  C_8
REMARK    3  A    between atoms: C_8  and  C_9
REMARK    4  A    between atoms: C_9  and  C_11
REMARK    5  A    between atoms: C_9  and  O_34
REMARK    6  A    between atoms: C_11  and  N_12
REMARK    7  A    between atoms: N_12  and  C_13
REMARK    8  A    between atoms: N_12  and  C_26
REMARK    9  A    between atoms: C_13  and  C_14
REMARK   10  A    between atoms: C_17  and  C_19
REMARK                            x       y       z     vdW  Elec       q    Type
REMARK                         _______ _______ _______ _____ _____    ______ ____
ROOT
ATOM      1  N   UNL     1      -0.839  -6.310   0.460  0.00  0.00    +0.389 N 
ATOM      2  H   UNL     1      -0.623  -7.074   1.084  0.00  0.00    -0.081 HD
ENDROOT
BRANCH   1   3
ATOM      3  C   UNL     1       0.124  -6.298  -0.649  0.00  0.00    -0.045 C 
ATOM      4  C   UNL     1      -0.476  -5.546  -1.849  0.00  0.00    +0.009 C 
ATOM      5  C   UNL     1       0.381  -5.799  -3.113  0.00  0.00    +0.164 C 
ATOM      6  S   UNL     1       1.106  -7.457  -2.784  0.00  0.00    -0.033 S 
ATOM      7  O   UNL     1       2.520  -7.335  -2.701  0.00  0.00    -0.174 OA
ATOM      8  O   UNL     1       0.537  -8.397  -3.684  0.00  0.00    -0.174 OA
ATOM      9  C   UNL     1       0.430  -7.756  -1.096  0.00  0.00    +0.151 C 
ENDBRANCH   1   3
BRANCH   1  10
ATOM     10  C   UNL     1      -0.757  -5.040   1.194  0.00  0.00    -0.043 C 
BRANCH  10  11
ATOM     11  C   UNL     1       0.558  -4.986   1.974  0.00  0.00    +0.135 C 
BRANCH  11  12
ATOM     12  O   UNL     1       1.648  -4.846   1.061  0.00  0.00    -0.390 OA
ATOM     13  H   UNL     1       1.648  -4.011   0.573  0.00  0.00    +0.210 HD
ENDBRANCH  11  12
BRANCH  11  14
ATOM     14  C   UNL     1       0.536  -3.790   2.928  0.00  0.00    +0.258 C 
BRANCH  14  15
ATOM     15  O   UNL     1       1.713  -3.806   3.739  0.00  0.00    -0.488 OA
BRANCH  15  20
ATOM     16  C   UNL     1       1.013  -0.808   5.679  0.00  0.00    +0.004 A 
ATOM     17  C   UNL     1       2.128  -0.764   6.496  0.00  0.00    +0.002 A 
ATOM     18  C   UNL     1       3.105  -1.737   6.391  0.00  0.00    +0.023 A 
ATOM     19  C   UNL     1       2.968  -2.757   5.468  0.00  0.00    +0.083 A 
ATOM     20  C   UNL     1       1.849  -2.804   4.647  0.00  0.00    +0.139 A 
ATOM     21  C   UNL     1       0.872  -1.826   4.755  0.00  0.00    +0.047 A 
ATOM     22 CL   UNL     1       4.195  -3.979   5.335  0.00  0.00    -0.080 Cl
ENDBRANCH  15  20
ENDBRANCH  14  15
ENDBRANCH  11  14
ENDBRANCH  10  11
ENDBRANCH   1  10
BRANCH   1  23
ATOM     23  C   UNL     1      -2.197  -6.482  -0.072  0.00  0.00    -0.003 C 
BRANCH  23  24
ATOM     24  C   UNL     1      -2.321  -7.845  -0.703  0.00  0.00    +0.089 A 
ATOM     25  C   UNL     1      -2.584  -8.992  -0.048  0.00  0.00    +0.043 A 
ATOM     26  C   UNL     1      -2.613 -10.020  -1.012  0.00  0.00    +0.050 A 
ATOM     27  C   UNL     1      -2.363  -9.437  -2.214  0.00  0.00    +0.135 A 
ATOM     28  O   UNL     1      -2.193  -8.116  -2.012  0.00  0.00    -0.462 OA
BRANCH  27  29
ATOM     29  C   UNL     1      -2.295 -10.131  -3.517  0.00  0.00    +0.019 A 
ATOM     30  C   UNL     1      -2.576 -11.496  -3.600  0.00  0.00    +0.011 A 
ATOM     31  C   UNL     1      -2.511 -12.138  -4.819  0.00  0.00    +0.002 A 
ATOM     32  C   UNL     1      -2.167 -11.433  -5.959  0.00  0.00    +0.020 A 
ATOM     33  C   UNL     1      -1.887 -10.079  -5.884  0.00  0.00    +0.042 A 
ATOM     34  C   UNL     1      -1.955  -9.423  -4.671  0.00  0.00    +0.031 A 
ATOM     35 CL   UNL     1      -1.456  -9.204  -7.320  0.00  0.00    -0.084 Cl
ENDBRANCH  27  29
ENDBRANCH  23  24
ENDBRANCH   1  23
TORSDOF 10
