REMARK  Name = ZINC28050071
REMARK  8 active torsions:
REMARK  status: ('A' for Active; 'I' for Inactive)
REMARK    1  A    between atoms: C_1  and  C_2
REMARK    2  A    between atoms: C_7  and  N_8
REMARK    3  A    between atoms: C_9  and  C_11
REMARK    4  A    between atoms: C_11  and  C_12
REMARK    5  A    between atoms: N_17  and  N_18
REMARK    6  A    between atoms: C_21  and  C_26
REMARK    7  A    between atoms: C_21  and  C_27
REMARK    8  A    between atoms: C_23  and  C_25
REMARK                            x       y       z     vdW  Elec       q    Type
REMARK                         _______ _______ _______ _____ _____    ______ ____
ROOT
ATOM      1  C   UNL     1      -3.417  -2.559  -0.314  0.00  0.00    +0.149 C 
ATOM      2  C   UNL     1      -4.696  -3.363  -0.515  0.00  0.00    +0.233 C 
ATOM      3  N   UNL     1      -4.782  -4.013  -1.613  0.00  0.00    -0.263 N 
ATOM      4  C   UNL     1      -3.827  -4.020  -2.568  0.00  0.00    +0.183 C 
ATOM      5  N   UNL     1      -3.831  -4.658  -3.727  0.00  0.00    -0.127 NA
ATOM      6  S   UNL     1      -2.558  -2.959  -1.890  0.00  0.00    -0.075 S 
ATOM      7  O   UNL     1      -5.674  -3.388   0.408  0.00  0.00    -0.274 OA
ATOM      8  H   UNL     1      -5.677  -4.616  -1.826  0.00  0.00    +0.157 HD
ENDROOT
BRANCH   5   9
ATOM      9  N   UNL     1      -4.841  -5.389  -4.058  0.00  0.00    -0.152 NA
ATOM     10  C   UNL     1      -4.844  -6.020  -5.205  0.00  0.00    +0.064 C 
ATOM     11  C   UNL     1      -6.014  -6.890  -5.617  0.00  0.00    +0.064 C 
ATOM     12  C   UNL     1      -5.442  -8.160  -6.253  0.00  0.00    -0.026 C 
ATOM     13  C   UNL     1      -4.638  -7.779  -7.496  0.00  0.00    +0.037 C 
ATOM     14  C   UNL     1      -3.619  -6.725  -7.179  0.00  0.00    -0.070 C 
ATOM     15  C   UNL     1      -3.713  -5.915  -6.131  0.00  0.00    +0.024 C 
ATOM     16  C   UNL     1      -2.430  -6.579  -8.094  0.00  0.00    +0.039 C 
ATOM     17  C   UNL     1      -6.586  -9.095  -6.651  0.00  0.00    +0.011 C 
ATOM     18  C   UNL     1      -4.529  -8.866  -5.249  0.00  0.00    +0.011 C 
ENDBRANCH   5   9
BRANCH   1  19
ATOM     19  C   UNL     1      -3.711  -1.062  -0.203  0.00  0.00    +0.120 C 
BRANCH  19  21
ATOM     20  N   UNL     1      -2.428   1.041   0.019  0.00  0.00    -0.285 N 
ATOM     21  C   UNL     1      -2.414  -0.302  -0.091  0.00  0.00    +0.219 C 
ATOM     22  O   UNL     1      -1.359  -0.900  -0.099  0.00  0.00    -0.275 OA
ATOM     23  H   UNL     1      -3.384   1.575   0.118  0.00  0.00    +0.155 HD
BRANCH  20  30
ATOM     24  C   UNL     1      -2.364   3.585   1.291  0.00  0.00    +0.045 C 
ATOM     25  C   UNL     1      -1.149   3.001   0.615  0.00  0.00    -0.029 A 
ATOM     26  C   UNL     1       0.038   3.707   0.597  0.00  0.00    +0.006 A 
ATOM     27  C   UNL     1       1.152   3.173  -0.023  0.00  0.00    +0.020 A 
ATOM     28  C   UNL     1       1.083   1.929  -0.626  0.00  0.00    +0.043 A 
ATOM     29  C   UNL     1      -0.102   1.218  -0.610  0.00  0.00    +0.043 A 
ATOM     30  C   UNL     1      -1.225   1.756   0.006  0.00  0.00    +0.038 A 
ATOM     31 CL   UNL     1       2.485   1.262  -1.402  0.00  0.00    -0.083 Cl
ENDBRANCH  20  30
ENDBRANCH  19  21
ENDBRANCH   1  19
TORSDOF 4
