REMARK  Name = ZINC13251042
REMARK  9 active torsions:
REMARK  status: ('A' for Active; 'I' for Inactive)
REMARK    1  A    between atoms: C_1  and  C_2
REMARK    2  A    between atoms: C_2  and  O_3
REMARK    3  A    between atoms: O_3  and  C_4
REMARK    4  A    between atoms: C_4  and  C_6
REMARK    5  A    between atoms: C_7  and  C_22
REMARK    6  A    between atoms: C_10  and  N_11
REMARK    7  A    between atoms: C_12  and  C_14
REMARK    8  A    between atoms: C_14  and  C_15
REMARK    9  A    between atoms: C_15  and  C_20
REMARK                            x       y       z     vdW  Elec       q    Type
REMARK                         _______ _______ _______ _____ _____    ______ ____
ROOT
ATOM      1  C   UNL     1      -1.090  -2.118   0.001  0.00  0.00    +0.095 A 
ATOM      2  C   UNL     1      -1.053  -2.878  -1.234  0.00  0.00    +0.005 A 
ATOM      3  C   UNL     1      -1.051  -4.230  -1.119  0.00  0.00    +0.056 A 
ATOM      4  S   UNL     1      -1.099  -4.491   0.642  0.00  0.00    -0.080 S 
ATOM      5  C   UNL     1      -1.114  -2.847   1.183  0.00  0.00    +0.086 A 
ENDROOT
BRANCH   2   6
ATOM      6  C   UNL     1      -1.020  -2.210  -2.557  0.00  0.00    -0.016 A 
ATOM      7  C   UNL     1      -1.944  -1.211  -2.860  0.00  0.00    +0.009 A 
ATOM      8  C   UNL     1      -1.904  -0.589  -4.091  0.00  0.00    +0.016 A 
ATOM      9  C   UNL     1      -0.958  -0.963  -5.029  0.00  0.00    +0.018 A 
ATOM     10  C   UNL     1      -0.042  -1.959  -4.735  0.00  0.00    +0.016 A 
ATOM     11  C   UNL     1      -0.068  -2.583  -3.505  0.00  0.00    +0.009 A 
ATOM     12 BR   UNL     1      -0.915  -0.112  -6.717  0.00  0.00    -0.050 Br
ENDBRANCH   2   6
BRANCH   5  13
ATOM     13  N   UNL     1      -1.146  -2.372   2.484  0.00  0.00    -0.279 N 
ATOM     14  C   UNL     1      -1.166  -3.237   3.517  0.00  0.00    +0.219 C 
ATOM     15  O   UNL     1      -1.157  -4.431   3.308  0.00  0.00    -0.275 OA
ATOM     16  H   UNL     1      -1.154  -1.416   2.651  0.00  0.00    +0.155 HD
BRANCH  14  17
ATOM     17  C   UNL     1      -1.201  -2.720   4.932  0.00  0.00    +0.114 C 
BRANCH  17  18
ATOM     18  C   UNL     1      -1.357  -3.894   5.901  0.00  0.00    +0.080 C 
ATOM     19  C   UNL     1      -1.409  -3.378   7.353  0.00  0.00    +0.019 C 
ATOM     20  C   UNL     1      -0.635  -4.449   8.164  0.00  0.00    +0.001 C 
ATOM     21  C   UNL     1       0.517  -4.838   7.204  0.00  0.00    +0.001 C 
ATOM     22  C   UNL     1      -0.134  -4.822   5.806  0.00  0.00    +0.019 C 
BRANCH  18  23
ATOM     23  C   UNL     1      -2.614  -4.662   5.581  0.00  0.00    +0.362 C 
ATOM     24  O   UNL     1      -2.560  -5.853   5.380  0.00  0.00    -0.246 OA
ATOM     25  O   UNL     1      -3.793  -4.024   5.520  0.00  0.00    -0.246 OA
ENDBRANCH  18  23
ENDBRANCH  17  18
ENDBRANCH  14  17
ENDBRANCH   5  13
BRANCH   1  26
ATOM     26  C   UNL     1      -1.095  -0.655   0.002  0.00  0.00    +0.342 C 
ATOM     27  O   UNL     1      -2.151  -0.050  -0.027  0.00  0.00    -0.245 OA
BRANCH  26  28
ATOM     28  O   UNL     1       0.070   0.024   0.035  0.00  0.00    -0.461 OA
BRANCH  28  30
ATOM     29  C   UNL     1       1.400   2.063   0.073  0.00  0.00    +0.048 C 
ATOM     30  C   UNL     1      -0.011   1.474   0.034  0.00  0.00    +0.229 C 
ENDBRANCH  28  30
ENDBRANCH  26  28
ENDBRANCH   1  26
TORSDOF 8
