REMARK  Name = ZINC35090316
REMARK  14 active torsions:
REMARK  status: ('A' for Active; 'I' for Inactive)
REMARK    1  A    between atoms: C_1  and  C_2
REMARK    2  A    between atoms: C_2  and  C_3
REMARK    3  A    between atoms: C_8  and  N_9
REMARK    4  A    between atoms: C_19  and  C_20
REMARK    5  A    between atoms: C_20  and  C_22
REMARK    6  A    between atoms: C_20  and  N_23
REMARK    7  A    between atoms: N_23  and  C_24
REMARK    8  A    between atoms: N_27  and  C_28
REMARK    9  A    between atoms: C_29  and  C_37
REMARK   10  A    between atoms: C_33  and  C_34
REMARK   11  A    between atoms: C_34  and  C_35
REMARK   12  A    between atoms: C_34  and  C_36
REMARK   13  A    between atoms: C_37  and  C_38
REMARK   14  A    between atoms: C_37  and  C_39
REMARK                            x       y       z     vdW  Elec       q    Type
REMARK                         _______ _______ _______ _____ _____    ______ ____
ROOT
ATOM      1  C   UNL     1      -1.809   1.955  -3.493  0.00  0.00    +0.141 C 
ATOM      2  C   UNL     1      -1.979   0.895  -2.403  0.00  0.00    +0.036 C 
ENDROOT
BRANCH   1  13
ATOM      3  N   UNL     1      -0.247   1.125  -5.207  0.00  0.00    -0.263 N 
ATOM      4  C   UNL     1       0.978   1.012  -5.772  0.00  0.00    +0.266 A 
ATOM      5  O   UNL     1       1.149   0.363  -6.788  0.00  0.00    -0.267 OA
ATOM      6  C   UNL     1       2.094   1.704  -5.111  0.00  0.00    +0.065 A 
ATOM      7  C   UNL     1       3.393   1.652  -5.612  0.00  0.00    +0.015 A 
ATOM      8  C   UNL     1       4.402   2.319  -4.953  0.00  0.00    +0.001 A 
ATOM      9  C   UNL     1       4.134   3.042  -3.797  0.00  0.00    +0.002 A 
ATOM     10  C   UNL     1       2.857   3.106  -3.286  0.00  0.00    +0.028 A 
ATOM     11  C   UNL     1       1.818   2.438  -3.936  0.00  0.00    +0.078 A 
ATOM     12  N   UNL     1       0.545   2.475  -3.467  0.00  0.00    -0.231 NA
ATOM     13  C   UNL     1      -0.422   1.858  -4.075  0.00  0.00    +0.138 A 
BRANCH   3  19
ATOM     14  C   UNL     1      -2.153   1.174  -6.691  0.00  0.00    -0.024 A 
ATOM     15  C   UNL     1      -3.232   0.539  -7.276  0.00  0.00    +0.005 A 
ATOM     16  C   UNL     1      -3.510  -0.779  -6.966  0.00  0.00    +0.000 A 
ATOM     17  C   UNL     1      -2.710  -1.467  -6.072  0.00  0.00    +0.002 A 
ATOM     18  C   UNL     1      -1.630  -0.837  -5.484  0.00  0.00    +0.026 A 
ATOM     19  C   UNL     1      -1.345   0.485  -5.797  0.00  0.00    +0.054 A 
BRANCH  14  21
ATOM     20  C   UNL     1      -0.842   2.663  -8.179  0.00  0.00    +0.009 C 
ATOM     21  C   UNL     1      -1.850   2.611  -7.029  0.00  0.00    +0.034 C 
ENDBRANCH  14  21
ENDBRANCH   3  19
ENDBRANCH   1  13
BRANCH   1  22
ATOM     22  N   UNL     1      -2.004   3.286  -2.914  0.00  0.00    -0.279 N 
ATOM     23  C   UNL     1      -1.133   3.749  -1.831  0.00  0.00    +0.134 C 
ATOM     24  C   UNL     1      -2.985   4.085  -3.378  0.00  0.00    +0.307 C 
ATOM     25  O   UNL     1      -3.709   3.701  -4.277  0.00  0.00    -0.252 OA
ATOM     26  N   UNL     1      -3.165   5.311  -2.846  0.00  0.00    -0.269 N 
ATOM     27  H   UNL     1      -2.544   5.646  -2.181  0.00  0.00    +0.156 HD
BRANCH  26  28
ATOM     28  C   UNL     1      -4.248   6.098  -3.252  0.00  0.00    +0.042 A 
ATOM     29  C   UNL     1      -4.031   7.241  -4.010  0.00  0.00    -0.023 A 
ATOM     30  C   UNL     1      -5.102   8.016  -4.410  0.00  0.00    +0.006 A 
ATOM     31  C   UNL     1      -6.389   7.655  -4.057  0.00  0.00    +0.001 A 
ATOM     32  C   UNL     1      -6.608   6.518  -3.302  0.00  0.00    +0.006 A 
ATOM     33  C   UNL     1      -5.542   5.735  -2.903  0.00  0.00    -0.023 A 
BRANCH  33  34
ATOM     34  C   UNL     1      -5.783   4.492  -2.086  0.00  0.00    +0.015 C 
ATOM     35  C   UNL     1      -6.544   4.860  -0.811  0.00  0.00    +0.012 C 
ATOM     36  C   UNL     1      -6.607   3.496  -2.904  0.00  0.00    +0.012 C 
ENDBRANCH  33  34
BRANCH  29  37
ATOM     37  C   UNL     1      -2.628   7.636  -4.396  0.00  0.00    +0.015 C 
ATOM     38  C   UNL     1      -2.537   7.774  -5.917  0.00  0.00    +0.012 C 
ATOM     39  C   UNL     1      -2.276   8.973  -3.740  0.00  0.00    +0.012 C 
ENDBRANCH  29  37
ENDBRANCH  26  28
ENDBRANCH   1  22
TORSDOF 7
