REMARK  Name = ZINC20497393
REMARK  7 active torsions:
REMARK  status: ('A' for Active; 'I' for Inactive)
REMARK    1  A    between atoms: C_4  and  C_7
REMARK    2  A    between atoms: C_12  and  N_13
REMARK    3  A    between atoms: N_13  and  C_14
REMARK    4  A    between atoms: C_14  and  N_16
REMARK    5  A    between atoms: C_17  and  C_19
REMARK    6  A    between atoms: C_21  and  N_31
REMARK    7  A    between atoms: C_24  and  N_25
REMARK                            x       y       z     vdW  Elec       q    Type
REMARK                         _______ _______ _______ _____ _____    ______ ____
ROOT
ATOM      1  N   UNL     1      -0.000   1.371  -0.376  0.00  0.00    -0.264 N 
ATOM      2  C   UNL     1       0.014   0.083  -0.771  0.00  0.00    +0.251 C 
ATOM      3  O   UNL     1       1.054  -0.428  -1.139  0.00  0.00    -0.270 OA
ATOM      4  H   UNL     1      -0.942   1.834  -0.043  0.00  0.00    +0.157 HD
ENDROOT
BRANCH   2   5
ATOM      5  C   UNL     1      -1.230  -0.705  -0.759  0.00  0.00    +0.060 A 
ATOM      6  C   UNL     1      -2.429  -0.122  -0.338  0.00  0.00    +0.047 A 
ATOM      7  C   UNL     1      -3.589  -0.865  -0.329  0.00  0.00    +0.127 A 
ATOM      8  C   UNL     1      -3.575  -2.190  -0.736  0.00  0.00    +0.034 A 
ATOM      9  C   UNL     1      -2.401  -2.780  -1.155  0.00  0.00    +0.026 A 
ATOM     10  C   UNL     1      -1.222  -2.046  -1.177  0.00  0.00    +0.042 A 
BRANCH  10  11
ATOM     11  N   UNL     1      -0.039  -2.636  -1.603  0.00  0.00    -0.329 N 
ATOM     12  C   UNL     1      -0.121  -3.013  -3.020  0.00  0.00    +0.105 C 
ATOM     13  C   UNL     1       1.242  -3.525  -3.493  0.00  0.00    +0.019 C 
ATOM     14  C   UNL     1       1.649  -4.734  -2.646  0.00  0.00    +0.003 C 
ATOM     15  C   UNL     1       1.679  -4.327  -1.170  0.00  0.00    +0.019 C 
ATOM     16  C   UNL     1       0.304  -3.792  -0.765  0.00  0.00    +0.105 C 
ENDBRANCH  10  11
BRANCH   7  17
ATOM     17  N   UNL     1      -4.856  -0.244   0.117  0.00  0.00    +0.056 N 
ATOM     18  O   UNL     1      -4.872   0.920   0.475  0.00  0.00    -0.126 OA
ATOM     19  O   UNL     1      -5.884  -0.898   0.126  0.00  0.00    -0.126 OA
ENDBRANCH   7  17
ENDBRANCH   2   5
BRANCH   1  20
ATOM     20  C   UNL     1       1.138   2.093  -0.387  0.00  0.00    +0.141 C 
ATOM     21  S   UNL     1       2.603   1.373  -0.904  0.00  0.00    -0.018 S 
BRANCH  20  22
ATOM     22  N   UNL     1       1.123   3.381   0.009  0.00  0.00    -0.296 N 
ATOM     23  H   UNL     1       0.169   3.870   0.256  0.00  0.00    +0.154 HD
BRANCH  22  29
ATOM     24  C   UNL     1       2.403   5.398  -0.396  0.00  0.00    +0.003 A 
ATOM     25  C   UNL     1       3.600   6.103  -0.289  0.00  0.00    +0.010 A 
ATOM     26  C   UNL     1       4.698   5.512   0.302  0.00  0.00    +0.001 A 
ATOM     27  C   UNL     1       4.614   4.221   0.794  0.00  0.00    +0.002 A 
ATOM     28  C   UNL     1       3.432   3.513   0.699  0.00  0.00    +0.024 A 
ATOM     29  C   UNL     1       2.320   4.095   0.107  0.00  0.00    +0.040 A 
BRANCH  24  33
ATOM     30  C   UNL     1      -0.982   7.202  -2.229  0.00  0.00    +0.000 A 
ATOM     31  C   UNL     1      -0.288   7.882  -1.244  0.00  0.00    +0.001 A 
ATOM     32  C   UNL     1       0.812   7.301  -0.646  0.00  0.00    +0.008 A 
ATOM     33  C   UNL     1       1.222   6.027  -1.035  0.00  0.00    -0.016 A 
ATOM     34  C   UNL     1       0.522   5.349  -2.031  0.00  0.00    +0.008 A 
ATOM     35  C   UNL     1      -0.579   5.938  -2.619  0.00  0.00    +0.001 A 
ENDBRANCH  24  33
ENDBRANCH  22  29
ENDBRANCH  20  22
ENDBRANCH   1  20
TORSDOF 7
