REMARK  Name = ZINC38700682
REMARK  8 active torsions:
REMARK  status: ('A' for Active; 'I' for Inactive)
REMARK    1  A    between atoms: C_1  and  S_2
REMARK    2  A    between atoms: S_2  and  C_3
REMARK    3  A    between atoms: C_6  and  C_9
REMARK    4  A    between atoms: C_14  and  O_23
REMARK    5  A    between atoms: C_18  and  N_22
REMARK    6  A    between atoms: C_19  and  C_20
REMARK    7  A    between atoms: O_23  and  C_24
REMARK    8  A    between atoms: C_24  and  C_26
REMARK                            x       y       z     vdW  Elec       q    Type
REMARK                         _______ _______ _______ _____ _____    ______ ____
ROOT
ATOM      1  C   UNL     1       2.866  -1.451  -5.099  0.00  0.00    +0.098 C 
ATOM      2  C   UNL     1       4.111  -2.231  -4.771  0.00  0.00    +0.008 A 
ATOM      3  C   UNL     1       5.249  -1.557  -4.363  0.00  0.00    +0.012 A 
ATOM      4  C   UNL     1       6.400  -2.256  -4.058  0.00  0.00    +0.047 A 
ATOM      5  C   UNL     1       6.419  -3.640  -4.160  0.00  0.00    +0.135 A 
ATOM      6  C   UNL     1       5.282  -4.318  -4.568  0.00  0.00    +0.093 A 
ATOM      7  C   UNL     1       4.124  -3.613  -4.874  0.00  0.00    +0.138 A 
ATOM      8  O   UNL     1       3.020  -4.291  -5.272  0.00  0.00    -0.441 OA
ATOM      9  C   UNL     1       2.041  -3.650  -5.931  0.00  0.00    +0.199 C 
ATOM     10  C   UNL     1       1.914  -2.305  -5.888  0.00  0.00    +0.098 C 
ENDROOT
BRANCH   1  14
ATOM     11  C   UNL     1       0.979  -0.206  -1.472  0.00  0.00    +0.008 A 
ATOM     12  C   UNL     1       1.413   0.741  -2.391  0.00  0.00    +0.015 A 
ATOM     13  C   UNL     1       2.023   0.335  -3.562  0.00  0.00    +0.005 A 
ATOM     14  C   UNL     1       2.201  -1.012  -3.820  0.00  0.00    -0.035 A 
ATOM     15  C   UNL     1       1.769  -1.957  -2.907  0.00  0.00    +0.005 A 
ATOM     16  C   UNL     1       1.164  -1.559  -1.732  0.00  0.00    +0.015 A 
BRANCH  11  18
ATOM     17  C   UNL     1       0.185   2.118  -0.088  0.00  0.00    +0.090 C 
ATOM     18  S   UNL     1       0.201   0.307   0.024  0.00  0.00    -0.129 S 
ENDBRANCH  11  18
ENDBRANCH   1  14
BRANCH   9  19
ATOM     19  N   UNL     1       1.144  -4.381  -6.668  0.00  0.00    -0.328 N 
ATOM     20  H   UNL     1       1.222  -5.347  -6.708  0.00  0.00    +0.145 HD
ATOM     21  H   UNL     1       0.431  -3.932  -7.150  0.00  0.00    +0.145 HD
ENDBRANCH   9  19
BRANCH  10  22
ATOM     22  C   UNL     1       0.847  -1.682  -6.611  0.00  0.00    +0.101 C 
ATOM     23  N   UNL     1       0.001  -1.188  -7.186  0.00  0.00    -0.191 NA
ENDBRANCH  10  22
BRANCH   5  24
ATOM     24  O   UNL     1       7.551  -4.329  -3.861  0.00  0.00    -0.423 OA
BRANCH  24  25
ATOM     25  C   UNL     1       8.210  -4.928  -4.867  0.00  0.00    +0.357 C 
ATOM     26  O   UNL     1       7.851  -4.759  -6.008  0.00  0.00    -0.246 OA
BRANCH  25  27
ATOM     27  C   UNL     1       9.395  -5.810  -4.572  0.00  0.00    +0.319 C 
ATOM     28  C   UNL     1      10.534  -4.967  -3.983  0.00  0.00    +0.285 C 
ATOM     29  O   UNL     1      11.646  -5.832  -3.728  0.00  0.00    -0.484 OA
ATOM     30  C   UNL     1      11.985  -6.701  -4.720  0.00  0.00    +0.162 A 
ATOM     31  C   UNL     1      13.236  -7.299  -4.703  0.00  0.00    +0.049 A 
ATOM     32  C   UNL     1      13.593  -8.186  -5.701  0.00  0.00    +0.004 A 
ATOM     33  C   UNL     1      12.704  -8.480  -6.718  0.00  0.00    +0.004 A 
ATOM     34  C   UNL     1      11.456  -7.887  -6.741  0.00  0.00    +0.049 A 
ATOM     35  C   UNL     1      11.092  -6.995  -5.743  0.00  0.00    +0.163 A 
ATOM     36  O   UNL     1       9.862  -6.412  -5.784  0.00  0.00    -0.470 OA
ENDBRANCH  25  27
ENDBRANCH  24  25
ENDBRANCH   5  24
TORSDOF 7
