REMARK  Name = ZINC15770067
REMARK  7 active torsions:
REMARK  status: ('A' for Active; 'I' for Inactive)
REMARK    1  A    between atoms: C_4  and  C_7
REMARK    2  A    between atoms: C_9  and  C_32
REMARK    3  A    between atoms: N_10  and  N_19
REMARK    4  A    between atoms: C_11  and  C_13
REMARK    5  A    between atoms: N_19  and  C_20
REMARK    6  A    between atoms: C_23  and  N_29
REMARK    7  A    between atoms: C_25  and  N_26
REMARK                            x       y       z     vdW  Elec       q    Type
REMARK                         _______ _______ _______ _____ _____    ______ ____
ROOT
ATOM      1  C   UNL     1      -2.432  -1.202   2.077  0.00  0.00    -0.014 A 
ATOM      2  C   UNL     1      -2.906  -1.321   0.768  0.00  0.00    +0.036 A 
ATOM      3  C   UNL     1      -4.121  -1.957   0.542  0.00  0.00    +0.070 A 
ATOM      4  N   UNL     1      -4.836  -2.438   1.556  0.00  0.00    -0.260 N 
ATOM      5  C   UNL     1      -4.418  -2.337   2.816  0.00  0.00    +0.070 A 
ATOM      6  C   UNL     1      -3.209  -1.719   3.116  0.00  0.00    +0.036 A 
ENDROOT
BRANCH   1  10
ATOM      7  C   UNL     1       1.281   0.708   2.881  0.00  0.00    +0.000 A 
ATOM      8  C   UNL     1       0.833   0.594   1.577  0.00  0.00    +0.001 A 
ATOM      9  C   UNL     1      -0.372  -0.025   1.310  0.00  0.00    +0.008 A 
ATOM     10  C   UNL     1      -1.136  -0.536   2.357  0.00  0.00    -0.018 A 
ATOM     11  C   UNL     1      -0.680  -0.419   3.669  0.00  0.00    +0.008 A 
ATOM     12  C   UNL     1       0.526   0.202   3.924  0.00  0.00    +0.001 A 
ENDBRANCH   1  10
BRANCH   5  13
ATOM     13  C   UNL     1      -5.251  -2.889   3.911  0.00  0.00    +0.000 A 
ATOM     14  C   UNL     1      -6.641  -2.888   3.802  0.00  0.00    +0.010 A 
ATOM     15  C   UNL     1      -7.410  -3.409   4.822  0.00  0.00    +0.001 A 
ATOM     16  C   UNL     1      -6.806  -3.921   5.956  0.00  0.00    +0.000 A 
ATOM     17  C   UNL     1      -5.428  -3.920   6.072  0.00  0.00    +0.001 A 
ATOM     18  C   UNL     1      -4.647  -3.407   5.056  0.00  0.00    +0.010 A 
ENDBRANCH   5  13
BRANCH   3  19
ATOM     19  C   UNL     1      -4.630  -2.095  -0.844  0.00  0.00    +0.000 A 
ATOM     20  C   UNL     1      -4.805  -3.361  -1.402  0.00  0.00    +0.010 A 
ATOM     21  C   UNL     1      -5.284  -3.483  -2.690  0.00  0.00    +0.001 A 
ATOM     22  C   UNL     1      -5.579  -2.354  -3.432  0.00  0.00    +0.000 A 
ATOM     23  C   UNL     1      -5.402  -1.095  -2.885  0.00  0.00    +0.001 A 
ATOM     24  C   UNL     1      -4.929  -0.961  -1.596  0.00  0.00    +0.010 A 
ENDBRANCH   3  19
BRANCH   4  25
ATOM     25  N   UNL     1      -6.060  -3.067   1.291  0.00  0.00    -0.251 N 
ATOM     26  H   UNL     1      -6.136  -4.031   1.368  0.00  0.00    +0.173 HD
BRANCH  25  27
ATOM     27  C   UNL     1      -7.169  -2.307   0.918  0.00  0.00    +0.077 A 
ATOM     28  C   UNL     1      -7.099  -0.919   0.931  0.00  0.00    +0.029 A 
ATOM     29  C   UNL     1      -8.197  -0.170   0.556  0.00  0.00    +0.035 A 
ATOM     30  C   UNL     1      -9.368  -0.800   0.177  0.00  0.00    +0.128 A 
ATOM     31  C   UNL     1      -9.444  -2.181   0.167  0.00  0.00    +0.067 A 
ATOM     32  C   UNL     1      -8.348  -2.936   0.537  0.00  0.00    +0.151 A 
BRANCH  32  33
ATOM     33  N   UNL     1      -8.429  -4.414   0.526  0.00  0.00    +0.058 N 
ATOM     34  O   UNL     1      -9.478  -4.964   0.242  0.00  0.00    -0.126 OA
ATOM     35  O   UNL     1      -7.447  -5.080   0.801  0.00  0.00    -0.126 OA
ENDBRANCH  32  33
BRANCH  30  36
ATOM     36  N   UNL     1     -10.545   0.006  -0.219  0.00  0.00    +0.056 N 
ATOM     37  O   UNL     1     -11.578  -0.547  -0.552  0.00  0.00    -0.126 OA
ATOM     38  O   UNL     1     -10.480   1.222  -0.211  0.00  0.00    -0.126 OA
ENDBRANCH  30  36
ENDBRANCH  25  27
ENDBRANCH   4  25
TORSDOF 7
