REMARK  Name = ZINC08793117
REMARK  8 active torsions:
REMARK  status: ('A' for Active; 'I' for Inactive)
REMARK    1  A    between atoms: C_1  and  O_2
REMARK    2  A    between atoms: O_2  and  C_3
REMARK    3  A    between atoms: C_3  and  C_5
REMARK    4  A    between atoms: C_9  and  N_10
REMARK    5  A    between atoms: C_11  and  C_13
REMARK    6  A    between atoms: C_16  and  N_18
REMARK    7  A    between atoms: C_24  and  C_25
REMARK    8  A    between atoms: C_24  and  N_50
REMARK                            x       y       z     vdW  Elec       q    Type
REMARK                         _______ _______ _______ _____ _____    ______ ____
ROOT
ATOM      1  C   UNL     1       3.766   5.681  -5.248  0.00  0.00    +0.091 A 
ATOM      2  C   UNL     1       3.535   5.293  -3.869  0.00  0.00    -0.025 A 
ATOM      3  C   UNL     1       2.240   5.092  -3.535  0.00  0.00    -0.021 A 
ATOM      4  S   UNL     1       1.335   5.412  -5.020  0.00  0.00    -0.079 S 
ATOM      5  C   UNL     1       2.654   5.806  -6.073  0.00  0.00    +0.086 A 
ATOM      6  C   UNL     1       1.723   4.687  -2.190  0.00  0.00    -0.035 C 
ATOM      7  C   UNL     1       3.982   5.141  -1.440  0.00  0.00    -0.073 C 
ATOM      8  C   UNL     1       4.632   5.111  -2.826  0.00  0.00    +0.018 C 
ATOM      9  N   UNL     1       2.867   4.171  -1.400  0.00  0.00    +0.386 N 
ATOM     10  H   UNL     1       3.182   3.283  -1.808  0.00  0.00    -0.081 HD
ENDROOT
BRANCH   5  11
ATOM     11  N   UNL     1       2.611   6.160  -7.411  0.00  0.00    -0.275 N 
ATOM     12  C   UNL     1       1.427   6.229  -8.052  0.00  0.00    +0.255 C 
ATOM     13  O   UNL     1       0.396   5.981  -7.454  0.00  0.00    -0.269 OA
ATOM     14  H   UNL     1       3.432   6.357  -7.887  0.00  0.00    +0.156 HD
BRANCH  12  15
ATOM     15  C   UNL     1       1.381   6.603  -9.467  0.00  0.00    +0.076 A 
ATOM     16  C   UNL     1       0.281   6.732 -10.302  0.00  0.00    +0.023 A 
ATOM     17  C   UNL     1       0.523   7.101 -11.602  0.00  0.00    +0.041 A 
ATOM     18  C   UNL     1       1.803   7.318 -12.003  0.00  0.00    +0.164 A 
ATOM     19  S   UNL     1       2.724   7.020 -10.565  0.00  0.00    -0.060 S 
BRANCH  18  20
ATOM     20  N   UNL     1       2.292   7.718 -13.341  0.00  0.00    +0.063 N 
ATOM     21  O   UNL     1       1.501   7.894 -14.251  0.00  0.00    -0.126 OA
ATOM     22  O   UNL     1       3.485   7.872 -13.533  0.00  0.00    -0.126 OA
ENDBRANCH  18  20
ENDBRANCH  12  15
ENDBRANCH   5  11
BRANCH   1  23
ATOM     23  C   UNL     1       5.118   5.931  -5.752  0.00  0.00    +0.342 C 
ATOM     24  O   UNL     1       5.767   5.021  -6.231  0.00  0.00    -0.245 OA
BRANCH  23  26
ATOM     25  C   UNL     1       6.990   7.346  -6.202  0.00  0.00    +0.280 C 
ATOM     26  O   UNL     1       5.644   7.171  -5.684  0.00  0.00    -0.464 OA
ENDBRANCH  23  26
ENDBRANCH   1  23
BRANCH   9  27
ATOM     27  C   UNL     1       2.451   3.937  -0.001  0.00  0.00    -0.043 C 
BRANCH  27  28
ATOM     28  C   UNL     1       1.156   3.165   0.008  0.00  0.00    -0.064 A 
ATOM     29  C   UNL     1       1.175   1.783   0.000  0.00  0.00    +0.002 A 
ATOM     30  C   UNL     1      -0.013   1.076   0.008  0.00  0.00    +0.000 A 
ATOM     31  C   UNL     1      -1.219   1.751   0.017  0.00  0.00    +0.000 A 
ATOM     32  C   UNL     1      -1.238   3.133   0.030  0.00  0.00    +0.000 A 
ATOM     33  C   UNL     1      -0.050   3.840   0.023  0.00  0.00    +0.002 A 
ENDBRANCH  27  28
ENDBRANCH   9  27
TORSDOF 7
