REMARK  Name = ZINC01413279
REMARK  13 active torsions:
REMARK  status: ('A' for Active; 'I' for Inactive)
REMARK    1  A    between atoms: C_1  and  C_2
REMARK    2  A    between atoms: C_5  and  C_8
REMARK    3  A    between atoms: C_8  and  C_9
REMARK    4  A    between atoms: C_10  and  C_29
REMARK    5  A    between atoms: N_12  and  C_17
REMARK    6  A    between atoms: C_17  and  C_18
REMARK    7  A    between atoms: C_18  and  C_19
REMARK    8  A    between atoms: C_22  and  O_27
REMARK    9  A    between atoms: C_23  and  O_25
REMARK   10  A    between atoms: O_25  and  C_26
REMARK   11  A    between atoms: O_27  and  C_28
REMARK   12  A    between atoms: C_32  and  O_35
REMARK   13  A    between atoms: O_35  and  C_36
REMARK                            x       y       z     vdW  Elec       q    Type
REMARK                         _______ _______ _______ _____ _____    ______ ____
ROOT
ATOM      1  C   UNL     1       0.125  -4.898   1.283  0.00  0.00    +0.076 C 
ATOM      2  C   UNL     1       0.104  -4.229   2.638  0.00  0.00    +0.145 C 
ATOM      3  N   UNL     1       0.209  -5.306   3.629  0.00  0.00    -0.283 N 
ATOM      4  C   UNL     1       0.283  -6.474   2.964  0.00  0.00    +0.288 C 
ATOM      5  O   UNL     1       0.378  -7.567   3.485  0.00  0.00    -0.266 OA
ATOM      6  C   UNL     1       0.226  -6.229   1.507  0.00  0.00    +0.249 C 
ATOM      7  O   UNL     1       0.270  -7.184   0.550  0.00  0.00    -0.282 OA
ENDROOT
BRANCH   2   8
ATOM      8  C   UNL     1       1.274  -3.288   2.769  0.00  0.00    -0.022 A 
ATOM      9  C   UNL     1       2.548  -3.792   2.951  0.00  0.00    +0.009 A 
ATOM     10  C   UNL     1       3.622  -2.931   3.072  0.00  0.00    +0.046 A 
ATOM     11  C   UNL     1       3.421  -1.560   3.009  0.00  0.00    +0.120 A 
ATOM     12  C   UNL     1       2.141  -1.056   2.826  0.00  0.00    +0.046 A 
ATOM     13  C   UNL     1       1.071  -1.921   2.700  0.00  0.00    +0.009 A 
BRANCH  11  14
ATOM     14  O   UNL     1       4.476  -0.711   3.128  0.00  0.00    -0.495 OA
ATOM     15  C   UNL     1       4.194   0.688   3.054  0.00  0.00    +0.277 C 
ENDBRANCH  11  14
ENDBRANCH   2   8
BRANCH   1  16
ATOM     16  C   UNL     1       0.045  -4.235  -0.021  0.00  0.00    +0.195 C 
ATOM     17  O   UNL     1       0.994  -4.272  -0.782  0.00  0.00    -0.287 OA
BRANCH  16  22
ATOM     18  C   UNL     1      -4.756  -1.452  -1.545  0.00  0.00    +0.044 C 
ATOM     19  C   UNL     1      -3.499  -2.180  -1.146  0.00  0.00    -0.050 A 
ATOM     20  C   UNL     1      -2.395  -2.158  -1.981  0.00  0.00    +0.004 A 
ATOM     21  C   UNL     1      -1.241  -2.823  -1.622  0.00  0.00    +0.012 A 
ATOM     22  C   UNL     1      -1.188  -3.519  -0.413  0.00  0.00    +0.022 A 
ATOM     23  C   UNL     1      -2.305  -3.538   0.425  0.00  0.00    +0.012 A 
ATOM     24  C   UNL     1      -3.451  -2.864   0.056  0.00  0.00    +0.004 A 
ENDBRANCH  16  22
ENDBRANCH   1  16
BRANCH   3  25
ATOM     25  C   UNL     1       0.229  -5.140   5.084  0.00  0.00    +0.114 C 
BRANCH  25  26
ATOM     26  C   UNL     1      -1.202  -5.192   5.623  0.00  0.00    +0.054 C 
BRANCH  26  27
ATOM     27  C   UNL     1      -1.181  -5.021   7.120  0.00  0.00    -0.042 A 
ATOM     28  C   UNL     1      -1.072  -6.129   7.940  0.00  0.00    +0.007 A 
ATOM     29  C   UNL     1      -1.053  -5.977   9.314  0.00  0.00    +0.049 A 
ATOM     30  C   UNL     1      -1.142  -4.712   9.872  0.00  0.00    +0.161 A 
ATOM     31  C   UNL     1      -1.251  -3.597   9.048  0.00  0.00    +0.162 A 
ATOM     32  C   UNL     1      -1.265  -3.755   7.671  0.00  0.00    +0.053 A 
BRANCH  31  33
ATOM     33  O   UNL     1      -1.339  -2.353   9.591  0.00  0.00    -0.491 OA
ATOM     34  C   UNL     1      -1.448  -1.255   8.684  0.00  0.00    +0.277 C 
ENDBRANCH  31  33
BRANCH  30  35
ATOM     35  O   UNL     1      -1.123  -4.561  11.224  0.00  0.00    -0.491 OA
ATOM     36  C   UNL     1      -1.010  -5.751  12.008  0.00  0.00    +0.277 C 
ENDBRANCH  30  35
ENDBRANCH  26  27
ENDBRANCH  25  26
ENDBRANCH   3  25
TORSDOF 9
