REMARK  Name = ZINC21087983
REMARK  8 active torsions:
REMARK  status: ('A' for Active; 'I' for Inactive)
REMARK    1  A    between atoms: C_1  and  C_2
REMARK    2  A    between atoms: C_2  and  N_3
REMARK    3  A    between atoms: C_10  and  S_12
REMARK    4  A    between atoms: S_12  and  N_15
REMARK    5  A    between atoms: N_24  and  C_25
REMARK    6  A    between atoms: C_29  and  C_30
REMARK    7  A    between atoms: C_30  and  O_32
REMARK    8  A    between atoms: O_32  and  C_33
REMARK                            x       y       z     vdW  Elec       q    Type
REMARK                         _______ _______ _______ _____ _____    ______ ____
ROOT
ATOM      1  N   UNL     1       1.158  -2.948  -1.639  0.00  0.00    -0.175 NA
ATOM      2  C   UNL     1      -0.096  -3.164  -2.300  0.00  0.00    +0.111 C 
ATOM      3  C   UNL     1      -0.550  -4.599  -2.012  0.00  0.00    +0.036 C 
ATOM      4  C   UNL     1       0.164  -5.577  -2.848  0.00  0.00    +0.110 C 
ATOM      5  N   UNL     1       1.626  -5.474  -2.627  0.00  0.00    -0.284 N 
ATOM      6  C   UNL     1       2.372  -4.407  -3.234  0.00  0.00    +0.126 C 
ATOM      7  C   UNL     1       2.462  -3.156  -2.326  0.00  0.00    +0.128 C 
ATOM      8  C   UNL     1       2.256  -6.382  -1.855  0.00  0.00    +0.307 C 
ATOM      9  O   UNL     1       3.467  -6.355  -1.750  0.00  0.00    -0.252 OA
ATOM     10  N   UNL     1       1.543  -7.319  -1.198  0.00  0.00    -0.268 N 
ATOM     11  H   UNL     1       0.456  -7.388  -1.348  0.00  0.00    +0.156 HD
ENDROOT
BRANCH  10  12
ATOM     12  C   UNL     1       2.185  -8.202  -0.329  0.00  0.00    +0.056 A 
ATOM     13  C   UNL     1       3.522  -8.508  -0.467  0.00  0.00    +0.032 A 
ATOM     14  C   UNL     1       4.098  -9.372   0.406  0.00  0.00    +0.048 A 
ATOM     15  S   UNL     1       2.794  -9.801   1.465  0.00  0.00    -0.088 S 
ATOM     16  C   UNL     1       1.506  -8.813   0.725  0.00  0.00    +0.117 A 
BRANCH  16  17
ATOM     17  C   UNL     1       0.151  -8.684   1.106  0.00  0.00    +0.347 C 
ATOM     18  O   UNL     1      -0.593  -7.956   0.475  0.00  0.00    -0.244 OA
BRANCH  17  19
ATOM     19  O   UNL     1      -0.319  -9.370   2.170  0.00  0.00    -0.464 OA
ATOM     20  C   UNL     1      -1.698  -9.192   2.499  0.00  0.00    +0.280 C 
ENDBRANCH  17  19
ENDBRANCH  16  17
ENDBRANCH  10  12
BRANCH   1  21
ATOM     21  S   UNL     1       1.155  -2.458  -0.057  0.00  0.00    +0.061 S 
ATOM     22  O   UNL     1       2.402  -2.858   0.494  0.00  0.00    -0.153 OA
ATOM     23  O   UNL     1      -0.088  -2.869   0.494  0.00  0.00    -0.153 OA
BRANCH  21  31
ATOM     24  N   UNL     1       1.403   3.425  -0.057  0.00  0.00    -0.347 N 
ATOM     25  C   UNL     1       2.760   3.599  -0.056  0.00  0.00    +0.087 A 
ATOM     26  C   UNL     1       3.375   2.405  -0.056  0.00  0.00    +0.027 A 
ATOM     27  C   UNL     1       2.326   1.383  -0.057  0.00  0.00    +0.002 A 
ATOM     28  C   UNL     1       1.104   2.080  -0.058  0.00  0.00    +0.049 A 
ATOM     29  C   UNL     1      -0.089   1.365  -0.059  0.00  0.00    +0.028 A 
ATOM     30  C   UNL     1      -0.060  -0.013  -0.058  0.00  0.00    +0.030 A 
ATOM     31  C   UNL     1       1.148  -0.696  -0.058  0.00  0.00    +0.106 A 
ATOM     32  C   UNL     1       2.331  -0.013  -0.057  0.00  0.00    +0.038 A 
BRANCH  24  34
ATOM     33  C   UNL     1      -0.022   4.798   1.379  0.00  0.00    +0.027 C 
ATOM     34  C   UNL     1       0.416   4.507  -0.058  0.00  0.00    +0.118 C 
ENDBRANCH  24  34
ENDBRANCH  21  31
ENDBRANCH   1  21
TORSDOF 6
