REMARK  Name = ZINC08896561
REMARK  11 active torsions:
REMARK  status: ('A' for Active; 'I' for Inactive)
REMARK    1  A    between atoms: C_1  and  C_2
REMARK    2  A    between atoms: C_2  and  C_3
REMARK    3  A    between atoms: C_2  and  C_4
REMARK    4  A    between atoms: C_2  and  C_5
REMARK    5  A    between atoms: C_12  and  N_17
REMARK    6  A    between atoms: C_13  and  C_14
REMARK    7  A    between atoms: N_17  and  C_18
REMARK    8  A    between atoms: C_18  and  N_20
REMARK    9  A    between atoms: C_21  and  C_23
REMARK   10  A    between atoms: C_28  and  O_29
REMARK   11  A    between atoms: O_29  and  C_30
REMARK                            x       y       z     vdW  Elec       q    Type
REMARK                         _______ _______ _______ _____ _____    ______ ____
ROOT
ATOM      1  C   UNL     1       9.273  -5.393   0.257  0.00  0.00    -0.000 C 
ATOM      2  C   UNL     1       8.390  -6.327  -0.576  0.00  0.00    +0.009 C 
ATOM      3  C   UNL     1       6.938  -6.228  -0.104  0.00  0.00    +0.037 C 
ATOM      4  C   UNL     1       6.525  -4.761  -0.090  0.00  0.00    -0.023 A 
ATOM      5  C   UNL     1       7.451  -3.778  -0.094  0.00  0.00    -0.004 A 
ATOM      6  S   UNL     1       6.516  -2.275  -0.083  0.00  0.00    -0.077 S 
ATOM      7  C   UNL     1       4.916  -2.941  -0.063  0.00  0.00    +0.084 A 
ATOM      8  C   UNL     1       5.144  -4.311  -0.073  0.00  0.00    +0.068 A 
ATOM      9  C   UNL     1       8.940  -3.940  -0.109  0.00  0.00    +0.046 C 
ENDROOT
BRANCH   8  10
ATOM     10  C   UNL     1       4.032  -5.266  -0.067  0.00  0.00    +0.244 C 
ATOM     11  O   UNL     1       3.560  -5.657  -1.118  0.00  0.00    -0.270 OA
ATOM     12  N   UNL     1       3.534  -5.712   1.104  0.00  0.00    -0.325 N 
ATOM     13  H   UNL     1       3.910  -5.400   1.941  0.00  0.00    +0.145 HD
ATOM     14  H   UNL     1       2.798  -6.344   1.108  0.00  0.00    +0.145 HD
ENDBRANCH   8  10
BRANCH   1  16
ATOM     15  C   UNL     1      11.014  -5.436  -1.534  0.00  0.00    +0.011 C 
ATOM     16  C   UNL     1      10.746  -5.675  -0.047  0.00  0.00    -0.035 C 
ATOM     17  C   UNL     1      11.626  -4.741   0.786  0.00  0.00    +0.011 C 
ATOM     18  C   UNL     1      11.070  -7.128   0.303  0.00  0.00    +0.011 C 
ENDBRANCH   1  16
BRANCH   7  19
ATOM     19  N   UNL     1       3.704  -2.270  -0.048  0.00  0.00    -0.291 N 
ATOM     20  H   UNL     1       2.873  -2.770  -0.042  0.00  0.00    +0.154 HD
BRANCH  19  21
ATOM     21  C   UNL     1       3.680  -0.923  -0.040  0.00  0.00    +0.141 C 
ATOM     22  S   UNL     1       5.147  -0.040  -0.049  0.00  0.00    -0.018 S 
BRANCH  21  23
ATOM     23  N   UNL     1       2.501  -0.270  -0.024  0.00  0.00    -0.263 N 
ATOM     24  C   UNL     1       2.477   1.078  -0.016  0.00  0.00    +0.253 C 
ATOM     25  O   UNL     1       3.519   1.704  -0.023  0.00  0.00    -0.270 OA
ATOM     26  H   UNL     1       1.670  -0.770  -0.019  0.00  0.00    +0.157 HD
BRANCH  24  27
ATOM     27  C   UNL     1       1.187   1.792   0.000  0.00  0.00    +0.080 A 
ATOM     28  C   UNL     1      -0.013   1.076   0.008  0.00  0.00    +0.036 A 
ATOM     29  C   UNL     1      -1.215   1.750   0.017  0.00  0.00    +0.042 A 
ATOM     30  C   UNL     1      -1.239   3.136   0.030  0.00  0.00    +0.023 A 
ATOM     31  C   UNL     1      -0.061   3.855   0.023  0.00  0.00    +0.048 A 
ATOM     32  C   UNL     1       1.158   3.193   0.008  0.00  0.00    +0.132 A 
ATOM     33 CL   UNL     1      -2.705   0.860   0.019  0.00  0.00    -0.084 Cl
BRANCH  32  34
ATOM     34  O   UNL     1       2.316   3.899   0.001  0.00  0.00    -0.494 OA
ATOM     35  C   UNL     1       2.208   5.324   0.010  0.00  0.00    +0.277 C 
ENDBRANCH  32  34
ENDBRANCH  24  27
ENDBRANCH  21  23
ENDBRANCH  19  21
ENDBRANCH   7  19
TORSDOF 7
