REMARK  Name = ZINC03023280
REMARK  9 active torsions:
REMARK  status: ('A' for Active; 'I' for Inactive)
REMARK    1  A    between atoms: C_1  and  C_2
REMARK    2  A    between atoms: C_6  and  C_9
REMARK    3  A    between atoms: C_7  and  O_8
REMARK    4  A    between atoms: N_10  and  N_11
REMARK    5  A    between atoms: C_12  and  C_14
REMARK    6  A    between atoms: C_14  and  O_15
REMARK    7  A    between atoms: O_15  and  C_16
REMARK    8  A    between atoms: C_19  and  C_23
REMARK    9  A    between atoms: C_20  and  C_22
REMARK                            x       y       z     vdW  Elec       q    Type
REMARK                         _______ _______ _______ _____ _____    ______ ____
ROOT
ATOM      1  N   UNL     1      -6.056   3.382   0.077  0.00  0.00    -0.204 N 
ATOM      2  C   UNL     1      -4.816   3.913   0.068  0.00  0.00    +0.270 C 
ATOM      3  O   UNL     1      -4.672   5.117   0.072  0.00  0.00    -0.270 OA
ATOM      4  H   UNL     1      -6.171   2.419   0.074  0.00  0.00    +0.177 HD
ENDROOT
BRANCH   1   6
ATOM      5  C   UNL     1      -8.370   3.712   0.101  0.00  0.00    +0.142 C 
ATOM      6  N   UNL     1      -7.177   4.222   0.092  0.00  0.00    -0.188 NA
BRANCH   5  12
ATOM      7  C   UNL     1     -10.334   8.306   0.142  0.00  0.00    +0.047 C 
ATOM      8  C   UNL     1     -10.502   6.809   0.136  0.00  0.00    -0.008 A 
ATOM      9  C   UNL     1     -11.770   6.257   0.145  0.00  0.00    +0.007 A 
ATOM     10  C   UNL     1     -11.935   4.883   0.140  0.00  0.00    +0.001 A 
ATOM     11  C   UNL     1     -10.835   4.050   0.126  0.00  0.00    +0.013 A 
ATOM     12  C   UNL     1      -9.550   4.595   0.116  0.00  0.00    +0.036 A 
ATOM     13  C   UNL     1      -9.387   5.987   0.127  0.00  0.00    +0.128 A 
BRANCH  13  14
ATOM     14  O   UNL     1      -8.142   6.529   0.124  0.00  0.00    -0.506 OA
ATOM     15  H   UNL     1      -7.787   6.693  -0.761  0.00  0.00    +0.292 HD
ENDBRANCH  13  14
ENDBRANCH   5  12
ENDBRANCH   1   6
BRANCH   2  16
ATOM     16  C   UNL     1      -3.610   3.009   0.052  0.00  0.00    +0.326 C 
BRANCH  16  17
ATOM     17  O   UNL     1      -2.421   3.802   0.045  0.00  0.00    -0.483 OA
BRANCH  17  18
ATOM     18  C   UNL     1      -1.236   3.137   0.030  0.00  0.00    +0.121 A 
ATOM     19  C   UNL     1      -1.218   1.750   0.017  0.00  0.00    +0.046 A 
ATOM     20  C   UNL     1      -0.013   1.076   0.008  0.00  0.00    +0.007 A 
ATOM     21  C   UNL     1       1.176   1.783   0.000  0.00  0.00    -0.047 A 
ATOM     22  C   UNL     1       1.161   3.165   0.007  0.00  0.00    -0.044 A 
ATOM     23  C   UNL     1      -0.043   3.844   0.022  0.00  0.00    +0.049 A 
ATOM     24  C   UNL     1       2.457   3.933  -0.002  0.00  0.00    +0.044 C 
ATOM     25  C   UNL     1       2.490   1.045  -0.016  0.00  0.00    +0.044 C 
ENDBRANCH  17  18
ENDBRANCH  16  17
ENDBRANCH   2  16
TORSDOF 6
