REMARK  Name = ZINC02794167
REMARK  11 active torsions:
REMARK  status: ('A' for Active; 'I' for Inactive)
REMARK    1  A    between atoms: C_1  and  C_2
REMARK    2  A    between atoms: C_6  and  N_9
REMARK    3  A    between atoms: C_7  and  C_8
REMARK    4  A    between atoms: N_9  and  C_10
REMARK    5  A    between atoms: C_10  and  N_12
REMARK    6  A    between atoms: N_12  and  N_13
REMARK    7  A    between atoms: C_14  and  C_16
REMARK    8  A    between atoms: C_21  and  C_35
REMARK    9  A    between atoms: C_24  and  C_27
REMARK   10  A    between atoms: C_30  and  C_34
REMARK   11  A    between atoms: C_31  and  C_33
REMARK                            x       y       z     vdW  Elec       q    Type
REMARK                         _______ _______ _______ _____ _____    ______ ____
ROOT
ATOM      1  C   UNL     1       2.360   1.125   0.446  0.00  0.00    +0.150 A 
ATOM      2  C   UNL     1       3.622   1.759   0.491  0.00  0.00    +0.078 A 
ATOM      3  C   UNL     1       4.519   0.850   0.920  0.00  0.00    +0.119 A 
ATOM      4  N   UNL     1       3.860  -0.325   1.146  0.00  0.00    -0.238 N 
ATOM      5  N   UNL     1       2.513  -0.125   0.846  0.00  0.00    -0.164 NA
ATOM      6  C   UNL     1       4.514  -1.545   1.628  0.00  0.00    +0.215 C 
ATOM      7  C   UNL     1       5.852  -1.168   2.273  0.00  0.00    +0.063 C 
ATOM      8  C   UNL     1       6.650  -0.263   1.328  0.00  0.00    +0.104 C 
ATOM      9  N   UNL     1       5.894   0.989   1.128  0.00  0.00    -0.322 N 
ATOM     10  H   UNL     1       6.418   1.957   1.148  0.00  0.00    +0.148 HD
ENDROOT
BRANCH   8  11
ATOM     11  C   UNL     1       6.845  -0.954   0.003  0.00  0.00    -0.027 A 
ATOM     12  C   UNL     1       5.816  -0.981  -0.920  0.00  0.00    +0.006 A 
ATOM     13  C   UNL     1       5.996  -1.611  -2.137  0.00  0.00    +0.004 A 
ATOM     14  C   UNL     1       7.202  -2.221  -2.428  0.00  0.00    -0.048 A 
ATOM     15  C   UNL     1       8.229  -2.198  -1.503  0.00  0.00    -0.047 A 
ATOM     16  C   UNL     1       8.051  -1.564  -0.287  0.00  0.00    +0.009 A 
ATOM     17  C   UNL     1       9.544  -2.863  -1.820  0.00  0.00    +0.044 C 
ATOM     18  C   UNL     1       7.397  -2.913  -3.753  0.00  0.00    +0.044 C 
ENDBRANCH   8  11
BRANCH   1  20
ATOM     19  N   UNL     1      -0.051   1.033   0.032  0.00  0.00    -0.230 N 
ATOM     20  C   UNL     1       1.089   1.752   0.029  0.00  0.00    +0.280 C 
ATOM     21  O   UNL     1       1.071   2.918  -0.315  0.00  0.00    -0.267 OA
ATOM     22  H   UNL     1      -0.035  -0.021   0.348  0.00  0.00    +0.173 HD
BRANCH  19  23
ATOM     23  N   UNL     1      -1.255   1.626  -0.368  0.00  0.00    -0.245 N 
ATOM     24  H   UNL     1      -1.272   2.681  -0.680  0.00  0.00    +0.172 HD
BRANCH  23  25
ATOM     25  C   UNL     1      -2.393   0.905  -0.371  0.00  0.00    +0.151 C 
ATOM     26  S   UNL     1      -3.865   1.630  -0.860  0.00  0.00    -0.017 S 
BRANCH  25  27
ATOM     27  N   UNL     1      -2.373  -0.388   0.011  0.00  0.00    -0.296 N 
ATOM     28  H   UNL     1      -1.416  -0.879   0.239  0.00  0.00    +0.154 HD
BRANCH  27  34
ATOM     29  C   UNL     1      -4.931  -4.502  -0.821  0.00  0.00    +0.044 C 
ATOM     30  C   UNL     1      -4.838  -3.101  -0.276  0.00  0.00    -0.046 A 
ATOM     31  C   UNL     1      -5.937  -2.521   0.332  0.00  0.00    +0.004 A 
ATOM     32  C   UNL     1      -5.856  -1.235   0.833  0.00  0.00    +0.002 A 
ATOM     33  C   UNL     1      -4.674  -0.527   0.733  0.00  0.00    +0.023 A 
ATOM     34  C   UNL     1      -3.570  -1.104   0.119  0.00  0.00    +0.036 A 
ATOM     35  C   UNL     1      -3.655  -2.396  -0.384  0.00  0.00    -0.026 A 
ATOM     36  C   UNL     1      -2.458  -3.028  -1.046  0.00  0.00    +0.046 C 
ENDBRANCH  27  34
ENDBRANCH  25  27
ENDBRANCH  23  25
ENDBRANCH  19  23
ENDBRANCH   1  20
BRANCH   6  37
ATOM     37  C   UNL     1       3.620  -2.231   2.663  0.00  0.00    +0.412 C 
ATOM     38  F   UNL     1       3.392  -1.358   3.733  0.00  0.00    -0.168 F 
ATOM     39  F   UNL     1       2.400  -2.573   2.073  0.00  0.00    -0.168 F 
ATOM     40  F   UNL     1       4.253  -3.387   3.132  0.00  0.00    -0.168 F 
ENDBRANCH   6  37
TORSDOF 7
