REMARK  Name = ZINC35420357
REMARK  10 active torsions:
REMARK  status: ('A' for Active; 'I' for Inactive)
REMARK    1  A    between atoms: C_1  and  C_2
REMARK    2  A    between atoms: C_2  and  C_3
REMARK    3  A    between atoms: C_3  and  O_4
REMARK    4  A    between atoms: O_4  and  C_5
REMARK    5  A    between atoms: C_9  and  C_11
REMARK    6  A    between atoms: C_13  and  C_14
REMARK    7  A    between atoms: C_14  and  C_15
REMARK    8  A    between atoms: C_16  and  C_24
REMARK    9  A    between atoms: N_30  and  C_31
REMARK   10  A    between atoms: C_31  and  C_32
REMARK                            x       y       z     vdW  Elec       q    Type
REMARK                         _______ _______ _______ _____ _____    ______ ____
ROOT
ATOM      1  C   UNL     1       2.151  -6.306  -3.690  0.00  0.00    +0.145 C 
ATOM      2  C   UNL     1       3.600  -6.537  -3.331  0.00  0.00    +0.078 C 
ATOM      3  C   UNL     1       4.213  -6.984  -4.450  0.00  0.00    +0.249 C 
ATOM      4  O   UNL     1       5.524  -7.310  -4.550  0.00  0.00    -0.282 OA
ATOM      5  C   UNL     1       3.228  -7.061  -5.546  0.00  0.00    +0.288 C 
ATOM      6  O   UNL     1       3.471  -7.429  -6.678  0.00  0.00    -0.266 OA
ATOM      7  N   UNL     1       2.019  -6.665  -5.106  0.00  0.00    -0.279 N 
ENDROOT
BRANCH   1  12
ATOM      8  C   UNL     1       0.583  -3.162  -2.297  0.00  0.00    +0.121 A 
ATOM      9  C   UNL     1       1.135  -2.192  -3.121  0.00  0.00    +0.045 A 
ATOM     10  C   UNL     1       2.012  -2.557  -4.124  0.00  0.00    +0.004 A 
ATOM     11  C   UNL     1       2.340  -3.888  -4.307  0.00  0.00    +0.006 A 
ATOM     12  C   UNL     1       1.791  -4.856  -3.487  0.00  0.00    -0.019 A 
ATOM     13  C   UNL     1       0.918  -4.496  -2.479  0.00  0.00    +0.051 A 
BRANCH   8  14
ATOM     14  O   UNL     1      -0.279  -2.806  -1.309  0.00  0.00    -0.492 OA
BRANCH  14  15
ATOM     15  C   UNL     1      -0.579  -1.414  -1.180  0.00  0.00    +0.229 C 
BRANCH  15  17
ATOM     16  C   UNL     1      -1.879   0.281   0.115  0.00  0.00    +0.007 C 
ATOM     17  C   UNL     1      -1.559  -1.209  -0.023  0.00  0.00    +0.038 C 
ENDBRANCH  15  17
ENDBRANCH  14  15
ENDBRANCH   8  14
ENDBRANCH   1  12
BRANCH   2  18
ATOM     18  C   UNL     1       4.224  -6.317  -2.020  0.00  0.00    +0.213 C 
ATOM     19  O   UNL     1       4.525  -5.189  -1.669  0.00  0.00    -0.285 OA
BRANCH  18  20
ATOM     20  C   UNL     1       4.475  -7.417  -1.162  0.00  0.00    +0.116 A 
ATOM     21  C   UNL     1       4.171  -8.750  -1.407  0.00  0.00    +0.068 A 
ATOM     22  N   UNL     1       4.565  -9.461  -0.365  0.00  0.00    -0.232 NA
ATOM     23  C   UNL     1       5.112  -8.660   0.549  0.00  0.00    +0.138 A 
ATOM     24  N   UNL     1       5.077  -7.377   0.082  0.00  0.00    -0.296 N 
ATOM     25  C   UNL     1       5.580  -6.355   0.825  0.00  0.00    +0.093 A 
ATOM     26  C   UNL     1       6.128  -6.590   2.039  0.00  0.00    +0.018 A 
ATOM     27  C   UNL     1       6.182  -7.895   2.546  0.00  0.00    +0.005 A 
ATOM     28  C   UNL     1       5.672  -8.925   1.810  0.00  0.00    +0.047 A 
ATOM     29  C   UNL     1       3.506  -9.292  -2.647  0.00  0.00    +0.068 C 
ENDBRANCH  18  20
ENDBRANCH   2  18
BRANCH   7  30
ATOM     30  C   UNL     1       0.790  -6.604  -5.901  0.00  0.00    +0.144 C 
BRANCH  30  31
ATOM     31  C   UNL     1       0.672  -5.245  -6.542  0.00  0.00    -0.030 A 
ATOM     32  C   UNL     1       0.025  -4.221  -5.876  0.00  0.00    +0.005 A 
ATOM     33  C   UNL     1      -0.082  -2.975  -6.464  0.00  0.00    +0.000 A 
ATOM     34  C   UNL     1       0.458  -2.752  -7.717  0.00  0.00    +0.000 A 
ATOM     35  C   UNL     1       1.106  -3.776  -8.382  0.00  0.00    +0.000 A 
ATOM     36  C   UNL     1       1.217  -5.022  -7.792  0.00  0.00    +0.005 A 
ENDBRANCH  30  31
ENDBRANCH   7  30
TORSDOF 8
