REMARK  Name = ZINC14465365
REMARK  7 active torsions:
REMARK  status: ('A' for Active; 'I' for Inactive)
REMARK    1  A    between atoms: C_1  and  C_2
REMARK    2  A    between atoms: C_2  and  C_3
REMARK    3  A    between atoms: C_2  and  C_4
REMARK    4  A    between atoms: C_4  and  C_5
REMARK    5  A    between atoms: C_5  and  O_6
REMARK    6  A    between atoms: O_6  and  C_7
REMARK    7  A    between atoms: C_20  and  C_23
REMARK                            x       y       z     vdW  Elec       q    Type
REMARK                         _______ _______ _______ _____ _____    ______ ____
ROOT
ATOM      1  C   UNL     1       4.686   1.265  -1.868  0.00  0.00    +0.121 A 
ATOM      2  C   UNL     1       4.072   0.413  -2.775  0.00  0.00    +0.047 A 
ATOM      3  C   UNL     1       4.774  -0.063  -3.862  0.00  0.00    +0.027 A 
ATOM      4  C   UNL     1       6.103   0.296  -4.053  0.00  0.00    +0.032 A 
ATOM      5  C   UNL     1       6.716   1.159  -3.139  0.00  0.00    -0.016 A 
ATOM      6  C   UNL     1       6.009   1.634  -2.056  0.00  0.00    +0.051 A 
ATOM      7  C   UNL     1       8.123   1.537  -3.396  0.00  0.00    +0.049 C 
ATOM      8  C   UNL     1       9.040   1.937  -2.297  0.00  0.00    -0.023 C 
ATOM      9  C   UNL     1      10.275   1.573  -2.622  0.00  0.00    -0.030 C 
ATOM     10  C   UNL     1      10.271   0.858  -3.974  0.00  0.00    +0.033 C 
ATOM     11  C   UNL     1       8.841   0.306  -4.028  0.00  0.00    +0.029 C 
ATOM     12  C   UNL     1       8.215   0.135  -5.401  0.00  0.00    +0.105 C 
ATOM     13  N   UNL     1       6.802  -0.226  -5.152  0.00  0.00    -0.336 N 
ATOM     14  H   UNL     1       6.351  -0.833  -5.760  0.00  0.00    +0.147 HD
ENDROOT
BRANCH  12  15
ATOM     15  C   UNL     1       8.295   1.426  -6.174  0.00  0.00    -0.027 A 
ATOM     16  C   UNL     1       7.257   2.337  -6.107  0.00  0.00    +0.007 A 
ATOM     17  C   UNL     1       7.332   3.523  -6.811  0.00  0.00    +0.020 A 
ATOM     18  C   UNL     1       8.441   3.795  -7.593  0.00  0.00    +0.041 A 
ATOM     19  C   UNL     1       9.477   2.880  -7.664  0.00  0.00    +0.020 A 
ATOM     20  C   UNL     1       9.403   1.696  -6.955  0.00  0.00    +0.007 A 
ATOM     21 CL   UNL     1       8.533   5.282  -8.484  0.00  0.00    -0.084 Cl
ENDBRANCH  12  15
BRANCH   1  22
ATOM     22  O   UNL     1       3.993   1.733  -0.795  0.00  0.00    -0.492 OA
BRANCH  22  23
ATOM     23  C   UNL     1       2.634   1.310  -0.666  0.00  0.00    +0.229 C 
BRANCH  23  24
ATOM     24  C   UNL     1       2.023   1.934   0.590  0.00  0.00    +0.044 C 
BRANCH  24  26
ATOM     25  C   UNL     1      -0.251   2.037  -0.438  0.00  0.00    +0.007 C 
ATOM     26  C   UNL     1       0.568   1.482   0.729  0.00  0.00    -0.014 C 
ATOM     27  C   UNL     1      -0.004   2.003   2.048  0.00  0.00    +0.007 C 
ENDBRANCH  24  26
ENDBRANCH  23  24
ENDBRANCH  22  23
ENDBRANCH   1  22
TORSDOF 5
