REMARK  Name = ZINC13960615
REMARK  10 active torsions:
REMARK  status: ('A' for Active; 'I' for Inactive)
REMARK    1  A    between atoms: C_1  and  C_2
REMARK    2  A    between atoms: C_2  and  C_3
REMARK    3  A    between atoms: C_4  and  C_31
REMARK    4  A    between atoms: C_7  and  C_8
REMARK    5  A    between atoms: C_11  and  O_14
REMARK    6  A    between atoms: O_14  and  C_15
REMARK    7  A    between atoms: C_18  and  C_26
REMARK    8  A    between atoms: C_20  and  C_22
REMARK    9  A    between atoms: C_34  and  O_37
REMARK   10  A    between atoms: O_37  and  C_38
REMARK                            x       y       z     vdW  Elec       q    Type
REMARK                         _______ _______ _______ _____ _____    ______ ____
ROOT
ATOM      1  C   UNL     1      -3.045   3.486  -0.056  0.00  0.00    +0.006 A 
ATOM      2  C   UNL     1      -3.433   2.142  -0.199  0.00  0.00    +0.097 A 
ATOM      3  N   UNL     1      -2.362   1.386  -0.075  0.00  0.00    -0.163 NA
ATOM      4  N   UNL     1      -1.259   2.216   0.161  0.00  0.00    -0.197 N 
ATOM      5  C   UNL     1      -1.700   3.511   0.165  0.00  0.00    +0.082 A 
ATOM      6  C   UNL     1       0.056   1.797   0.350  0.00  0.00    +0.253 A 
ATOM      7  N   UNL     1       0.331   0.504   0.319  0.00  0.00    -0.207 NA
ATOM      8  C   UNL     1       1.580   0.071   0.491  0.00  0.00    +0.112 A 
ATOM      9  C   UNL     1       2.598   1.009   0.707  0.00  0.00    +0.064 A 
ATOM     10  C   UNL     1       2.262   2.349   0.732  0.00  0.00    +0.150 A 
ATOM     11  N   UNL     1       0.999   2.704   0.552  0.00  0.00    -0.207 NA
ENDROOT
BRANCH   5  12
ATOM     12  C   UNL     1      -0.869   4.717   0.373  0.00  0.00    +0.001 A 
ATOM     13  C   UNL     1      -0.841   5.721  -0.596  0.00  0.00    +0.013 A 
ATOM     14  C   UNL     1      -0.069   6.847  -0.397  0.00  0.00    +0.046 A 
ATOM     15  C   UNL     1       0.687   6.976   0.761  0.00  0.00    +0.120 A 
ATOM     16  C   UNL     1       0.665   5.976   1.724  0.00  0.00    +0.046 A 
ATOM     17  C   UNL     1      -0.107   4.851   1.534  0.00  0.00    +0.013 A 
BRANCH  15  18
ATOM     18  O   UNL     1       1.450   8.084   0.951  0.00  0.00    -0.495 OA
ATOM     19  C   UNL     1       1.425   9.074  -0.079  0.00  0.00    +0.277 C 
ENDBRANCH  15  18
ENDBRANCH   5  12
BRANCH   2  20
ATOM     20  C   UNL     1      -4.812   1.659  -0.454  0.00  0.00    +0.003 A 
ATOM     21  C   UNL     1      -5.890   2.244   0.208  0.00  0.00    +0.013 A 
ATOM     22  C   UNL     1      -7.172   1.796  -0.034  0.00  0.00    +0.046 A 
ATOM     23  C   UNL     1      -7.388   0.756  -0.928  0.00  0.00    +0.120 A 
ATOM     24  C   UNL     1      -6.316   0.167  -1.584  0.00  0.00    +0.046 A 
ATOM     25  C   UNL     1      -5.032   0.615  -1.350  0.00  0.00    +0.013 A 
BRANCH  23  26
ATOM     26  O   UNL     1      -8.651   0.313  -1.160  0.00  0.00    -0.495 OA
ATOM     27  C   UNL     1      -9.708   0.964  -0.452  0.00  0.00    +0.277 C 
ENDBRANCH  23  26
ENDBRANCH   2  20
BRANCH   8  28
ATOM     28  C   UNL     1       1.885  -1.372   0.456  0.00  0.00    +0.153 A 
ATOM     29  C   UNL     1       0.986  -2.375   0.260  0.00  0.00    +0.051 A 
ATOM     30  C   UNL     1       1.709  -3.581   0.299  0.00  0.00    +0.042 A 
ATOM     31  C   UNL     1       3.000  -3.262   0.522  0.00  0.00    +0.196 A 
ATOM     32  O   UNL     1       3.103  -1.927   0.616  0.00  0.00    -0.461 OA
ENDBRANCH   8  28
BRANCH  10  33
ATOM     33  C   UNL     1       3.322   3.396   0.961  0.00  0.00    +0.434 C 
ATOM     34  F   UNL     1       3.857   3.795  -0.269  0.00  0.00    -0.164 F 
ATOM     35  F   UNL     1       2.755   4.501   1.604  0.00  0.00    -0.164 F 
ATOM     36  F   UNL     1       4.339   2.862   1.760  0.00  0.00    -0.164 F 
ENDBRANCH  10  33
BRANCH   1  38
ATOM     37  C   UNL     1      -4.374   5.099   1.279  0.00  0.00    +0.009 C 
ATOM     38  C   UNL     1      -3.954   4.686  -0.133  0.00  0.00    +0.036 C 
ENDBRANCH   1  38
TORSDOF 7
