REMARK  Name = ZINC48926327
REMARK  7 active torsions:
REMARK  status: ('A' for Active; 'I' for Inactive)
REMARK    1  A    between atoms: C_1  and  C_2
REMARK    2  A    between atoms: C_5  and  N_9
REMARK    3  A    between atoms: C_6  and  N_8
REMARK    4  A    between atoms: C_10  and  C_12
REMARK    5  A    between atoms: C_12  and  N_13
REMARK    6  A    between atoms: C_18  and  C_19
REMARK    7  A    between atoms: C_18  and  C_20
REMARK                            x       y       z     vdW  Elec       q    Type
REMARK                         _______ _______ _______ _____ _____    ______ ____
ROOT
ATOM      1  N   UNL     1       0.058  -4.176  -0.035  0.00  0.00    -0.283 N 
ATOM      2  C   UNL     1      -0.041  -4.841  -1.203  0.00  0.00    +0.231 C 
ATOM      3  O   UNL     1      -0.054  -4.229  -2.250  0.00  0.00    -0.274 OA
ATOM      4  H   UNL     1       0.150  -4.668   0.797  0.00  0.00    +0.155 HD
ENDROOT
BRANCH   1   9
ATOM      5  C   UNL     1      -0.066   1.502   0.016  0.00  0.00    +0.044 C 
ATOM      6  C   UNL     1      -0.031  -0.005   0.006  0.00  0.00    -0.049 A 
ATOM      7  C   UNL     1      -0.621  -0.701  -1.033  0.00  0.00    +0.005 A 
ATOM      8  C   UNL     1      -0.593  -2.083  -1.049  0.00  0.00    +0.025 A 
ATOM      9  C   UNL     1       0.029  -2.775  -0.021  0.00  0.00    +0.054 A 
ATOM     10  C   UNL     1       0.623  -2.073   1.027  0.00  0.00    +0.046 A 
ATOM     11  C   UNL     1       0.595  -0.686   1.032  0.00  0.00    +0.028 A 
BRANCH  10  12
ATOM     12  N   UNL     1       1.252  -2.766   2.068  0.00  0.00    -0.357 N 
ATOM     13  H   UNL     1       1.274  -3.736   2.061  0.00  0.00    +0.142 HD
ATOM     14  H   UNL     1       1.665  -2.276   2.796  0.00  0.00    +0.142 HD
ENDBRANCH  10  12
ENDBRANCH   1   9
BRANCH   2  15
ATOM     15  C   UNL     1      -0.134  -6.345  -1.208  0.00  0.00    +0.181 C 
BRANCH  15  16
ATOM     16  N   UNL     1      -0.232  -6.824  -2.594  0.00  0.00    -0.284 NA
ATOM     17  C   UNL     1       1.010  -6.555  -3.333  0.00  0.00    +0.113 C 
ATOM     18  C   UNL     1       0.843  -7.015  -4.784  0.00  0.00    +0.175 C 
ATOM     19  O   UNL     1       0.492  -8.402  -4.802  0.00  0.00    -0.377 OA
ATOM     20  C   UNL     1      -0.713  -8.700  -4.091  0.00  0.00    +0.181 C 
ATOM     21  C   UNL     1      -0.562  -8.257  -2.633  0.00  0.00    +0.040 C 
ATOM     22  C   UNL     1       0.560  -9.058  -1.969  0.00  0.00    +0.030 C 
ATOM     23  C   UNL     1      -1.875  -8.499  -1.887  0.00  0.00    +0.030 C 
ENDBRANCH  15  16
ENDBRANCH   2  15
TORSDOF 4
