REMARK  Name = ZINC53136316
REMARK  4 active torsions:
REMARK  status: ('A' for Active; 'I' for Inactive)
REMARK    1  A    between atoms: C_5  and  C_6
REMARK    2  A    between atoms: C_6  and  N_7
REMARK    3  A    between atoms: C_8  and  C_10
REMARK    4  A    between atoms: C_10  and  N_11
REMARK                            x       y       z     vdW  Elec       q    Type
REMARK                         _______ _______ _______ _____ _____    ______ ____
ROOT
ATOM      1  N   UNL     1      -4.085  -3.369  -3.026  0.00  0.00    -0.215 N 
ATOM      2  C   UNL     1      -3.982  -4.716  -2.995  0.00  0.00    +0.247 C 
ATOM      3  O   UNL     1      -3.043  -5.387  -2.643  0.00  0.00    -0.273 OA
ATOM      4  C   UNL     1      -5.309  -5.205  -3.550  0.00  0.00    +0.113 C 
ATOM      5  C   UNL     1      -5.234  -5.175  -5.076  0.00  0.00    +0.035 C 
ATOM      6  C   UNL     1      -6.347  -6.009  -5.711  0.00  0.00    +0.003 C 
ATOM      7  C   UNL     1      -7.677  -5.241  -5.816  0.00  0.00    +0.000 C 
ATOM      8  C   UNL     1      -8.330  -5.209  -4.422  0.00  0.00    +0.000 C 
ATOM      9  C   UNL     1      -8.190  -6.578  -3.755  0.00  0.00    +0.000 C 
ATOM     10  C   UNL     1      -7.212  -6.531  -2.586  0.00  0.00    +0.003 C 
ATOM     11  C   UNL     1      -5.747  -6.549  -3.016  0.00  0.00    +0.035 C 
ATOM     12  N   UNL     1      -6.168  -4.120  -3.031  0.00  0.00    -0.285 N 
ATOM     13  C   UNL     1      -5.378  -3.020  -3.011  0.00  0.00    +0.310 C 
ATOM     14  O   UNL     1      -5.788  -1.883  -2.982  0.00  0.00    -0.252 OA
ATOM     15  H   UNL     1      -7.050  -4.157  -2.662  0.00  0.00    +0.151 HD
ENDROOT
BRANCH   1  16
ATOM     16  C   UNL     1      -2.964  -2.435  -3.031  0.00  0.00    +0.213 C 
BRANCH  16  18
ATOM     17  N   UNL     1      -1.544  -1.274  -1.371  0.00  0.00    -0.309 N 
ATOM     18  C   UNL     1      -2.564  -2.121  -1.612  0.00  0.00    +0.231 C 
ATOM     19  O   UNL     1      -3.161  -2.630  -0.688  0.00  0.00    -0.274 OA
ATOM     20  H   UNL     1      -1.067  -0.866  -2.111  0.00  0.00    +0.149 HD
BRANCH  17  21
ATOM     21  C   UNL     1      -1.156  -0.969   0.008  0.00  0.00    +0.146 C 
BRANCH  21  26
ATOM     22  C   UNL     1      -0.016   1.351   0.009  0.00  0.00    +0.014 A 
ATOM     23  C   UNL     1       1.184   2.038   0.002  0.00  0.00    +0.028 A 
ATOM     24  C   UNL     1       2.343   1.335  -0.013  0.00  0.00    +0.078 A 
ATOM     25  S   UNL     1       1.753  -0.350  -0.017  0.00  0.00    -0.080 S 
ATOM     26  C   UNL     1       0.002  -0.004   0.002  0.00  0.00    +0.008 A 
ATOM     27 CL   UNL     1       3.977   1.921  -0.026  0.00  0.00    -0.076 Cl
ENDBRANCH  21  26
ENDBRANCH  17  21
ENDBRANCH  16  18
ENDBRANCH   1  16
TORSDOF 4
