REMARK  Name = ZINC63842737
REMARK  10 active torsions:
REMARK  status: ('A' for Active; 'I' for Inactive)
REMARK    1  A    between atoms: C_1  and  N_2
REMARK    2  A    between atoms: N_6  and  C_9
REMARK    3  A    between atoms: C_9  and  C_10
REMARK    4  A    between atoms: N_12  and  C_13
REMARK    5  A    between atoms: C_13  and  C_14
REMARK    6  A    between atoms: C_14  and  C_16
REMARK    7  A    between atoms: C_14  and  C_25
REMARK    8  A    between atoms: C_19  and  N_22
REMARK    9  A    between atoms: N_22  and  C_23
REMARK   10  A    between atoms: N_22  and  C_24
REMARK                            x       y       z     vdW  Elec       q    Type
REMARK                         _______ _______ _______ _____ _____    ______ ____
ROOT
ATOM      1  C   UNL     1       4.344  -5.996  -3.102  0.00  0.00    +0.064 C 
ENDROOT
BRANCH   1   2
ATOM      2  C   UNL     1       3.718  -7.233  -2.510  0.00  0.00    -0.033 C 
ATOM      3  C   UNL     1       4.135  -7.912  -1.417  0.00  0.00    -0.000 A 
ATOM      4  C   UNL     1       5.253  -7.711  -0.488  0.00  0.00    +0.010 A 
ATOM      5  C   UNL     1       5.419  -8.578   0.536  0.00  0.00    +0.001 A 
ATOM      6  C   UNL     1       4.552  -9.662   0.732  0.00  0.00    +0.002 A 
ATOM      7  C   UNL     1       3.502  -9.912  -0.079  0.00  0.00    +0.026 A 
ATOM      8  C   UNL     1       3.233  -9.064  -1.188  0.00  0.00    +0.043 A 
ATOM      9  N   UNL     1       2.295  -9.095  -2.104  0.00  0.00    -0.380 N 
ATOM     10  C   UNL     1       2.493  -7.962  -3.015  0.00  0.00    +0.145 C 
ATOM     11  H   UNL     1       1.587  -9.755  -2.166  0.00  0.00    +0.160 HD
ENDBRANCH   1   2
BRANCH   1  12
ATOM     12  C   UNL     1       4.768  -6.277  -4.520  0.00  0.00    -0.039 A 
ATOM     13  C   UNL     1       3.826  -6.653  -5.460  0.00  0.00    +0.006 A 
ATOM     14  C   UNL     1       4.211  -6.911  -6.761  0.00  0.00    +0.023 A 
ATOM     15  C   UNL     1       5.547  -6.793  -7.125  0.00  0.00    +0.029 A 
ATOM     16  C   UNL     1       6.490  -6.416  -6.178  0.00  0.00    +0.023 A 
ATOM     17  C   UNL     1       6.098  -6.154  -4.880  0.00  0.00    +0.006 A 
BRANCH  15  18
ATOM     18  N   UNL     1       5.940  -7.054  -8.440  0.00  0.00    -0.336 N 
ATOM     19  C   UNL     1       4.968  -7.572  -9.406  0.00  0.00    +0.129 C 
ATOM     20  C   UNL     1       7.324  -6.809  -8.853  0.00  0.00    +0.129 C 
ENDBRANCH  15  18
ENDBRANCH   1  12
BRANCH   1  21
ATOM     21  C   UNL     1       3.326  -4.854  -3.090  0.00  0.00    +0.116 C 
BRANCH  21  24
ATOM     22  C   UNL     1       2.123  -3.514  -1.449  0.00  0.00    +0.231 C 
ATOM     23  O   UNL     1       1.597  -2.918  -2.365  0.00  0.00    -0.274 OA
ATOM     24  N   UNL     1       3.004  -4.501  -1.706  0.00  0.00    -0.313 N 
ATOM     25  H   UNL     1       3.425  -4.978  -0.973  0.00  0.00    +0.149 HD
BRANCH  22  26
ATOM     26  C   UNL     1       1.791  -3.151  -0.025  0.00  0.00    +0.213 C 
BRANCH  26  32
ATOM     27  C   UNL     1       0.059   1.507   0.018  0.00  0.00    +0.134 C 
ATOM     28  N   UNL     1       0.062   0.042   0.006  0.00  0.00    -0.279 N 
ATOM     29  C   UNL     1      -1.117  -0.841   0.001  0.00  0.00    +0.205 C 
ATOM     30  C   UNL     1      -0.519  -2.234  -0.012  0.00  0.00    +0.241 C 
ATOM     31  O   UNL     1      -1.119  -3.288  -0.021  0.00  0.00    -0.273 OA
ATOM     32  N   UNL     1       0.817  -2.057  -0.014  0.00  0.00    -0.216 N 
ATOM     33  C   UNL     1       1.143  -0.760  -0.009  0.00  0.00    +0.312 C 
ATOM     34  O   UNL     1       2.287  -0.351  -0.013  0.00  0.00    -0.252 OA
ENDBRANCH  26  32
ENDBRANCH  22  26
ENDBRANCH  21  24
ENDBRANCH   1  21
TORSDOF 7
