REMARK  Name = ZINC19317398
REMARK  12 active torsions:
REMARK  status: ('A' for Active; 'I' for Inactive)
REMARK    1  A    between atoms: C_1  and  C_2
REMARK    2  A    between atoms: C_2  and  C_3
REMARK    3  A    between atoms: C_2  and  C_4
REMARK    4  A    between atoms: C_2  and  C_5
REMARK    5  A    between atoms: C_12  and  C_14
REMARK    6  A    between atoms: C_17  and  S_20
REMARK    7  A    between atoms: N_18  and  C_19
REMARK    8  A    between atoms: S_20  and  C_21
REMARK    9  A    between atoms: C_21  and  C_22
REMARK   10  A    between atoms: N_24  and  C_25
REMARK   11  A    between atoms: C_29  and  C_31
REMARK   12  A    between atoms: N_33  and  C_34
REMARK                            x       y       z     vdW  Elec       q    Type
REMARK                         _______ _______ _______ _____ _____    ______ ____
ROOT
ATOM      1  C   UNL     1      -3.805   1.621   0.073  0.00  0.00    +0.171 A 
ATOM      2  N   UNL     1      -4.266   2.825  -0.186  0.00  0.00    -0.128 NA
ATOM      3  N   UNL     1      -5.547   2.835  -0.086  0.00  0.00    -0.122 NA
ATOM      4  C   UNL     1      -5.984   1.641   0.244  0.00  0.00    +0.192 A 
ATOM      5  N   UNL     1      -4.893   0.824   0.351  0.00  0.00    -0.305 N 
ATOM      6  C   UNL     1      -4.883  -0.600   0.694  0.00  0.00    +0.153 C 
ENDROOT
BRANCH   1  13
ATOM      7  C   UNL     1       2.425   1.233   0.501  0.00  0.00    -0.001 C 
ATOM      8  C   UNL     1       2.432  -0.039  -0.352  0.00  0.00    +0.009 C 
ATOM      9  C   UNL     1       1.205  -0.886   0.018  0.00  0.00    +0.043 C 
ATOM     10  C   UNL     1       0.006   0.006   0.035  0.00  0.00    -0.006 A 
ATOM     11  C   UNL     1      -0.014   1.370   0.051  0.00  0.00    -0.036 A 
ATOM     12  C   UNL     1      -1.264   1.976   0.069  0.00  0.00    +0.023 A 
ATOM     13  C   UNL     1      -2.394   1.203   0.061  0.00  0.00    +0.057 A 
ATOM     14  S   UNL     1      -1.708  -0.447   0.040  0.00  0.00    -0.090 S 
ATOM     15  C   UNL     1       1.293   2.158   0.053  0.00  0.00    +0.040 C 
BRANCH   7  17
ATOM     16  C   UNL     1       3.974   2.328  -1.127  0.00  0.00    +0.011 C 
ATOM     17  C   UNL     1       3.764   1.957   0.343  0.00  0.00    -0.035 C 
ATOM     18  C   UNL     1       3.760   3.228   1.194  0.00  0.00    +0.011 C 
ATOM     19  C   UNL     1       4.898   1.038   0.804  0.00  0.00    +0.011 C 
ENDBRANCH   7  17
ENDBRANCH   1  13
BRANCH   4  20
ATOM     20  S   UNL     1      -7.666   1.177   0.493  0.00  0.00    -0.077 S 
BRANCH  20  21
ATOM     21  C   UNL     1      -8.481   2.760   0.169  0.00  0.00    +0.173 C 
BRANCH  21  22
ATOM     22  C   UNL     1      -9.971   2.600   0.328  0.00  0.00    +0.227 C 
ATOM     23  O   UNL     1     -10.436   1.522   0.632  0.00  0.00    -0.275 OA
ATOM     24  N   UNL     1     -10.786   3.655   0.134  0.00  0.00    -0.285 N 
ATOM     25  H   UNL     1     -10.361   4.649  -0.067  0.00  0.00    +0.155 HD
BRANCH  24  26
ATOM     26  C   UNL     1     -12.175   3.485   0.187  0.00  0.00    +0.034 A 
ATOM     27  C   UNL     1     -12.998   4.232  -0.648  0.00  0.00    +0.023 A 
ATOM     28  C   UNL     1     -14.369   4.064  -0.603  0.00  0.00    +0.003 A 
ATOM     29  C   UNL     1     -14.931   3.162   0.278  0.00  0.00    +0.013 A 
ATOM     30  C   UNL     1     -14.113   2.412   1.124  0.00  0.00    +0.038 A 
ATOM     31  C   UNL     1     -12.728   2.577   1.075  0.00  0.00    +0.036 A 
BRANCH  30  32
ATOM     32  C   UNL     1     -14.711   1.446   2.070  0.00  0.00    +0.244 C 
ATOM     33  O   UNL     1     -13.997   0.793   2.806  0.00  0.00    -0.270 OA
ATOM     34  N   UNL     1     -16.049   1.288   2.115  0.00  0.00    -0.314 N 
ATOM     35  C   UNL     1     -16.642   0.330   3.052  0.00  0.00    +0.128 C 
ATOM     36  H   UNL     1     -16.695   1.878   1.449  0.00  0.00    +0.149 HD
ENDBRANCH  30  32
ENDBRANCH  24  26
ENDBRANCH  21  22
ENDBRANCH  20  21
ENDBRANCH   4  20
TORSDOF 7
