REMARK  Name = ZINC06846462
REMARK  10 active torsions:
REMARK  status: ('A' for Active; 'I' for Inactive)
REMARK    1  A    between atoms: C_1  and  C_2
REMARK    2  A    between atoms: C_2  and  C_3
REMARK    3  A    between atoms: C_19  and  C_22
REMARK    4  A    between atoms: N_24  and  C_25
REMARK    5  A    between atoms: C_25  and  C_26
REMARK    6  A    between atoms: C_26  and  N_27
REMARK    7  A    between atoms: N_27  and  C_28
REMARK    8  A    between atoms: N_27  and  C_30
REMARK    9  A    between atoms: C_28  and  C_29
REMARK   10  A    between atoms: C_30  and  C_31
REMARK                            x       y       z     vdW  Elec       q    Type
REMARK                         _______ _______ _______ _____ _____    ______ ____
ROOT
ATOM      1  C   UNL     1      -0.147  -2.221  -1.921  0.00  0.00    +0.191 C 
ATOM      2  C   UNL     1       1.267  -2.132  -2.514  0.00  0.00    +0.159 C 
ATOM      3  N   UNL     1       2.224  -2.272  -1.403  0.00  0.00    -0.248 N 
ATOM      4  C   UNL     1       1.939  -1.592  -0.206  0.00  0.00    +0.080 A 
ATOM      5  C   UNL     1       2.920  -1.448   0.762  0.00  0.00    +0.027 A 
ATOM      6  C   UNL     1       2.634  -0.782   1.939  0.00  0.00    +0.002 A 
ATOM      7  C   UNL     1       1.371  -0.260   2.150  0.00  0.00    +0.004 A 
ATOM      8  C   UNL     1       0.389  -0.400   1.188  0.00  0.00    +0.047 A 
ATOM      9  C   UNL     1       0.668  -1.065   0.003  0.00  0.00    +0.142 A 
ATOM     10  O   UNL     1      -0.303  -1.193  -0.940  0.00  0.00    -0.485 OA
ATOM     11  C   UNL     1       3.335  -3.025  -1.530  0.00  0.00    +0.309 C 
ATOM     12  O   UNL     1       4.032  -3.248  -0.559  0.00  0.00    -0.252 OA
ATOM     13  N   UNL     1       3.671  -3.532  -2.732  0.00  0.00    -0.285 N 
ATOM     14  C   UNL     1       3.115  -2.962  -3.967  0.00  0.00    +0.110 C 
ATOM     15  C   UNL     1       4.270  -2.601  -4.907  0.00  0.00    +0.032 C 
ATOM     16  C   UNL     1       5.150  -3.834  -5.125  0.00  0.00    +0.078 C 
ATOM     17  C   UNL     1       5.739  -4.285  -3.786  0.00  0.00    +0.032 C 
ATOM     18  C   UNL     1       4.606  -4.661  -2.834  0.00  0.00    +0.110 C 
ENDROOT
BRANCH  16  19
ATOM     19  C   UNL     1       6.268  -3.492  -6.076  0.00  0.00    +0.216 C 
ATOM     20  O   UNL     1       6.352  -2.372  -6.535  0.00  0.00    -0.276 OA
ATOM     21  N   UNL     1       7.173  -4.430  -6.417  0.00  0.00    -0.317 N 
ATOM     22  H   UNL     1       7.106  -5.325  -6.050  0.00  0.00    +0.149 HD
BRANCH  21  23
ATOM     23  C   UNL     1       8.260  -4.097  -7.342  0.00  0.00    +0.085 C 
BRANCH  23  24
ATOM     24  C   UNL     1       9.139  -5.330  -7.560  0.00  0.00    -0.060 C 
BRANCH  24  25
ATOM     25  N   UNL     1      10.229  -4.996  -8.487  0.00  0.00    +0.380 N 
ATOM     26  H   UNL     1       9.842  -4.622  -9.340  0.00  0.00    -0.082 HD
BRANCH  25  27
ATOM     27  C   UNL     1      11.109  -3.995  -7.869  0.00  0.00    -0.082 C 
ATOM     28  C   UNL     1      12.160  -3.544  -8.884  0.00  0.00    -0.017 C 
ENDBRANCH  25  27
BRANCH  25  29
ATOM     29  C   UNL     1      11.003  -6.208  -8.790  0.00  0.00    -0.082 C 
ATOM     30  C   UNL     1      10.128  -7.189  -9.572  0.00  0.00    -0.017 C 
ENDBRANCH  25  29
ENDBRANCH  24  25
ENDBRANCH  23  24
ENDBRANCH  21  23
ENDBRANCH  16  19
BRANCH   1  32
ATOM     31  C   UNL     1      -2.586  -2.236  -2.462  0.00  0.00    +0.007 C 
ATOM     32  C   UNL     1      -1.181  -2.030  -3.032  0.00  0.00    +0.043 C 
ENDBRANCH   1  32
TORSDOF 7
