REMARK  Name = ZINC64471141
REMARK  5 active torsions:
REMARK  status: ('A' for Active; 'I' for Inactive)
REMARK    1  A    between atoms: C_1  and  C_2
REMARK    2  A    between atoms: N_5  and  C_8
REMARK    3  A    between atoms: C_11  and  C_14
REMARK    4  A    between atoms: C_17  and  C_21
REMARK    5  A    between atoms: C_29  and  C_31
REMARK                            x       y       z     vdW  Elec       q    Type
REMARK                         _______ _______ _______ _____ _____    ______ ____
ROOT
ATOM      1  C   UNL     1      -0.689  -8.170   1.624  0.00  0.00    +0.180 C 
ATOM      2  N   UNL     1      -0.688  -8.521   3.064  0.00  0.00    -0.262 NA
ATOM      3  C   UNL     1       0.059  -9.805   3.120  0.00  0.00    +0.298 C 
ATOM      4  O   UNL     1       1.103  -9.626   2.136  0.00  0.00    -0.270 OA
ATOM      5  N   UNL     1       0.460  -8.887   1.032  0.00  0.00    -0.177 NA
ATOM      6  H   UNL     1      -0.226  -7.809   3.609  0.00  0.00    +0.127 HD
ATOM      7  H   UNL     1       1.107  -8.242   0.603  0.00  0.00    +0.156 HD
ENDROOT
BRANCH   3   8
ATOM      8  C   UNL     1       0.647 -10.017   4.491  0.00  0.00    +0.262 C 
ATOM      9  O   UNL     1       0.208 -10.889   5.211  0.00  0.00    -0.271 OA
ATOM     10  N   UNL     1       1.662  -9.239   4.918  0.00  0.00    -0.295 N 
ATOM     11  C   UNL     1       2.126  -8.104   4.107  0.00  0.00    +0.127 C 
ATOM     12  C   UNL     1       2.069  -6.834   4.965  0.00  0.00    +0.127 C 
ATOM     13  N   UNL     1       2.731  -7.104   6.248  0.00  0.00    -0.295 N 
ATOM     14  C   UNL     1       2.267  -8.239   7.059  0.00  0.00    +0.127 C 
ATOM     15  C   UNL     1       2.320  -9.506   6.204  0.00  0.00    +0.127 C 
ATOM     16  C   UNL     1       3.745  -6.326   6.675  0.00  0.00    +0.246 C 
ATOM     17  O   UNL     1       4.346  -6.613   7.692  0.00  0.00    -0.270 OA
BRANCH  16  18
ATOM     18  C   UNL     1       4.127  -5.122   5.905  0.00  0.00    +0.035 C 
ATOM     19  C   UNL     1       3.342  -4.024   5.986  0.00  0.00    +0.017 C 
ATOM     20  C   UNL     1       3.675  -2.831   5.139  0.00  0.00    +0.159 C 
ATOM     21  C   UNL     1       5.174  -2.837   4.907  0.00  0.00    -0.018 C 
ATOM     22  C   UNL     1       5.588  -1.591   5.196  0.00  0.00    +0.025 C 
ATOM     23  C   UNL     1       4.512  -0.856   5.743  0.00  0.00    +0.106 C 
ATOM     24  N   UNL     1       3.403  -1.543   5.760  0.00  0.00    -0.279 NA
ATOM     25  C   UNL     1       5.889  -4.014   4.604  0.00  0.00    +0.007 C 
ATOM     26  C   UNL     1       5.347  -5.166   5.090  0.00  0.00    +0.013 C 
ENDBRANCH  16  18
ENDBRANCH   3   8
BRANCH   1  30
ATOM     27  C   UNL     1      -0.209  -3.954   1.133  0.00  0.00    +0.013 A 
ATOM     28  C   UNL     1       0.284  -4.822   0.177  0.00  0.00    +0.022 A 
ATOM     29  C   UNL     1       0.129  -6.186   0.336  0.00  0.00    +0.008 A 
ATOM     30  C   UNL     1      -0.519  -6.683   1.451  0.00  0.00    -0.014 A 
ATOM     31  C   UNL     1      -1.011  -5.815   2.408  0.00  0.00    +0.008 A 
ATOM     32  C   UNL     1      -0.852  -4.451   2.251  0.00  0.00    +0.022 A 
BRANCH  27  37
ATOM     33  C   UNL     1       0.964   1.306  -0.509  0.00  0.00    +0.007 C 
ATOM     34  C   UNL     1       0.856  -0.220  -0.450  0.00  0.00    -0.011 C 
ATOM     35  C   UNL     1      -0.619  -0.627  -0.403  0.00  0.00    +0.020 C 
ATOM     36  C   UNL     1      -0.718  -2.148  -0.264  0.00  0.00    +0.085 C 
ATOM     37  N   UNL     1      -0.052  -2.574   0.973  0.00  0.00    -0.393 NA
ATOM     38  C   UNL     1       1.378  -2.251   0.905  0.00  0.00    +0.085 C 
ATOM     39  C   UNL     1       1.558  -0.734   0.811  0.00  0.00    +0.020 C 
ATOM     40  H   UNL     1      -0.467  -2.097   1.759  0.00  0.00    +0.126 HD
ENDBRANCH  27  37
ENDBRANCH   1  30
TORSDOF 4
