REMARK  Name = ZINC12807747
REMARK  9 active torsions:
REMARK  status: ('A' for Active; 'I' for Inactive)
REMARK    1  A    between atoms: C_1  and  C_2
REMARK    2  A    between atoms: C_5  and  C_9
REMARK    3  A    between atoms: C_6  and  C_8
REMARK    4  A    between atoms: C_9  and  N_51
REMARK    5  A    between atoms: C_10  and  N_51
REMARK    6  A    between atoms: C_11  and  C_13
REMARK    7  A    between atoms: C_11  and  C_14
REMARK    8  A    between atoms: C_11  and  N_51
REMARK    9  A    between atoms: C_20  and  C_25
REMARK                            x       y       z     vdW  Elec       q    Type
REMARK                         _______ _______ _______ _____ _____    ______ ____
ROOT
ATOM      1  C   UNL     1       5.009   0.609   2.720  0.00  0.00    +0.097 A 
ATOM      2  N   UNL     1       6.247   0.107   2.962  0.00  0.00    -0.312 N 
ATOM      3  H   UNL     1       6.744  -0.304   2.237  0.00  0.00    +0.170 HD
ATOM      4  C   UNL     1       6.800   0.171   4.188  0.00  0.00    +0.260 A 
ATOM      5  O   UNL     1       7.913  -0.283   4.388  0.00  0.00    -0.267 OA
ATOM      6  C   UNL     1       6.061   0.779   5.251  0.00  0.00    +0.083 A 
ATOM      7  C   UNL     1       6.439   0.966   6.648  0.00  0.00    +0.039 A 
ATOM      8  C   UNL     1       5.561   1.579   7.483  0.00  0.00    +0.059 A 
ATOM      9  S   UNL     1       4.171   1.940   6.428  0.00  0.00    -0.076 S 
ATOM     10  C   UNL     1       4.791   1.268   4.907  0.00  0.00    +0.116 A 
ATOM     11  N   UNL     1       4.312   1.174   3.669  0.00  0.00    -0.228 NA
ENDROOT
BRANCH   7  12
ATOM     12  C   UNL     1       7.748   0.497   7.144  0.00  0.00    +0.136 A 
ATOM     13  C   UNL     1       8.639   1.232   7.862  0.00  0.00    +0.050 A 
ATOM     14  C   UNL     1       9.743   0.393   8.121  0.00  0.00    +0.042 A 
ATOM     15  C   UNL     1       9.477  -0.797   7.548  0.00  0.00    +0.196 A 
ATOM     16  O   UNL     1       8.271  -0.730   6.958  0.00  0.00    -0.463 OA
ENDBRANCH   7  12
BRANCH   1  17
ATOM     17  C   UNL     1       4.431   0.516   1.332  0.00  0.00    -0.004 C 
ATOM     18  C   UNL     1       4.446  -0.942   0.869  0.00  0.00    -0.005 C 
BRANCH  17  20
ATOM     19  C   UNL     1       2.207   0.204   2.236  0.00  0.00    -0.095 C 
ATOM     20  N   UNL     1       3.048   1.038   1.353  0.00  0.00    +0.387 N 
ATOM     21  H   UNL     1       3.060   1.999   1.715  0.00  0.00    -0.081 HD
BRANCH  20  22
ATOM     22  C   UNL     1       2.490   1.048  -0.016  0.00  0.00    -0.042 C 
BRANCH  22  27
ATOM     23  C   UNL     1      -2.553   3.869   0.044  0.00  0.00    +0.044 C 
ATOM     24  C   UNL     1      -1.238   3.133   0.029  0.00  0.00    -0.050 A 
ATOM     25  C   UNL     1      -1.219   1.750   0.017  0.00  0.00    +0.003 A 
ATOM     26  C   UNL     1      -0.013   1.076   0.008  0.00  0.00    +0.002 A 
ATOM     27  C   UNL     1       1.175   1.783   0.000  0.00  0.00    -0.061 A 
ATOM     28  C   UNL     1       1.157   3.165   0.008  0.00  0.00    -0.049 A 
ATOM     29  C   UNL     1      -0.050   3.840   0.023  0.00  0.00    +0.007 A 
ATOM     30  C   UNL     1       2.451   3.937   0.001  0.00  0.00    +0.044 C 
ENDBRANCH  22  27
ENDBRANCH  20  22
ENDBRANCH  17  20
ENDBRANCH   1  17
TORSDOF 5
