REMARK  Name = ZINC35065891
REMARK  12 active torsions:
REMARK  status: ('A' for Active; 'I' for Inactive)
REMARK    1  A    between atoms: C_1  and  C_2
REMARK    2  A    between atoms: C_6  and  N_8
REMARK    3  A    between atoms: C_18  and  C_19
REMARK    4  A    between atoms: C_19  and  C_21
REMARK    5  A    between atoms: C_19  and  N_22
REMARK    6  A    between atoms: N_22  and  C_23
REMARK    7  A    between atoms: C_23  and  C_24
REMARK    8  A    between atoms: C_24  and  N_25
REMARK    9  A    between atoms: N_25  and  C_26
REMARK   10  A    between atoms: N_25  and  C_27
REMARK   11  A    between atoms: C_28  and  C_30
REMARK   12  A    between atoms: C_31  and  C_32
REMARK                            x       y       z     vdW  Elec       q    Type
REMARK                         _______ _______ _______ _____ _____    ______ ____
ROOT
ATOM      1  C   UNL     1       0.162  -5.032   1.135  0.00  0.00    +0.140 C 
ATOM      2  C   UNL     1       1.317  -4.745   0.173  0.00  0.00    +0.036 C 
ENDROOT
BRANCH   1  13
ATOM      3  N   UNL     1      -0.683  -4.139   3.269  0.00  0.00    -0.263 N 
ATOM      4  C   UNL     1      -0.548  -3.458   4.431  0.00  0.00    +0.266 A 
ATOM      5  O   UNL     1      -1.476  -3.347   5.210  0.00  0.00    -0.267 OA
ATOM      6  C   UNL     1       0.764  -2.858   4.716  0.00  0.00    +0.065 A 
ATOM      7  C   UNL     1       1.007  -2.138   5.884  0.00  0.00    +0.015 A 
ATOM      8  C   UNL     1       2.255  -1.597   6.101  0.00  0.00    +0.001 A 
ATOM      9  C   UNL     1       3.269  -1.764   5.167  0.00  0.00    +0.002 A 
ATOM     10  C   UNL     1       3.050  -2.472   4.006  0.00  0.00    +0.028 A 
ATOM     11  C   UNL     1       1.793  -3.030   3.764  0.00  0.00    +0.078 A 
ATOM     12  N   UNL     1       1.534  -3.735   2.634  0.00  0.00    -0.231 NA
ATOM     13  C   UNL     1       0.366  -4.258   2.411  0.00  0.00    +0.138 A 
BRANCH   3  19
ATOM     14  C   UNL     1      -4.049  -7.624   4.109  0.00  0.00    +0.044 C 
ATOM     15  C   UNL     1      -3.567  -6.420   3.340  0.00  0.00    -0.048 A 
ATOM     16  C   UNL     1      -4.338  -5.899   2.318  0.00  0.00    +0.003 A 
ATOM     17  C   UNL     1      -3.900  -4.795   1.611  0.00  0.00    +0.002 A 
ATOM     18  C   UNL     1      -2.688  -4.209   1.924  0.00  0.00    +0.026 A 
ATOM     19  C   UNL     1      -1.912  -4.730   2.950  0.00  0.00    +0.051 A 
ATOM     20  C   UNL     1      -2.358  -5.836   3.662  0.00  0.00    +0.029 A 
ENDBRANCH   3  19
ENDBRANCH   1  13
BRANCH   1  21
ATOM     21  N   UNL     1       0.120  -6.466   1.434  0.00  0.00    -0.290 N 
ATOM     22  C   UNL     1      -0.938  -7.205   1.044  0.00  0.00    +0.240 C 
ATOM     23  O   UNL     1      -1.858  -6.682   0.443  0.00  0.00    -0.271 OA
BRANCH  22  24
ATOM     24  C   UNL     1      -0.979  -8.638   1.343  0.00  0.00    +0.068 C 
ATOM     25  C   UNL     1      -2.037  -9.377   0.953  0.00  0.00    +0.013 C 
BRANCH  25  26
ATOM     26  C   UNL     1      -2.079 -10.818   1.254  0.00  0.00    -0.025 A 
ATOM     27  C   UNL     1      -1.026 -11.421   1.948  0.00  0.00    +0.008 A 
ATOM     28  C   UNL     1      -1.073 -12.771   2.226  0.00  0.00    +0.001 A 
ATOM     29  C   UNL     1      -2.158 -13.528   1.819  0.00  0.00    +0.000 A 
ATOM     30  C   UNL     1      -3.204 -12.938   1.131  0.00  0.00    +0.001 A 
ATOM     31  C   UNL     1      -3.174 -11.588   0.851  0.00  0.00    +0.008 A 
ENDBRANCH  25  26
ENDBRANCH  22  24
BRANCH  21  32
ATOM     32  C   UNL     1       1.228  -7.096   2.157  0.00  0.00    +0.090 C 
BRANCH  32  33
ATOM     33  C   UNL     1       0.891  -7.162   3.648  0.00  0.00    -0.060 C 
BRANCH  33  34
ATOM     34  N   UNL     1       2.051  -7.676   4.389  0.00  0.00    +0.377 N 
ATOM     35  C   UNL     1       1.772  -7.627   5.830  0.00  0.00    -0.097 C 
ATOM     36  C   UNL     1       2.311  -9.066   3.987  0.00  0.00    -0.097 C 
ATOM     37  H   UNL     1       2.860  -7.110   4.183  0.00  0.00    -0.083 HD
ENDBRANCH  33  34
ENDBRANCH  32  33
ENDBRANCH  21  32
ENDBRANCH   1  21
TORSDOF 8
