REMARK  Name = ZINC44319649
REMARK  11 active torsions:
REMARK  status: ('A' for Active; 'I' for Inactive)
REMARK    1  A    between atoms: C_1  and  C_2
REMARK    2  A    between atoms: C_9  and  C_18
REMARK    3  A    between atoms: C_10  and  N_12
REMARK    4  A    between atoms: C_18  and  CA_19
REMARK    5  A    between atoms: CA_19  and  C_21
REMARK    6  A    between atoms: CA_19  and  N_24
REMARK    7  A    between atoms: C_25  and  O_27
REMARK    8  A    between atoms: O_27  and  C_28
REMARK    9  A    between atoms: C_28  and  C_29
REMARK   10  A    between atoms: C_28  and  C_30
REMARK   11  A    between atoms: C_28  and  C_31
REMARK                            x       y       z     vdW  Elec       q    Type
REMARK                         _______ _______ _______ _____ _____    ______ ____
ROOT
ATOM      1  C   UNL     1       2.807   0.532  -0.191  0.00  0.00    +0.044 C 
ATOM      2  C   UNL     1       1.814  -0.598  -0.094  0.00  0.00    -0.050 A 
ATOM      3  C   UNL     1       1.035  -0.924  -1.202  0.00  0.00    +0.005 A 
ATOM      4  C   UNL     1       0.129  -1.939  -1.147  0.00  0.00    +0.026 A 
ATOM      5  C   UNL     1      -0.027  -2.672   0.041  0.00  0.00    +0.048 A 
ATOM      6  C   UNL     1       0.767  -2.338   1.166  0.00  0.00    -0.001 A 
ATOM      7  C   UNL     1       1.694  -1.289   1.073  0.00  0.00    +0.013 A 
ATOM      8  C   UNL     1       0.611  -3.074   2.358  0.00  0.00    +0.017 A 
ATOM      9  C   UNL     1      -0.304  -4.083   2.380  0.00  0.00    -0.006 A 
ATOM     10  C   UNL     1      -1.060  -4.365   1.233  0.00  0.00    +0.103 A 
ATOM     11  N   UNL     1      -0.909  -3.674   0.121  0.00  0.00    -0.343 N 
ATOM     12  H   UNL     1      -1.449  -3.896  -0.653  0.00  0.00    +0.167 HD
ENDROOT
BRANCH  10  13
ATOM     13  N   UNL     1      -1.988  -5.395   1.270  0.00  0.00    -0.312 N 
ATOM     14  C   UNL     1      -1.652  -6.735   0.764  0.00  0.00    +0.134 C 
ATOM     15  C   UNL     1      -2.023  -7.764   1.837  0.00  0.00    +0.178 C 
ATOM     16  O   UNL     1      -3.380  -7.559   2.238  0.00  0.00    -0.377 OA
ATOM     17  C   UNL     1      -3.626  -6.285   2.839  0.00  0.00    +0.178 C 
ATOM     18  C   UNL     1      -3.335  -5.182   1.822  0.00  0.00    +0.134 C 
ENDBRANCH  10  13
BRANCH   9  19
ATOM     19  C   UNL     1      -0.503  -4.895   3.634  0.00  0.00    +0.072 C 
BRANCH  19  20
ATOM     20  CA  UNL     1       0.859  -5.255   4.229  0.00  0.00    +0.193 C 
BRANCH  20  21
ATOM     21  N   UNL     1       1.584  -6.124   3.299  0.00  0.00    -0.267 N 
ATOM     22  C   UNL     1       2.932  -6.133   3.297  0.00  0.00    +0.401 C 
ATOM     23  O   UNL     1       3.546  -5.420   4.066  0.00  0.00    -0.226 OA
ATOM     24  H   UNL     1       1.095  -6.694   2.685  0.00  0.00    +0.153 HD
BRANCH  22  25
ATOM     25  O   UNL     1       3.599  -6.931   2.442  0.00  0.00    -0.445 OA
BRANCH  25  26
ATOM     26  C   UNL     1       5.026  -6.889   2.494  0.00  0.00    +0.107 C 
ATOM     27  C   UNL     1       5.498  -7.298   3.891  0.00  0.00    +0.055 C 
ATOM     28  C   UNL     1       5.603  -7.856   1.458  0.00  0.00    +0.055 C 
ATOM     29  C   UNL     1       5.506  -5.469   2.188  0.00  0.00    +0.055 C 
ENDBRANCH  25  26
ENDBRANCH  22  25
ENDBRANCH  20  21
BRANCH  20  30
ATOM     30  C   UNL     1       0.660  -5.975   5.538  0.00  0.00    +0.376 C 
ATOM     31  O   UNL     1       0.559  -7.190   5.557  0.00  0.00    -0.244 OA
ATOM     32  OXT UNL     1       0.601  -5.343   6.579  0.00  0.00    -0.244 OA
ENDBRANCH  20  30
ENDBRANCH  19  20
ENDBRANCH   9  19
TORSDOF 7
