REMARK  Name = ZINC63373379
REMARK  10 active torsions:
REMARK  status: ('A' for Active; 'I' for Inactive)
REMARK    1  A    between atoms: C_1  and  C_2
REMARK    2  A    between atoms: C_2  and  C_3
REMARK    3  A    between atoms: C_2  and  C_4
REMARK    4  A    between atoms: C_4  and  C_5
REMARK    5  A    between atoms: C_5  and  C_7
REMARK    6  A    between atoms: C_5  and  N_19
REMARK    7  A    between atoms: N_9  and  C_10
REMARK    8  A    between atoms: C_10  and  C_11
REMARK    9  A    between atoms: C_11  and  C_12
REMARK   10  A    between atoms: C_22  and  C_38
REMARK                            x       y       z     vdW  Elec       q    Type
REMARK                         _______ _______ _______ _____ _____    ______ ____
ROOT
ATOM      1  N   UNL     1       2.424   1.160  -1.079  0.00  0.00    -0.212 N 
ATOM      2  C   UNL     1       2.923   1.850  -0.032  0.00  0.00    +0.249 C 
ATOM      3  O   UNL     1       3.256   1.404   1.045  0.00  0.00    -0.273 OA
ATOM      4  C   UNL     1       2.981   3.293  -0.481  0.00  0.00    +0.136 C 
ATOM      5  C   UNL     1       2.079   4.158   0.407  0.00  0.00    +0.139 C 
ATOM      6  C   UNL     1       1.757   5.413  -0.397  0.00  0.00    -0.034 C 
ATOM      7  C   UNL     1       2.164   6.442   0.339  0.00  0.00    -0.001 A 
ATOM      8  C   UNL     1       2.070   7.895   0.123  0.00  0.00    +0.010 A 
ATOM      9  C   UNL     1       2.610   8.681   1.093  0.00  0.00    +0.001 A 
ATOM     10  C   UNL     1       3.226   8.173   2.240  0.00  0.00    +0.002 A 
ATOM     11  C   UNL     1       3.353   6.851   2.522  0.00  0.00    +0.026 A 
ATOM     12  C   UNL     1       2.820   5.925   1.578  0.00  0.00    +0.043 A 
ATOM     13  N   UNL     1       2.788   4.614   1.605  0.00  0.00    -0.375 N 
ATOM     14  C   UNL     1       1.156   5.378  -1.781  0.00  0.00    +0.052 C 
ATOM     15  C   UNL     1       2.029   4.434  -2.632  0.00  0.00    +0.115 C 
ATOM     16  N   UNL     1       2.354   3.256  -1.822  0.00  0.00    -0.269 N 
ATOM     17  C   UNL     1       2.132   1.966  -2.108  0.00  0.00    +0.313 C 
ATOM     18  O   UNL     1       1.710   1.573  -3.178  0.00  0.00    -0.252 OA
ATOM     19  C   UNL     1       4.418   3.818  -0.534  0.00  0.00    +0.044 C 
ATOM     20  H   UNL     1       3.166   4.042   2.292  0.00  0.00    +0.160 HD
ENDROOT
BRANCH   1  21
ATOM     21  C   UNL     1       2.230  -0.292  -1.091  0.00  0.00    +0.171 C 
BRANCH  21  22
ATOM     22  C   UNL     1       3.140  -0.911  -2.121  0.00  0.00    +0.234 C 
ATOM     23  O   UNL     1       3.876  -0.209  -2.780  0.00  0.00    -0.274 OA
ATOM     24  N   UNL     1       3.134  -2.246  -2.309  0.00  0.00    -0.313 N 
ATOM     25  H   UNL     1       2.545  -2.808  -1.782  0.00  0.00    +0.149 HD
BRANCH  24  26
ATOM     26  C   UNL     1       4.018  -2.848  -3.311  0.00  0.00    +0.109 C 
BRANCH  26  27
ATOM     27  C   UNL     1       3.816  -4.364  -3.323  0.00  0.00    +0.054 C 
BRANCH  27  28
ATOM     28  C   UNL     1       4.725  -4.984  -4.353  0.00  0.00    -0.046 A 
ATOM     29  C   UNL     1       4.288  -5.142  -5.655  0.00  0.00    +0.005 A 
ATOM     30  C   UNL     1       5.121  -5.710  -6.600  0.00  0.00    +0.020 A 
ATOM     31  C   UNL     1       6.393  -6.120  -6.243  0.00  0.00    +0.041 A 
ATOM     32  C   UNL     1       6.830  -5.962  -4.940  0.00  0.00    +0.020 A 
ATOM     33  C   UNL     1       5.998  -5.388  -3.997  0.00  0.00    +0.005 A 
ATOM     34 CL   UNL     1       7.440  -6.834  -7.429  0.00  0.00    -0.084 Cl
ENDBRANCH  27  28
ENDBRANCH  26  27
ENDBRANCH  24  26
ENDBRANCH  21  22
BRANCH  21  35
ATOM     35  C   UNL     1       0.775  -0.610  -1.438  0.00  0.00    +0.035 C 
BRANCH  35  37
ATOM     36  C   UNL     1      -1.603  -0.257  -0.757  0.00  0.00    +0.007 C 
ATOM     37  C   UNL     1      -0.143  -0.053  -0.348  0.00  0.00    -0.015 C 
ATOM     38  C   UNL     1       0.125  -0.787   0.968  0.00  0.00    +0.007 C 
ENDBRANCH  35  37
ENDBRANCH  21  35
ENDBRANCH   1  21
TORSDOF 7
