REMARK  Name = ZINC17370248
REMARK  13 active torsions:
REMARK  status: ('A' for Active; 'I' for Inactive)
REMARK    1  A    between atoms: C_1  and  C_2
REMARK    2  A    between atoms: C_2  and  C_3
REMARK    3  A    between atoms: C_3  and  C_5
REMARK    4  A    between atoms: C_3  and  C_6
REMARK    5  A    between atoms: C_9  and  C_12
REMARK    6  A    between atoms: C_12  and  C_14
REMARK    7  A    between atoms: C_12  and  N_17
REMARK    8  A    between atoms: C_14  and  C_15
REMARK    9  A    between atoms: C_14  and  C_16
REMARK   10  A    between atoms: C_18  and  C_20
REMARK   11  A    between atoms: C_20  and  N_21
REMARK   12  A    between atoms: N_28  and  C_33
REMARK   13  A    between atoms: N_31  and  C_32
REMARK                            x       y       z     vdW  Elec       q    Type
REMARK                         _______ _______ _______ _____ _____    ______ ____
ROOT
ATOM      1  N   UNL     1       1.346   1.674   2.558  0.00  0.00    -0.307 N 
ATOM      2  C   UNL     1       2.365   1.113   1.879  0.00  0.00    +0.233 C 
ATOM      3  O   UNL     1       2.178   0.109   1.224  0.00  0.00    -0.274 OA
ATOM      4  H   UNL     1       1.496   2.477   3.082  0.00  0.00    +0.149 HD
ENDROOT
BRANCH   1   5
ATOM      5  C   UNL     1       0.011   1.072   2.506  0.00  0.00    +0.106 C 
BRANCH   5   9
ATOM      6  C   UNL     1      -2.176   2.153   6.013  0.00  0.00    -0.045 A 
ATOM      7  C   UNL     1      -2.275   0.872   5.504  0.00  0.00    +0.004 A 
ATOM      8  C   UNL     1      -1.567   0.522   4.370  0.00  0.00    +0.006 A 
ATOM      9  C   UNL     1      -0.761   1.454   3.743  0.00  0.00    -0.027 A 
ATOM     10  C   UNL     1      -0.658   2.734   4.255  0.00  0.00    +0.006 A 
ATOM     11  C   UNL     1      -1.370   3.086   5.386  0.00  0.00    +0.004 A 
BRANCH   6  12
ATOM     12  C   UNL     1      -2.948   2.535   7.250  0.00  0.00    +0.016 C 
ATOM     13  C   UNL     1      -1.973   2.975   8.344  0.00  0.00    +0.012 C 
BRANCH  12  15
ATOM     14  C   UNL     1      -4.771   3.991   8.143  0.00  0.00    +0.004 C 
ATOM     15  C   UNL     1      -3.900   3.687   6.922  0.00  0.00    +0.004 C 
ENDBRANCH  12  15
ENDBRANCH   6  12
ENDBRANCH   5   9
BRANCH   5  16
ATOM     16  C   UNL     1      -0.729   1.579   1.267  0.00  0.00    +0.008 C 
ATOM     17  C   UNL     1      -0.013   1.086   0.008  0.00  0.00    +0.009 C 
ATOM     18  C   UNL     1      -0.750   3.109   1.275  0.00  0.00    +0.009 C 
ENDBRANCH   5  16
ENDBRANCH   1   5
BRANCH   2  19
ATOM     19  C   UNL     1       3.738   1.732   1.933  0.00  0.00    +0.219 C 
BRANCH  19  20
ATOM     20  N   UNL     1       4.663   0.941   1.118  0.00  0.00    -0.316 N 
ATOM     21  C   UNL     1       5.479  -0.039   1.554  0.00  0.00    +0.202 A 
ATOM     22  N   UNL     1       6.161  -0.525   0.549  0.00  0.00    -0.218 NA
ATOM     23  C   UNL     1       5.824   0.110  -0.576  0.00  0.00    +0.168 A 
ATOM     24  C   UNL     1       4.860   1.053  -0.244  0.00  0.00    +0.152 A 
ATOM     25  C   UNL     1       4.327   1.879  -1.257  0.00  0.00    +0.282 A 
ATOM     26  O   UNL     1       3.484   2.716  -0.990  0.00  0.00    -0.265 OA
ATOM     27  N   UNL     1       4.760   1.726  -2.527  0.00  0.00    -0.262 N 
ATOM     28  C   UNL     1       5.689   0.805  -2.835  0.00  0.00    +0.333 A 
ATOM     29  O   UNL     1       6.054   0.696  -3.990  0.00  0.00    -0.246 OA
ATOM     30  N   UNL     1       6.226   0.002  -1.898  0.00  0.00    -0.280 N 
ATOM     31  C   UNL     1       7.237  -0.989  -2.276  0.00  0.00    +0.155 C 
ATOM     32  C   UNL     1       4.207   2.576  -3.584  0.00  0.00    +0.157 C 
ENDBRANCH  19  20
ENDBRANCH   2  19
TORSDOF 7
