REMARK  Name = ZINC10134783
REMARK  7 active torsions:
REMARK  status: ('A' for Active; 'I' for Inactive)
REMARK    1  A    between atoms: C_1  and  C_2
REMARK    2  A    between atoms: C_6  and  N_8
REMARK    3  A    between atoms: C_17  and  S_18
REMARK    4  A    between atoms: S_18  and  C_19
REMARK    5  A    between atoms: C_19  and  C_21
REMARK    6  A    between atoms: C_19  and  C_22
REMARK    7  A    between atoms: N_27  and  C_28
REMARK                            x       y       z     vdW  Elec       q    Type
REMARK                         _______ _______ _______ _____ _____    ______ ____
ROOT
ATOM      1  N   UNL     1      -1.651   4.494  -4.529  0.00  0.00    -0.255 N 
ATOM      2  C   UNL     1      -1.889   3.563  -3.575  0.00  0.00    +0.268 A 
ATOM      3  O   UNL     1      -2.249   2.431  -3.852  0.00  0.00    -0.267 OA
ATOM      4  C   UNL     1      -1.693   3.989  -2.222  0.00  0.00    +0.076 A 
ATOM      5  C   UNL     1      -1.879   3.188  -1.023  0.00  0.00    -0.023 A 
ATOM      6  C   UNL     1      -1.637   3.799   0.159  0.00  0.00    -0.004 A 
ATOM      7  S   UNL     1      -1.151   5.454  -0.263  0.00  0.00    -0.073 S 
ATOM      8  C   UNL     1      -1.275   5.324  -2.019  0.00  0.00    +0.117 A 
ATOM      9  N   UNL     1      -1.057   6.191  -3.000  0.00  0.00    -0.215 NA
ATOM     10  C   UNL     1      -1.248   5.765  -4.241  0.00  0.00    +0.178 A 
ATOM     11  C   UNL     1      -1.754   3.205   1.529  0.00  0.00    +0.043 C 
ATOM     12  C   UNL     1      -2.552   1.897   1.424  0.00  0.00    +0.005 C 
ATOM     13  C   UNL     1      -1.982   1.067   0.270  0.00  0.00    +0.005 C 
ATOM     14  C   UNL     1      -2.327   1.729  -1.064  0.00  0.00    +0.037 C 
ENDROOT
BRANCH   1  20
ATOM     15  C   UNL     1      -4.569   4.149  -8.472  0.00  0.00    +0.044 C 
ATOM     16  C   UNL     1      -3.230   3.959  -7.808  0.00  0.00    -0.048 A 
ATOM     17  C   UNL     1      -2.172   3.430  -8.525  0.00  0.00    +0.003 A 
ATOM     18  C   UNL     1      -0.942   3.254  -7.919  0.00  0.00    +0.002 A 
ATOM     19  C   UNL     1      -0.765   3.610  -6.596  0.00  0.00    +0.026 A 
ATOM     20  C   UNL     1      -1.827   4.136  -5.872  0.00  0.00    +0.052 A 
ATOM     21  C   UNL     1      -3.061   4.312  -6.484  0.00  0.00    +0.029 A 
ENDBRANCH   1  20
BRANCH  10  22
ATOM     22  S   UNL     1      -0.970   6.886  -5.572  0.00  0.00    -0.075 S 
BRANCH  22  23
ATOM     23  C   UNL     1      -0.474   8.358  -4.644  0.00  0.00    +0.137 C 
ATOM     24  C   UNL     1      -1.651   8.849  -3.799  0.00  0.00    +0.029 C 
BRANCH  23  25
ATOM     25  C   UNL     1      -0.060   9.442  -5.606  0.00  0.00    +0.233 C 
ATOM     26  O   UNL     1      -0.496   9.447  -6.738  0.00  0.00    -0.274 OA
ATOM     27  N   UNL     1       0.795  10.405  -5.209  0.00  0.00    -0.239 N 
ATOM     28  C   UNL     1       1.165  11.374  -6.069  0.00  0.00    +0.306 C 
ATOM     29  O   UNL     1       0.728  11.380  -7.203  0.00  0.00    -0.252 OA
ATOM     30  N   UNL     1       2.020  12.338  -5.672  0.00  0.00    -0.302 N 
ATOM     31  C   UNL     1       2.422  13.391  -6.607  0.00  0.00    +0.129 C 
ATOM     32  H   UNL     1       1.190  10.401  -4.182  0.00  0.00    +0.159 HD
ATOM     33  H   UNL     1       2.415  12.333  -4.645  0.00  0.00    +0.150 HD
ENDBRANCH  23  25
ENDBRANCH  22  23
ENDBRANCH  10  22
TORSDOF 4
