REMARK  Name = ZINC45599274
REMARK  9 active torsions:
REMARK  status: ('A' for Active; 'I' for Inactive)
REMARK    1  A    between atoms: C_1  and  C_2
REMARK    2  A    between atoms: C_2  and  C_4
REMARK    3  A    between atoms: C_2  and  S_14
REMARK    4  A    between atoms: N_10  and  C_11
REMARK    5  A    between atoms: N_10  and  C_12
REMARK    6  A    between atoms: S_14  and  C_15
REMARK    7  A    between atoms: C_18  and  C_27
REMARK    8  A    between atoms: N_19  and  C_20
REMARK    9  A    between atoms: C_27  and  C_28
REMARK                            x       y       z     vdW  Elec       q    Type
REMARK                         _______ _______ _______ _____ _____    ______ ____
ROOT
ATOM      1  C   UNL     1      -2.024   0.180  -1.891  0.00  0.00    +0.197 A 
ATOM      2  N   UNL     1      -1.557   0.921  -2.870  0.00  0.00    -0.122 NA
ATOM      3  N   UNL     1      -2.441   1.030  -3.796  0.00  0.00    -0.133 NA
ATOM      4  C   UNL     1      -3.517   0.373  -3.469  0.00  0.00    +0.143 A 
ATOM      5  N   UNL     1      -3.290  -0.198  -2.245  0.00  0.00    -0.274 N 
ENDROOT
BRANCH   5   6
ATOM      6  C   UNL     1      -4.172  -1.002  -1.507  0.00  0.00    +0.050 A 
ATOM      7  C   UNL     1      -4.519  -2.262  -1.974  0.00  0.00    +0.028 A 
ATOM      8  C   UNL     1      -5.387  -3.052  -1.245  0.00  0.00    +0.022 A 
ATOM      9  C   UNL     1      -5.911  -2.587  -0.052  0.00  0.00    +0.041 A 
ATOM     10  C   UNL     1      -5.566  -1.331   0.415  0.00  0.00    +0.022 A 
ATOM     11  C   UNL     1      -4.694  -0.540  -0.307  0.00  0.00    +0.028 A 
ATOM     12 CL   UNL     1      -7.003  -3.581   0.861  0.00  0.00    -0.084 Cl
ENDBRANCH   5   6
BRANCH   1  13
ATOM     13  S   UNL     1      -1.178  -0.250  -0.407  0.00  0.00    -0.075 S 
BRANCH  13  15
ATOM     14  C   UNL     1       0.238   2.085  -0.572  0.00  0.00    +0.028 C 
ATOM     15  C   UNL     1       0.434   0.567  -0.567  0.00  0.00    +0.119 C 
BRANCH  15  16
ATOM     16  C   UNL     1       1.313   0.177   0.593  0.00  0.00    +0.149 A 
ATOM     17  N   UNL     1       0.821   0.173   1.820  0.00  0.00    -0.198 NA
ATOM     18  C   UNL     1       1.594  -0.171   2.847  0.00  0.00    +0.217 A 
ATOM     19  N   UNL     1       2.862  -0.510   2.638  0.00  0.00    -0.181 NA
ATOM     20  C   UNL     1       3.352  -0.505   1.404  0.00  0.00    +0.222 A 
ATOM     21  N   UNL     1       2.571  -0.164   0.381  0.00  0.00    -0.198 NA
ATOM     22  N   UNL     1       4.668  -0.856   1.182  0.00  0.00    -0.306 N 
ATOM     23  C   UNL     1       5.525  -1.235   2.308  0.00  0.00    +0.132 C 
ATOM     24  C   UNL     1       5.208  -0.849  -0.180  0.00  0.00    +0.132 C 
ATOM     25  N   UNL     1       1.080  -0.176   4.128  0.00  0.00    -0.327 N 
ATOM     26  H   UNL     1       0.154   0.072   4.280  0.00  0.00    +0.145 HD
ATOM     27  H   UNL     1       1.644  -0.426   4.876  0.00  0.00    +0.145 HD
ENDBRANCH  15  16
ENDBRANCH  13  15
ENDBRANCH   1  13
BRANCH   4  28
ATOM     28  C   UNL     1      -4.777   0.258  -4.288  0.00  0.00    +0.111 C 
BRANCH  28  29
ATOM     29  C   UNL     1      -5.663   1.446  -4.017  0.00  0.00    -0.040 A 
ATOM     30  C   UNL     1      -6.663   1.361  -3.067  0.00  0.00    +0.004 A 
ATOM     31  C   UNL     1      -7.476   2.451  -2.819  0.00  0.00    +0.000 A 
ATOM     32  C   UNL     1      -7.287   3.628  -3.521  0.00  0.00    +0.000 A 
ATOM     33  C   UNL     1      -6.287   3.713  -4.470  0.00  0.00    +0.000 A 
ATOM     34  C   UNL     1      -5.471   2.624  -4.715  0.00  0.00    +0.004 A 
ENDBRANCH  28  29
ENDBRANCH   4  28
TORSDOF 6
