REMARK  Name = ZINC49234499
REMARK  8 active torsions:
REMARK  status: ('A' for Active; 'I' for Inactive)
REMARK    1  A    between atoms: C_1  and  C_2
REMARK    2  A    between atoms: C_5  and  N_21
REMARK    3  A    between atoms: C_6  and  S_9
REMARK    4  A    between atoms: C_7  and  C_8
REMARK    5  A    between atoms: S_9  and  N_12
REMARK    6  A    between atoms: C_15  and  C_18
REMARK    7  A    between atoms: C_18  and  C_19
REMARK    8  A    between atoms: C_18  and  C_20
REMARK                            x       y       z     vdW  Elec       q    Type
REMARK                         _______ _______ _______ _____ _____    ______ ____
ROOT
ATOM      1  S   UNL     1      -0.949  -2.982   2.528  0.00  0.00    +0.103 S 
ATOM      2  O   UNL     1      -1.916  -2.167   3.176  0.00  0.00    -0.146 OA
ATOM      3  O   UNL     1      -1.235  -4.303   2.090  0.00  0.00    -0.146 OA
ENDROOT
BRANCH   1   9
ATOM      4  C   UNL     1      -0.078   1.501  -0.012  0.00  0.00    +0.044 C 
ATOM      5  C   UNL     1      -0.026  -0.005  -0.009  0.00  0.00    -0.046 A 
ATOM      6  C   UNL     1       0.446  -0.681  -1.119  0.00  0.00    +0.005 A 
ATOM      7  C   UNL     1       0.495  -2.061  -1.119  0.00  0.00    +0.025 A 
ATOM      8  C   UNL     1       0.068  -2.770  -0.003  0.00  0.00    +0.052 A 
ATOM      9  C   UNL     1      -0.406  -2.087   1.110  0.00  0.00    +0.136 A 
ATOM     10  C   UNL     1      -0.446  -0.707   1.106  0.00  0.00    -0.019 A 
ATOM     11  C   UNL     1      -0.955   0.035   2.315  0.00  0.00    +0.046 C 
BRANCH   8  12
ATOM     12  N   UNL     1       0.116  -4.166   0.000  0.00  0.00    -0.356 N 
ATOM     13  H   UNL     1       0.076  -4.654  -0.837  0.00  0.00    +0.142 HD
ATOM     14  H   UNL     1       0.188  -4.647   0.839  0.00  0.00    +0.142 HD
ENDBRANCH   8  12
ENDBRANCH   1   9
BRANCH   1  15
ATOM     15  N   UNL     1       0.342  -3.094   3.559  0.00  0.00    -0.103 NA
ATOM     16  C   UNL     1       0.213  -3.718   4.705  0.00  0.00    +0.192 A 
ATOM     17  N   UNL     1       1.145  -3.919   5.699  0.00  0.00    -0.336 N 
ATOM     18  C   UNL     1       0.768  -4.608   6.815  0.00  0.00    +0.027 A 
ATOM     19  C   UNL     1      -0.477  -5.071   6.928  0.00  0.00    +0.070 A 
ATOM     20  S   UNL     1      -1.221  -4.527   5.398  0.00  0.00    -0.057 S 
ATOM     21  H   UNL     1       2.049  -3.580   5.609  0.00  0.00    +0.168 HD
BRANCH  18  22
ATOM     22  C   UNL     1       1.761  -4.847   7.922  0.00  0.00    +0.030 C 
ATOM     23  C   UNL     1       2.949  -5.644   7.378  0.00  0.00    +0.013 C 
ATOM     24  C   UNL     1       2.253  -3.504   8.465  0.00  0.00    +0.013 C 
ENDBRANCH  18  22
ENDBRANCH   1  15
TORSDOF 4
