REMARK  Name = ZINC35745937
REMARK  17 active torsions:
REMARK  status: ('A' for Active; 'I' for Inactive)
REMARK    1  A    between atoms: C_1  and  C_2
REMARK    2  A    between atoms: C_2  and  C_3
REMARK    3  A    between atoms: C_2  and  C_4
REMARK    4  A    between atoms: C_4  and  C_5
REMARK    5  A    between atoms: C_5  and  N_6
REMARK    6  A    between atoms: N_6  and  C_7
REMARK    7  A    between atoms: N_6  and  C_29
REMARK    8  A    between atoms: C_7  and  C_8
REMARK    9  A    between atoms: C_14  and  C_19
REMARK   10  A    between atoms: C_22  and  O_27
REMARK   11  A    between atoms: C_23  and  O_25
REMARK   12  A    between atoms: O_25  and  C_26
REMARK   13  A    between atoms: O_27  and  C_28
REMARK   14  A    between atoms: C_29  and  C_30
REMARK   15  A    between atoms: C_30  and  C_32
REMARK   16  A    between atoms: C_30  and  O_39
REMARK   17  A    between atoms: C_32  and  C_33
REMARK                            x       y       z     vdW  Elec       q    Type
REMARK                         _______ _______ _______ _____ _____    ______ ____
ROOT
ATOM      1  C   UNL     1      -2.671  -4.381   1.337  0.00  0.00    +0.094 A 
ATOM      2  N   UNL     1      -2.769  -5.698   1.651  0.00  0.00    -0.312 N 
ATOM      3  H   UNL     1      -3.118  -6.319   0.992  0.00  0.00    +0.170 HD
ATOM      4  C   UNL     1      -2.392  -6.159   2.858  0.00  0.00    +0.260 A 
ATOM      5  O   UNL     1      -2.486  -7.345   3.124  0.00  0.00    -0.267 OA
ATOM      6  C   UNL     1      -1.878  -5.236   3.824  0.00  0.00    +0.080 A 
ATOM      7  C   UNL     1      -1.409  -5.487   5.181  0.00  0.00    +0.004 A 
ATOM      8  C   UNL     1      -0.961  -4.443   5.919  0.00  0.00    +0.056 A 
ATOM      9  S   UNL     1      -1.146  -3.052   4.820  0.00  0.00    -0.076 S 
ATOM     10  C   UNL     1      -1.814  -3.896   3.410  0.00  0.00    +0.116 A 
ATOM     11  N   UNL     1      -2.202  -3.515   2.195  0.00  0.00    -0.229 NA
ENDROOT
BRANCH   7  12
ATOM     12  C   UNL     1      -1.423  -6.859   5.744  0.00  0.00    -0.013 A 
ATOM     13  C   UNL     1      -2.578  -7.636   5.660  0.00  0.00    +0.012 A 
ATOM     14  C   UNL     1      -2.590  -8.912   6.184  0.00  0.00    +0.050 A 
ATOM     15  C   UNL     1      -1.456  -9.425   6.795  0.00  0.00    +0.162 A 
ATOM     16  C   UNL     1      -0.300  -8.654   6.881  0.00  0.00    +0.162 A 
ATOM     17  C   UNL     1      -0.281  -7.375   6.352  0.00  0.00    +0.058 A 
BRANCH  16  18
ATOM     18  O   UNL     1       0.812  -9.159   7.480  0.00  0.00    -0.491 OA
ATOM     19  C   UNL     1       1.962  -8.312   7.533  0.00  0.00    +0.277 C 
ENDBRANCH  16  18
BRANCH  15  20
ATOM     20  O   UNL     1      -1.472 -10.683   7.311  0.00  0.00    -0.491 OA
ATOM     21  C   UNL     1      -2.691 -11.419   7.188  0.00  0.00    +0.277 C 
ENDBRANCH  15  20
ENDBRANCH   7  12
BRANCH   1  22
ATOM     22  C   UNL     1      -3.106  -3.910  -0.027  0.00  0.00    -0.003 C 
BRANCH  22  23
ATOM     23  N   UNL     1      -2.901  -2.459  -0.133  0.00  0.00    +0.386 N 
ATOM     24  H   UNL     1      -3.380  -1.996   0.624  0.00  0.00    -0.081 HD
BRANCH  23  25
ATOM     25  C   UNL     1      -1.464  -2.161  -0.058  0.00  0.00    -0.078 C 
BRANCH  25  26
ATOM     26  C   UNL     1      -0.752  -2.775  -1.266  0.00  0.00    -0.016 C 
BRANCH  26  28
ATOM     27  C   UNL     1       1.478  -3.306  -2.260  0.00  0.00    +0.007 C 
ATOM     28  C   UNL     1       0.758  -2.584  -1.118  0.00  0.00    -0.019 C 
ATOM     29  C   UNL     1       1.092  -1.092  -1.167  0.00  0.00    +0.007 C 
ENDBRANCH  26  28
ENDBRANCH  25  26
ENDBRANCH  23  25
BRANCH  23  30
ATOM     30  C   UNL     1      -3.434  -1.982  -1.416  0.00  0.00    -0.046 C 
BRANCH  30  31
ATOM     31  C   UNL     1      -3.342  -0.456  -1.470  0.00  0.00    +0.102 C 
BRANCH  31  32
ATOM     32  O   UNL     1      -4.133   0.107  -0.421  0.00  0.00    -0.393 OA
ATOM     33  H   UNL     1      -5.071  -0.124  -0.469  0.00  0.00    +0.210 HD
ENDBRANCH  31  32
BRANCH  31  34
ATOM     34  C   UNL     1      -3.861   0.039  -2.821  0.00  0.00    +0.064 C 
BRANCH  34  35
ATOM     35  C   UNL     1      -3.657   1.529  -2.923  0.00  0.00    -0.045 A 
ATOM     36  C   UNL     1      -4.642   2.393  -2.483  0.00  0.00    +0.004 A 
ATOM     37  C   UNL     1      -4.455   3.759  -2.576  0.00  0.00    +0.000 A 
ATOM     38  C   UNL     1      -3.283   4.262  -3.109  0.00  0.00    +0.000 A 
ATOM     39  C   UNL     1      -2.297   3.398  -3.548  0.00  0.00    +0.000 A 
ATOM     40  C   UNL     1      -2.482   2.031  -3.451  0.00  0.00    +0.004 A 
ENDBRANCH  34  35
ENDBRANCH  31  34
ENDBRANCH  30  31
ENDBRANCH  23  30
ENDBRANCH  22  23
ENDBRANCH   1  22
TORSDOF 13
