REMARK  Name = ZINC09317898
REMARK  7 active torsions:
REMARK  status: ('A' for Active; 'I' for Inactive)
REMARK    1  A    between atoms: C_1  and  C_2
REMARK    2  A    between atoms: C_2  and  C_3
REMARK    3  A    between atoms: C_2  and  C_4
REMARK    4  A    between atoms: C_2  and  C_5
REMARK    5  A    between atoms: C_5  and  C_7
REMARK    6  A    between atoms: C_9  and  C_31
REMARK    7  A    between atoms: C_31  and  C_33
REMARK                            x       y       z     vdW  Elec       q    Type
REMARK                         _______ _______ _______ _____ _____    ______ ____
ROOT
ATOM      1  C   UNL     1      -3.720  -0.156   1.361  0.00  0.00    +0.136 C 
ATOM      2  C   UNL     1      -2.847   1.125   1.351  0.00  0.00    +0.108 C 
ATOM      3  C   UNL     1      -2.462   1.298  -0.132  0.00  0.00    +0.107 C 
ATOM      4  C   UNL     1      -1.065   1.778  -0.303  0.00  0.00    -0.008 A 
ATOM      5  C   UNL     1       0.166   1.181  -0.127  0.00  0.00    +0.006 A 
ATOM      6  C   UNL     1       1.297   1.964  -0.337  0.00  0.00    +0.000 A 
ATOM      7  C   UNL     1       1.199   3.286  -0.718  0.00  0.00    +0.002 A 
ATOM      8  C   UNL     1      -0.028   3.890  -0.933  0.00  0.00    +0.023 A 
ATOM      9  C   UNL     1      -1.169   3.116  -0.721  0.00  0.00    +0.038 A 
ATOM     10  N   UNL     1      -2.498   3.469  -0.879  0.00  0.00    -0.284 N 
ATOM     11  C   UNL     1      -3.314   2.406  -0.720  0.00  0.00    +0.231 C 
ATOM     12  O   UNL     1      -4.495   2.351  -0.978  0.00  0.00    -0.274 OA
ATOM     13  C   UNL     1      -2.765  -0.030  -0.809  0.00  0.00    +0.107 C 
ATOM     14  C   UNL     1      -3.118  -2.338   0.195  0.00  0.00    +0.054 C 
ATOM     15  C   UNL     1      -2.233  -2.885  -0.653  0.00  0.00    +0.022 C 
ATOM     16  C   UNL     1      -1.379  -2.010  -1.480  0.00  0.00    -0.019 A 
ATOM     17  C   UNL     1      -1.624  -0.636  -1.565  0.00  0.00    -0.020 A 
ATOM     18  C   UNL     1      -0.831   0.138  -2.389  0.00  0.00    +0.006 A 
ATOM     19  C   UNL     1       0.236  -0.421  -3.070  0.00  0.00    +0.000 A 
ATOM     20  C   UNL     1       0.494  -1.776  -2.970  0.00  0.00    +0.001 A 
ATOM     21  C   UNL     1      -0.310  -2.574  -2.187  0.00  0.00    +0.008 A 
ATOM     22  H   UNL     1      -2.803   4.366  -1.084  0.00  0.00    +0.155 HD
ATOM     23  N   UNL     1      -3.521  -0.874   0.081  0.00  0.00    -0.384 NA
ATOM     24  H   UNL     1      -4.453  -0.916  -0.346  0.00  0.00    +0.127 HD
ENDROOT
BRANCH   1  25
ATOM     25  C   UNL     1      -5.176   0.164   1.160  0.00  0.00    +0.158 C 
ATOM     26  O   UNL     1      -5.648   0.156   0.048  0.00  0.00    -0.295 OA
BRANCH  25  28
ATOM     27  C   UNL     1      -7.491   0.688   1.879  0.00  0.00    +0.018 C 
ATOM     28  C   UNL     1      -6.046   0.496   2.345  0.00  0.00    +0.022 C 
ATOM     29  C   UNL     1      -5.985  -0.649   3.358  0.00  0.00    +0.018 C 
ATOM     30  C   UNL     1      -5.546   1.784   3.001  0.00  0.00    +0.018 C 
ENDBRANCH  25  28
ENDBRANCH   1  25
BRANCH   2  31
ATOM     31  C   UNL     1      -1.647   0.967   2.243  0.00  0.00    +0.170 C 
ATOM     32  O   UNL     1      -1.202  -0.138   2.470  0.00  0.00    -0.292 OA
BRANCH  31  33
ATOM     33  C   UNL     1      -1.012   2.152   2.841  0.00  0.00    +0.018 A 
ATOM     34  C   UNL     1      -1.567   3.421   2.644  0.00  0.00    +0.011 A 
ATOM     35  C   UNL     1      -0.969   4.527   3.210  0.00  0.00    +0.001 A 
ATOM     36  C   UNL     1       0.183   4.385   3.964  0.00  0.00    +0.000 A 
ATOM     37  C   UNL     1       0.741   3.133   4.159  0.00  0.00    +0.001 A 
ATOM     38  C   UNL     1       0.152   2.017   3.603  0.00  0.00    +0.011 A 
ENDBRANCH  31  33
ENDBRANCH   2  31
TORSDOF 4
