REMARK  Name = ZINC21258921
REMARK  7 active torsions:
REMARK  status: ('A' for Active; 'I' for Inactive)
REMARK    1  A    between atoms: C_1  and  C_2
REMARK    2  A    between atoms: C_2  and  O_3
REMARK    3  A    between atoms: O_3  and  C_4
REMARK    4  A    between atoms: C_7  and  C_10
REMARK    5  A    between atoms: C_15  and  C_25
REMARK    6  A    between atoms: C_28  and  C_34
REMARK    7  A    between atoms: C_29  and  N_31
REMARK                            x       y       z     vdW  Elec       q    Type
REMARK                         _______ _______ _______ _____ _____    ______ ____
ROOT
ATOM      1  C   UNL     1      -2.012  -0.801  -3.937  0.00  0.00    +0.032 C 
ATOM      2  C   UNL     1      -2.587  -1.742  -2.880  0.00  0.00    +0.059 C 
ATOM      3  C   UNL     1      -2.492  -1.101  -1.506  0.00  0.00    +0.017 C 
ATOM      4  C   UNL     1      -2.583   0.229  -1.366  0.00  0.00    +0.036 C 
ATOM      5  C   UNL     1      -2.522   0.995  -0.066  0.00  0.00    +0.136 C 
ATOM      6  N   UNL     1      -2.607   0.170   1.120  0.00  0.00    -0.331 N 
ATOM      7  C   UNL     1      -1.611  -0.756   1.423  0.00  0.00    +0.049 A 
ATOM      8  C   UNL     1      -0.818  -0.625   2.552  0.00  0.00    +0.025 A 
ATOM      9  C   UNL     1       0.190  -1.543   2.785  0.00  0.00    +0.002 A 
ATOM     10  C   UNL     1       0.409  -2.583   1.900  0.00  0.00    +0.002 A 
ATOM     11  C   UNL     1      -0.393  -2.728   0.780  0.00  0.00    +0.025 A 
ATOM     12  C   UNL     1      -1.416  -1.822   0.558  0.00  0.00    +0.052 A 
ATOM     13  N   UNL     1      -2.329  -1.974  -0.479  0.00  0.00    -0.316 N 
ATOM     14  C   UNL     1      -2.758   1.056  -2.505  0.00  0.00    +0.163 C 
ATOM     15  O   UNL     1      -2.858   2.258  -2.349  0.00  0.00    -0.292 OA
ATOM     16  C   UNL     1      -2.823   0.499  -3.895  0.00  0.00    +0.088 C 
ATOM     17  H   UNL     1      -3.469   0.269   1.797  0.00  0.00    +0.147 HD
ATOM     18  H   UNL     1      -2.946  -2.882  -0.426  0.00  0.00    +0.152 HD
ENDROOT
BRANCH   5  19
ATOM     19  C   UNL     1      -1.223   1.758  -0.024  0.00  0.00    -0.021 A 
ATOM     20  C   UNL     1      -0.022   1.076   0.037  0.00  0.00    +0.006 A 
ATOM     21  C   UNL     1       1.170   1.776   0.070  0.00  0.00    +0.006 A 
ATOM     22  C   UNL     1       1.160   3.158   0.049  0.00  0.00    -0.020 A 
ATOM     23  C   UNL     1      -0.041   3.840  -0.007  0.00  0.00    +0.129 A 
ATOM     24  C   UNL     1      -1.233   3.140  -0.040  0.00  0.00    +0.038 A 
ATOM     25  C   UNL     1       2.459   3.921   0.085  0.00  0.00    +0.046 C 
BRANCH  23  26
ATOM     26  N   UNL     1      -0.051   5.320  -0.030  0.00  0.00    +0.057 N 
ATOM     27  O   UNL     1      -1.105   5.923   0.065  0.00  0.00    -0.126 OA
ATOM     28  O   UNL     1       0.994   5.935  -0.145  0.00  0.00    -0.126 OA
ENDBRANCH  23  26
ENDBRANCH   5  19
BRANCH   1  32
ATOM     29  C   UNL     1      -2.342  -2.591  -7.803  0.00  0.00    +0.121 A 
ATOM     30  C   UNL     1      -1.095  -2.252  -7.299  0.00  0.00    +0.046 A 
ATOM     31  C   UNL     1      -0.991  -1.674  -6.048  0.00  0.00    +0.007 A 
ATOM     32  C   UNL     1      -2.128  -1.433  -5.300  0.00  0.00    -0.043 A 
ATOM     33  C   UNL     1      -3.372  -1.775  -5.798  0.00  0.00    +0.007 A 
ATOM     34  C   UNL     1      -3.482  -2.349  -7.050  0.00  0.00    +0.046 A 
BRANCH  29  35
ATOM     35  O   UNL     1      -2.447  -3.160  -9.033  0.00  0.00    -0.492 OA
BRANCH  35  37
ATOM     36  C   UNL     1      -3.681  -4.111 -10.881  0.00  0.00    +0.048 C 
ATOM     37  C   UNL     1      -3.763  -3.483  -9.488  0.00  0.00    +0.225 C 
ENDBRANCH  35  37
ENDBRANCH  29  35
ENDBRANCH   1  32
TORSDOF 5
