REMARK  Name = ZINC04210501
REMARK  8 active torsions:
REMARK  status: ('A' for Active; 'I' for Inactive)
REMARK    1  A    between atoms: C_2  and  C_3
REMARK    2  A    between atoms: C_3  and  O_4
REMARK    3  A    between atoms: O_4  and  C_5
REMARK    4  A    between atoms: C_9  and  C_11
REMARK    5  A    between atoms: N_12  and  N_13
REMARK    6  A    between atoms: C_14  and  C_16
REMARK    7  A    between atoms: C_16  and  N_17
REMARK    8  A    between atoms: C_18  and  C_20
REMARK                            x       y       z     vdW  Elec       q    Type
REMARK                         _______ _______ _______ _____ _____    ______ ____
ROOT
ATOM      1  N   UNL     1       3.848  11.258   0.029  0.00  0.00    -0.206 N 
ATOM      2  C   UNL     1       3.107  10.133   0.029  0.00  0.00    +0.249 C 
ATOM      3  O   UNL     1       1.896  10.204   0.041  0.00  0.00    -0.272 OA
ATOM      4  H   UNL     1       4.816  11.201   0.019  0.00  0.00    +0.177 HD
ENDROOT
BRANCH   1   6
ATOM      5  C   UNL     1       3.934  13.595   0.041  0.00  0.00    +0.139 C 
ATOM      6  N   UNL     1       3.220  12.511   0.042  0.00  0.00    -0.188 NA
BRANCH   5  11
ATOM      7  C   UNL     1       3.410  17.314   0.067  0.00  0.00    +0.122 A 
ATOM      8  C   UNL     1       2.024  17.389   0.081  0.00  0.00    +0.047 A 
ATOM      9  C   UNL     1       1.264  16.235   0.082  0.00  0.00    +0.019 A 
ATOM     10  C   UNL     1       1.878  14.998   0.069  0.00  0.00    +0.027 A 
ATOM     11  C   UNL     1       3.273  14.913   0.055  0.00  0.00    +0.012 A 
ATOM     12  C   UNL     1       4.038  16.081   0.060  0.00  0.00    +0.056 A 
ATOM     13 BR   UNL     1       0.833  13.422   0.070  0.00  0.00    -0.050 Br
BRANCH   7  14
ATOM     14  O   UNL     1       4.152  18.453   0.067  0.00  0.00    -0.488 OA
BRANCH  14  15
ATOM     15  C   UNL     1       3.439  19.692   0.081  0.00  0.00    +0.256 C 
BRANCH  15  17
ATOM     16  C   UNL     1       4.229  21.860  -0.716  0.00  0.00    +0.007 C 
ATOM     17  C   UNL     1       4.419  20.836   0.078  0.00  0.00    +0.006 C 
ENDBRANCH  15  17
ENDBRANCH  14  15
ENDBRANCH   7  14
ENDBRANCH   5  11
ENDBRANCH   1   6
BRANCH   2  18
ATOM     18  C   UNL     1       3.782   8.786   0.015  0.00  0.00    +0.202 C 
BRANCH  18  19
ATOM     19  N   UNL     1       2.767   7.730   0.019  0.00  0.00    -0.302 N 
ATOM     20  C   UNL     1       3.140   6.435   0.008  0.00  0.00    +0.253 C 
ATOM     21  O   UNL     1       4.322   6.143  -0.005  0.00  0.00    -0.270 OA
ATOM     22  H   UNL     1       1.825   7.963   0.029  0.00  0.00    +0.150 HD
BRANCH  20  23
ATOM     23  C   UNL     1       2.122   5.377   0.011  0.00  0.00    +0.093 A 
ATOM     24  C   UNL     1       2.301   4.028   0.002  0.00  0.00    +0.068 A 
ATOM     25  C   UNL     1       1.184   3.173   0.008  0.00  0.00    +0.008 A 
ATOM     26  C   UNL     1       1.164   1.754   0.000  0.00  0.00    +0.010 A 
ATOM     27  C   UNL     1      -0.013   1.076   0.008  0.00  0.00    +0.001 A 
ATOM     28  C   UNL     1      -1.235   1.737   0.017  0.00  0.00    +0.001 A 
ATOM     29  C   UNL     1      -1.261   3.117   0.030  0.00  0.00    +0.016 A 
ATOM     30  C   UNL     1      -0.075   3.819   0.023  0.00  0.00    +0.021 A 
ATOM     31  S   UNL     1       0.346   5.544   0.029  0.00  0.00    -0.082 S 
ATOM     32 CL   UNL     1       3.905   3.364  -0.017  0.00  0.00    -0.082 Cl
ENDBRANCH  20  23
ENDBRANCH  18  19
ENDBRANCH   2  18
TORSDOF 8
