REMARK  Name = ZINC12711284
REMARK  10 active torsions:
REMARK  status: ('A' for Active; 'I' for Inactive)
REMARK    1  A    between atoms: C_1  and  C_2
REMARK    2  A    between atoms: C_7  and  C_15
REMARK    3  A    between atoms: C_13  and  C_14
REMARK    4  A    between atoms: C_15  and  C_17
REMARK    5  A    between atoms: C_15  and  N_67
REMARK    6  A    between atoms: N_21  and  C_22
REMARK    7  A    between atoms: C_22  and  C_23
REMARK    8  A    between atoms: C_26  and  O_29
REMARK    9  A    between atoms: O_29  and  C_30
REMARK   10  A    between atoms: C_34  and  C_37
REMARK                            x       y       z     vdW  Elec       q    Type
REMARK                         _______ _______ _______ _____ _____    ______ ____
ROOT
ATOM      1  C   UNL     1      -4.091  -5.186   1.578  0.00  0.00    +0.039 C 
ENDROOT
BRANCH   1   8
ATOM      2  C   UNL     1       2.665  -4.105   5.679  0.00  0.00    +0.044 C 
ATOM      3  C   UNL     1       1.301  -4.139   5.038  0.00  0.00    -0.046 A 
ATOM      4  C   UNL     1       0.313  -3.269   5.479  0.00  0.00    +0.004 A 
ATOM      5  C   UNL     1      -0.929  -3.283   4.912  0.00  0.00    +0.010 A 
ATOM      6  C   UNL     1      -1.209  -4.182   3.877  0.00  0.00    -0.001 A 
ATOM      7  C   UNL     1      -2.528  -4.221   3.244  0.00  0.00    +0.017 A 
ATOM      8  C   UNL     1      -2.743  -5.117   2.249  0.00  0.00    +0.011 A 
ATOM      9  C   UNL     1      -1.706  -5.980   1.834  0.00  0.00    +0.251 A 
ATOM     10  O   UNL     1      -1.919  -6.775   0.935  0.00  0.00    -0.268 OA
ATOM     11  N   UNL     1      -0.490  -5.949   2.407  0.00  0.00    -0.322 N 
ATOM     12  H   UNL     1       0.200  -6.557   2.098  0.00  0.00    +0.169 HD
ATOM     13  C   UNL     1      -0.209  -5.065   3.427  0.00  0.00    +0.052 A 
ATOM     14  C   UNL     1       1.049  -5.032   4.020  0.00  0.00    -0.024 A 
ATOM     15  C   UNL     1       2.131  -5.971   3.551  0.00  0.00    +0.046 C 
ENDBRANCH   1   8
BRANCH   1  22
ATOM     16  C   UNL     1      -4.796  -6.984   3.038  0.00  0.00    -0.077 C 
ATOM     17  C   UNL     1      -5.187  -8.463   3.074  0.00  0.00    -0.018 C 
ATOM     18  C   UNL     1      -6.477  -8.665   2.274  0.00  0.00    -0.001 C 
ATOM     19  C   UNL     1      -6.261  -8.173   0.840  0.00  0.00    -0.031 C 
ATOM     20  C   UNL     1      -5.839  -6.702   0.869  0.00  0.00    -0.074 C 
ATOM     21  C   UNL     1      -7.563  -8.316   0.050  0.00  0.00    +0.005 C 
ATOM     22  N   UNL     1      -4.579  -6.579   1.632  0.00  0.00    +0.389 N 
ATOM     23  H   UNL     1      -3.874  -7.196   1.213  0.00  0.00    -0.080 HD
ENDBRANCH   1  22
BRANCH   1  24
ATOM     24  C   UNL     1      -5.050  -4.260   2.282  0.00  0.00    +0.143 A 
ATOM     25  N   UNL     1      -5.511  -4.391   3.502  0.00  0.00    -0.115 NA
ATOM     26  N   UNL     1      -6.306  -3.404   3.735  0.00  0.00    -0.023 NA
ATOM     27  N   UNL     1      -6.360  -2.645   2.697  0.00  0.00    -0.044 NA
ATOM     28  N   UNL     1      -5.596  -3.137   1.781  0.00  0.00    -0.226 N 
BRANCH  28  29
ATOM     29  C   UNL     1      -5.371  -2.581   0.444  0.00  0.00    +0.182 C 
BRANCH  29  30
ATOM     30  C   UNL     1      -4.240  -1.586   0.497  0.00  0.00    -0.026 A 
ATOM     31  C   UNL     1      -2.941  -2.006   0.279  0.00  0.00    +0.009 A 
ATOM     32  C   UNL     1      -1.903  -1.095   0.327  0.00  0.00    +0.046 A 
ATOM     33  C   UNL     1      -2.165   0.240   0.595  0.00  0.00    +0.120 A 
ATOM     34  C   UNL     1      -3.469   0.657   0.820  0.00  0.00    +0.046 A 
ATOM     35  C   UNL     1      -4.504  -0.256   0.764  0.00  0.00    +0.009 A 
BRANCH  33  36
ATOM     36  O   UNL     1      -1.146   1.138   0.643  0.00  0.00    -0.495 OA
ATOM     37  C   UNL     1      -1.490   2.496   0.925  0.00  0.00    +0.277 C 
ENDBRANCH  33  36
ENDBRANCH  29  30
ENDBRANCH  28  29
ENDBRANCH   1  24
TORSDOF 6
