REMARK  Name = ZINC59953652
REMARK  14 active torsions:
REMARK  status: ('A' for Active; 'I' for Inactive)
REMARK    1  A    between atoms: C_1  and  C_2
REMARK    2  A    between atoms: C_2  and  C_26
REMARK    3  A    between atoms: N_3  and  N_4
REMARK    4  A    between atoms: C_5  and  C_7
REMARK    5  A    between atoms: C_7  and  N_8
REMARK    6  A    between atoms: N_8  and  C_9
REMARK    7  A    between atoms: N_8  and  S_15
REMARK    8  A    between atoms: S_15  and  C_18
REMARK    9  A    between atoms: C_21  and  O_24
REMARK   10  A    between atoms: O_24  and  C_25
REMARK   11  A    between atoms: C_29  and  O_34
REMARK   12  A    between atoms: C_30  and  O_32
REMARK   13  A    between atoms: O_32  and  C_33
REMARK   14  A    between atoms: O_34  and  C_35
REMARK                            x       y       z     vdW  Elec       q    Type
REMARK                         _______ _______ _______ _____ _____    ______ ____
ROOT
ATOM      1  C   UNL     1      -0.368  -1.071   4.476  0.00  0.00    +0.228 C 
ENDROOT
BRANCH   1   3
ATOM      2  N   UNL     1      -1.236  -2.913   3.071  0.00  0.00    -0.205 N 
ATOM      3  C   UNL     1      -0.815  -2.497   4.282  0.00  0.00    +0.251 C 
ATOM      4  O   UNL     1      -0.797  -3.271   5.217  0.00  0.00    -0.272 OA
ATOM      5  H   UNL     1      -1.250  -2.295   2.324  0.00  0.00    +0.177 HD
BRANCH   2   8
ATOM      6  C   UNL     1      -2.079  -3.678   0.565  0.00  0.00    +0.068 C 
ATOM      7  C   UNL     1      -2.056  -4.639   1.725  0.00  0.00    +0.063 C 
ATOM      8  N   UNL     1      -1.651  -4.239   2.891  0.00  0.00    -0.185 NA
BRANCH   7   9
ATOM      9  C   UNL     1      -2.494  -6.034   1.536  0.00  0.00    +0.001 A 
ATOM     10  C   UNL     1      -2.925  -6.469   0.280  0.00  0.00    +0.013 A 
ATOM     11  C   UNL     1      -3.333  -7.774   0.104  0.00  0.00    +0.050 A 
ATOM     12  C   UNL     1      -3.318  -8.659   1.173  0.00  0.00    +0.162 A 
ATOM     13  C   UNL     1      -2.889  -8.232   2.429  0.00  0.00    +0.162 A 
ATOM     14  C   UNL     1      -2.474  -6.927   2.611  0.00  0.00    +0.059 A 
BRANCH  13  15
ATOM     15  O   UNL     1      -2.876  -9.102   3.474  0.00  0.00    -0.491 OA
ATOM     16  C   UNL     1      -2.425  -8.598   4.732  0.00  0.00    +0.277 C 
ENDBRANCH  13  15
BRANCH  12  17
ATOM     17  O   UNL     1      -3.722  -9.944   0.995  0.00  0.00    -0.491 OA
ATOM     18  C   UNL     1      -4.149 -10.314  -0.318  0.00  0.00    +0.277 C 
ENDBRANCH  12  17
ENDBRANCH   7   9
ENDBRANCH   2   8
ENDBRANCH   1   3
BRANCH   1  19
ATOM     19  N   UNL     1       0.038  -0.872   5.870  0.00  0.00    -0.194 N 
BRANCH  19  20
ATOM     20  C   UNL     1       1.336  -1.193   6.272  0.00  0.00    +0.052 A 
ATOM     21  C   UNL     1       1.554  -2.256   7.138  0.00  0.00    +0.025 A 
ATOM     22  C   UNL     1       2.839  -2.571   7.533  0.00  0.00    +0.002 A 
ATOM     23  C   UNL     1       3.909  -1.829   7.068  0.00  0.00    +0.000 A 
ATOM     24  C   UNL     1       3.696  -0.769   6.205  0.00  0.00    +0.002 A 
ATOM     25  C   UNL     1       2.414  -0.452   5.801  0.00  0.00    +0.025 A 
ENDBRANCH  19  20
BRANCH  19  26
ATOM     26  S   UNL     1      -1.043  -0.266   6.968  0.00  0.00    +0.075 S 
ATOM     27  O   UNL     1      -0.281   0.198   8.074  0.00  0.00    -0.150 OA
ATOM     28  O   UNL     1      -1.927   0.579   6.244  0.00  0.00    -0.150 OA
BRANCH  26  29
ATOM     29  C   UNL     1      -2.007  -1.620   7.552  0.00  0.00    +0.109 A 
ATOM     30  C   UNL     1      -3.095  -2.059   6.821  0.00  0.00    +0.032 A 
ATOM     31  C   UNL     1      -3.853  -3.120   7.278  0.00  0.00    +0.047 A 
ATOM     32  C   UNL     1      -3.520  -3.746   8.470  0.00  0.00    +0.120 A 
ATOM     33  C   UNL     1      -2.427  -3.304   9.202  0.00  0.00    +0.047 A 
ATOM     34  C   UNL     1      -1.670  -2.246   8.738  0.00  0.00    +0.032 A 
BRANCH  32  35
ATOM     35  O   UNL     1      -4.264  -4.790   8.921  0.00  0.00    -0.495 OA
ATOM     36  C   UNL     1      -3.863  -5.386  10.157  0.00  0.00    +0.277 C 
ENDBRANCH  32  35
ENDBRANCH  26  29
ENDBRANCH  19  26
ENDBRANCH   1  19
TORSDOF 10
