REMARK  Name = ZINC21037932
REMARK  5 active torsions:
REMARK  status: ('A' for Active; 'I' for Inactive)
REMARK    1  A    between atoms: C_4  and  C_7
REMARK    2  A    between atoms: C_10  and  C_12
REMARK    3  A    between atoms: C_12  and  C_14
REMARK    4  A    between atoms: C_12  and  N_21
REMARK    5  A    between atoms: C_22  and  C_24
REMARK                            x       y       z     vdW  Elec       q    Type
REMARK                         _______ _______ _______ _____ _____    ______ ____
ROOT
ATOM      1  C   UNL     1      -3.477   5.017   0.048  0.00  0.00    +0.194 C 
ENDROOT
BRANCH   1   2
ATOM      2  C   UNL     1      -4.039   5.308  -1.319  0.00  0.00    +0.017 A 
ATOM      3  C   UNL     1      -5.383   5.107  -1.571  0.00  0.00    +0.009 A 
ATOM      4  C   UNL     1      -5.899   5.374  -2.825  0.00  0.00    +0.001 A 
ATOM      5  C   UNL     1      -5.072   5.842  -3.829  0.00  0.00    +0.003 A 
ATOM      6  C   UNL     1      -3.728   6.042  -3.580  0.00  0.00    +0.039 A 
ATOM      7  C   UNL     1      -3.211   5.780  -2.323  0.00  0.00    +0.129 A 
ATOM      8  F   UNL     1      -1.898   5.982  -2.076  0.00  0.00    -0.205 F 
ENDBRANCH   1   2
BRANCH   1  12
ATOM      9  C   UNL     1      -1.305   2.116   0.020  0.00  0.00    +0.248 A 
ATOM     10  N   UNL     1      -2.502   1.577   0.023  0.00  0.00    -0.107 NA
ATOM     11  N   UNL     1      -3.388   2.510   0.033  0.00  0.00    -0.110 NA
ATOM     12  C   UNL     1      -2.796   3.672   0.036  0.00  0.00    +0.242 A 
ATOM     13  O   UNL     1      -1.470   3.454   0.033  0.00  0.00    -0.418 OA
BRANCH   9  17
ATOM     14  C   UNL     1       2.396   0.034  -0.020  0.00  0.00    +0.000 A 
ATOM     15  C   UNL     1       1.208  -0.674  -0.013  0.00  0.00    +0.001 A 
ATOM     16  C   UNL     1       0.002  -0.004   0.002  0.00  0.00    +0.013 A 
ATOM     17  C   UNL     1      -0.017   1.391   0.010  0.00  0.00    +0.038 A 
ATOM     18  C   UNL     1       1.186   2.100   0.002  0.00  0.00    +0.013 A 
ATOM     19  C   UNL     1       2.385   1.417  -0.012  0.00  0.00    +0.001 A 
ENDBRANCH   9  17
ENDBRANCH   1  12
BRANCH   1  20
ATOM     20  N   UNL     1      -4.563   5.006   1.031  0.00  0.00    -0.296 N 
ATOM     21  C   UNL     1      -4.979   6.160   1.589  0.00  0.00    +0.246 C 
ATOM     22  O   UNL     1      -4.453   7.210   1.277  0.00  0.00    -0.270 OA
ATOM     23  H   UNL     1      -5.040   4.055   1.313  0.00  0.00    +0.150 HD
BRANCH  21  24
ATOM     24  C   UNL     1      -6.076   6.148   2.580  0.00  0.00    +0.051 A 
ATOM     25  C   UNL     1      -6.686   4.944   2.936  0.00  0.00    +0.014 A 
ATOM     26  C   UNL     1      -7.705   4.940   3.865  0.00  0.00    +0.001 A 
ATOM     27  C   UNL     1      -8.131   6.127   4.437  0.00  0.00    +0.001 A 
ATOM     28  C   UNL     1      -7.535   7.324   4.085  0.00  0.00    +0.016 A 
ATOM     29  C   UNL     1      -6.509   7.343   3.160  0.00  0.00    +0.030 A 
ATOM     30 BR   UNL     1      -5.695   8.980   2.680  0.00  0.00    -0.050 Br
ENDBRANCH  21  24
ENDBRANCH   1  20
TORSDOF 5
