REMARK  Name = ZINC65292418
REMARK  11 active torsions:
REMARK  status: ('A' for Active; 'I' for Inactive)
REMARK    1  A    between atoms: C_1  and  C_2
REMARK    2  A    between atoms: C_2  and  C_3
REMARK    3  A    between atoms: C_2  and  C_4
REMARK    4  A    between atoms: C_4  and  N_5
REMARK    5  A    between atoms: C_17  and  C_19
REMARK    6  A    between atoms: N_21  and  C_22
REMARK    7  A    between atoms: C_22  and  C_23
REMARK    8  A    between atoms: C_23  and  C_24
REMARK    9  A    between atoms: N_27  and  C_30
REMARK   10  A    between atoms: C_30  and  C_31
REMARK   11  A    between atoms: C_30  and  C_32
REMARK                            x       y       z     vdW  Elec       q    Type
REMARK                         _______ _______ _______ _____ _____    ______ ____
ROOT
ATOM      1  N   UNL     1       2.125  -0.091  -1.209  0.00  0.00    -0.305 N 
ATOM      2  C   UNL     1       2.511   1.136  -1.745  0.00  0.00    +0.070 A 
ATOM      3  C   UNL     1       1.556   1.966  -2.322  0.00  0.00    +0.028 A 
ATOM      4  C   UNL     1       1.929   3.182  -2.855  0.00  0.00    +0.002 A 
ATOM      5  C   UNL     1       3.254   3.583  -2.819  0.00  0.00    +0.002 A 
ATOM      6  C   UNL     1       4.211   2.768  -2.249  0.00  0.00    +0.030 A 
ATOM      7  C   UNL     1       3.845   1.540  -1.708  0.00  0.00    +0.090 A 
ATOM      8  N   UNL     1       4.819   0.720  -1.133  0.00  0.00    -0.225 N 
ATOM      9  C   UNL     1       4.447  -0.489  -0.604  0.00  0.00    +0.133 A 
ATOM     10  C   UNL     1       3.040  -0.903  -0.642  0.00  0.00    +0.277 A 
ATOM     11  O   UNL     1       2.703  -1.973  -0.170  0.00  0.00    -0.265 OA
ATOM     12  C   UNL     1       5.589  -1.082  -0.110  0.00  0.00    +0.068 A 
ATOM     13  C   UNL     1       6.625  -0.166  -0.377  0.00  0.00    +0.148 A 
ATOM     14  N   UNL     1       6.088   0.877  -0.985  0.00  0.00    -0.161 NA
ENDROOT
BRANCH  13  15
ATOM     15  C   UNL     1       8.052  -0.340  -0.039  0.00  0.00    +0.264 C 
ATOM     16  O   UNL     1       8.425  -1.351   0.524  0.00  0.00    -0.268 OA
ATOM     17  N   UNL     1       8.942   0.622  -0.355  0.00  0.00    -0.310 N 
ATOM     18  H   UNL     1       8.645   1.429  -0.804  0.00  0.00    +0.149 HD
BRANCH  17  19
ATOM     19  C   UNL     1      10.357   0.450  -0.020  0.00  0.00    +0.105 C 
BRANCH  19  20
ATOM     20  C   UNL     1      11.145   1.677  -0.484  0.00  0.00    +0.022 C 
BRANCH  20  21
ATOM     21  C   UNL     1      12.623   1.496  -0.134  0.00  0.00    -0.013 C 
ATOM     22  C   UNL     1      12.790   1.472   1.388  0.00  0.00    -0.015 C 
ATOM     23  C   UNL     1      14.277   1.371   1.732  0.00  0.00    -0.078 C 
ATOM     24  N   UNL     1      14.990   2.529   1.179  0.00  0.00    +0.381 N 
ATOM     25  C   UNL     1      14.895   2.519  -0.286  0.00  0.00    -0.078 C 
ATOM     26  C   UNL     1      13.431   2.664  -0.707  0.00  0.00    -0.015 C 
ATOM     27  H   UNL     1      14.578   3.378   1.536  0.00  0.00    -0.081 HD
BRANCH  24  28
ATOM     28  C   UNL     1      16.403   2.469   1.577  0.00  0.00    -0.075 C 
ATOM     29  C   UNL     1      17.147   3.675   1.001  0.00  0.00    -0.014 C 
ATOM     30  C   UNL     1      16.504   2.488   3.103  0.00  0.00    -0.014 C 
ENDBRANCH  24  28
ENDBRANCH  20  21
ENDBRANCH  19  20
ENDBRANCH  17  19
ENDBRANCH  13  15
BRANCH   1  31
ATOM     31  C   UNL     1       0.718  -0.497  -1.257  0.00  0.00    +0.128 C 
BRANCH  31  33
ATOM     32  C   UNL     1      -0.019   1.526   0.010  0.00  0.00    +0.009 C 
ATOM     33  C   UNL     1       0.002  -0.004   0.002  0.00  0.00    +0.003 C 
ATOM     34  C   UNL     1      -1.433  -0.534   0.013  0.00  0.00    +0.009 C 
ENDBRANCH  31  33
ENDBRANCH   1  31
TORSDOF 7
