REMARK  Name = ZINC21233354
REMARK  11 active torsions:
REMARK  status: ('A' for Active; 'I' for Inactive)
REMARK    1  A    between atoms: C_1  and  O_2
REMARK    2  A    between atoms: O_2  and  C_3
REMARK    3  A    between atoms: C_6  and  C_10
REMARK    4  A    between atoms: C_8  and  O_9
REMARK    5  A    between atoms: C_15  and  C_20
REMARK    6  A    between atoms: C_22  and  O_30
REMARK    7  A    between atoms: C_23  and  O_28
REMARK    8  A    between atoms: C_24  and  O_26
REMARK    9  A    between atoms: O_26  and  C_27
REMARK   10  A    between atoms: O_28  and  C_29
REMARK   11  A    between atoms: O_30  and  C_31
REMARK                            x       y       z     vdW  Elec       q    Type
REMARK                         _______ _______ _______ _____ _____    ______ ____
ROOT
ATOM      1  C   UNL     1      -1.118   7.126   1.854  0.00  0.00    +0.136 C 
ATOM      2  C   UNL     1      -2.259   7.624   0.998  0.00  0.00    +0.036 C 
ATOM      3  C   UNL     1      -2.145   8.366  -0.115  0.00  0.00    +0.017 C 
ATOM      4  C   UNL     1      -3.382   8.764  -0.903  0.00  0.00    +0.059 C 
ATOM      5  C   UNL     1      -4.560   8.969   0.047  0.00  0.00    +0.032 C 
ATOM      6  C   UNL     1      -4.803   7.644   0.780  0.00  0.00    +0.088 C 
ATOM      7  C   UNL     1      -3.536   7.240   1.471  0.00  0.00    +0.163 C 
ATOM      8  O   UNL     1      -3.608   6.557   2.474  0.00  0.00    -0.292 OA
ATOM      9  N   UNL     1      -0.973   8.807  -0.638  0.00  0.00    -0.316 N 
ATOM     10  C   UNL     1       0.158   8.019  -0.823  0.00  0.00    +0.052 A 
ATOM     11  C   UNL     1       0.697   7.785  -2.076  0.00  0.00    +0.025 A 
ATOM     12  C   UNL     1       1.885   7.082  -2.183  0.00  0.00    +0.002 A 
ATOM     13  C   UNL     1       2.525   6.617  -1.048  0.00  0.00    +0.002 A 
ATOM     14  C   UNL     1       1.975   6.833   0.204  0.00  0.00    +0.025 A 
ATOM     15  C   UNL     1       0.778   7.522   0.313  0.00  0.00    +0.049 A 
ATOM     16  N   UNL     1       0.164   7.725   1.548  0.00  0.00    -0.331 N 
ATOM     17  H   UNL     1      -0.871   9.856  -0.952  0.00  0.00    +0.152 HD
ATOM     18  H   UNL     1       0.671   8.353   2.296  0.00  0.00    +0.147 HD
ENDROOT
BRANCH   1  22
ATOM     19  C   UNL     1      -0.794   2.891   1.357  0.00  0.00    +0.161 A 
ATOM     20  C   UNL     1      -1.155   3.422   2.585  0.00  0.00    +0.050 A 
ATOM     21  C   UNL     1      -1.259   4.791   2.742  0.00  0.00    +0.009 A 
ATOM     22  C   UNL     1      -1.003   5.634   1.677  0.00  0.00    -0.019 A 
ATOM     23  C   UNL     1      -0.641   5.111   0.449  0.00  0.00    +0.055 A 
ATOM     24  C   UNL     1      -0.530   3.740   0.286  0.00  0.00    +0.159 A 
BRANCH  19  26
ATOM     25  C   UNL     1      -0.971   0.735   2.344  0.00  0.00    +0.277 C 
ATOM     26  O   UNL     1      -0.691   1.544   1.200  0.00  0.00    -0.491 OA
ENDBRANCH  19  26
BRANCH  24  27
ATOM     27  O   UNL     1      -0.170   3.224  -0.920  0.00  0.00    -0.503 OA
ATOM     28  H   UNL     1       0.038   3.896  -1.766  0.00  0.00    +0.292 HD
ENDBRANCH  24  27
ENDBRANCH   1  22
BRANCH   5  29
ATOM     29  C   UNL     1      -5.788   9.351  -0.738  0.00  0.00    -0.036 A 
ATOM     30  C   UNL     1      -6.261   8.512  -1.730  0.00  0.00    +0.053 A 
ATOM     31  C   UNL     1      -7.395   8.857  -2.450  0.00  0.00    +0.165 A 
ATOM     32  C   UNL     1      -8.048  10.054  -2.183  0.00  0.00    +0.204 A 
ATOM     33  C   UNL     1      -7.566  10.898  -1.188  0.00  0.00    +0.165 A 
ATOM     34  C   UNL     1      -6.436  10.542  -0.468  0.00  0.00    +0.053 A 
BRANCH  33  35
ATOM     35  O   UNL     1      -8.202  12.070  -0.922  0.00  0.00    -0.491 OA
ATOM     36  C   UNL     1      -7.651  12.886   0.113  0.00  0.00    +0.277 C 
ENDBRANCH  33  35
BRANCH  32  37
ATOM     37  O   UNL     1      -9.158  10.400  -2.891  0.00  0.00    -0.488 OA
ATOM     38  C   UNL     1      -8.954  11.156  -4.086  0.00  0.00    +0.277 C 
ENDBRANCH  32  37
BRANCH  31  39
ATOM     39  O   UNL     1      -7.862   8.029  -3.422  0.00  0.00    -0.491 OA
ATOM     40  C   UNL     1      -7.141   6.816  -3.643  0.00  0.00    +0.277 C 
ENDBRANCH  31  39
ENDBRANCH   5  29
TORSDOF 7
