REMARK  Name = ZINC22275816
REMARK  10 active torsions:
REMARK  status: ('A' for Active; 'I' for Inactive)
REMARK    1  A    between atoms: C_1  and  C_2
REMARK    2  A    between atoms: C_5  and  S_8
REMARK    3  A    between atoms: S_8  and  N_11
REMARK    4  A    between atoms: N_11  and  C_12
REMARK    5  A    between atoms: N_11  and  C_23
REMARK    6  A    between atoms: C_12  and  C_13
REMARK    7  A    between atoms: N_15  and  C_16
REMARK    8  A    between atoms: C_26  and  C_29
REMARK    9  A    between atoms: C_29  and  C_30
REMARK   10  A    between atoms: C_29  and  C_31
REMARK                            x       y       z     vdW  Elec       q    Type
REMARK                         _______ _______ _______ _____ _____    ______ ____
ROOT
ATOM      1  N   UNL     1       1.750  -2.270  -0.600  0.00  0.00    -0.194 N 
ENDROOT
BRANCH   1   2
ATOM      2  C   UNL     1       1.582  -0.899  -0.391  0.00  0.00    +0.052 A 
ATOM      3  C   UNL     1       0.320  -0.386  -0.121  0.00  0.00    +0.025 A 
ATOM      4  C   UNL     1       0.158   0.970   0.085  0.00  0.00    +0.006 A 
ATOM      5  C   UNL     1       1.250   1.816   0.022  0.00  0.00    -0.045 A 
ATOM      6  C   UNL     1       2.507   1.308  -0.247  0.00  0.00    +0.006 A 
ATOM      7  C   UNL     1       2.677  -0.047  -0.454  0.00  0.00    +0.025 A 
BRANCH   5   8
ATOM      8  C   UNL     1       1.068   3.295   0.247  0.00  0.00    +0.013 C 
ATOM      9  C   UNL     1       1.910   3.736   1.446  0.00  0.00    +0.012 C 
ATOM     10  C   UNL     1       1.518   4.059  -1.000  0.00  0.00    +0.012 C 
ENDBRANCH   5   8
ENDBRANCH   1   2
BRANCH   1  11
ATOM     11  S   UNL     1       3.008  -2.818  -1.527  0.00  0.00    +0.075 S 
ATOM     12  O   UNL     1       2.605  -4.073  -2.058  0.00  0.00    -0.150 OA
ATOM     13  O   UNL     1       3.407  -1.734  -2.353  0.00  0.00    -0.150 OA
BRANCH  11  18
ATOM     14  C   UNL     1       7.619  -3.931   2.204  0.00  0.00    +0.044 C 
ATOM     15  C   UNL     1       6.467  -3.653   1.272  0.00  0.00    -0.050 A 
ATOM     16  C   UNL     1       5.476  -4.600   1.096  0.00  0.00    +0.005 A 
ATOM     17  C   UNL     1       4.420  -4.346   0.242  0.00  0.00    +0.029 A 
ATOM     18  C   UNL     1       4.354  -3.143  -0.437  0.00  0.00    +0.109 A 
ATOM     19  C   UNL     1       5.348  -2.198  -0.265  0.00  0.00    +0.029 A 
ATOM     20  C   UNL     1       6.402  -2.451   0.593  0.00  0.00    +0.005 A 
ENDBRANCH  11  18
ENDBRANCH   1  11
BRANCH   1  21
ATOM     21  C   UNL     1       0.813  -3.223   0.000  0.00  0.00    +0.227 C 
BRANCH  21  22
ATOM     22  C   UNL     1      -0.388  -3.380  -0.897  0.00  0.00    +0.236 C 
ATOM     23  O   UNL     1      -0.454  -2.757  -1.936  0.00  0.00    -0.274 OA
ATOM     24  N   UNL     1      -1.388  -4.212  -0.546  0.00  0.00    -0.283 N 
ATOM     25  H   UNL     1      -1.294  -4.834   0.356  0.00  0.00    +0.155 HD
BRANCH  24  26
ATOM     26  C   UNL     1      -2.546  -4.284  -1.328  0.00  0.00    +0.047 A 
ATOM     27  C   UNL     1      -2.482  -4.025  -2.691  0.00  0.00    +0.024 A 
ATOM     28  C   UNL     1      -3.626  -4.101  -3.461  0.00  0.00    +0.002 A 
ATOM     29  C   UNL     1      -4.836  -4.426  -2.875  0.00  0.00    +0.001 A 
ATOM     30  C   UNL     1      -4.905  -4.680  -1.518  0.00  0.00    +0.017 A 
ATOM     31  C   UNL     1      -3.763  -4.610  -0.742  0.00  0.00    +0.039 A 
ATOM     32 BR   UNL     1      -3.857  -4.956   1.114  0.00  0.00    -0.048 Br
ENDBRANCH  24  26
ENDBRANCH  21  22
ENDBRANCH   1  21
TORSDOF 7
