REMARK  Name = ZINC26542779
REMARK  2 active torsions:
REMARK  status: ('A' for Active; 'I' for Inactive)
REMARK    1  A    between atoms: C_4  and  C_7
REMARK    2  A    between atoms: C_12  and  O_19
REMARK                            x       y       z     vdW  Elec       q    Type
REMARK                         _______ _______ _______ _____ _____    ______ ____
ROOT
ATOM      1  C   UNL     1       3.659   2.162  -0.021  0.00  0.00    +0.113 A 
ATOM      2  C   UNL     1       4.587   2.089   1.114  0.00  0.00    +0.285 A 
ATOM      3  O   UNL     1       4.322   1.399   2.088  0.00  0.00    -0.265 OA
ATOM      4  N   UNL     1       5.725   2.782   1.063  0.00  0.00    -0.187 NA
ATOM      5  C   UNL     1       6.029   3.541   0.015  0.00  0.00    +0.186 A 
ATOM      6  C   UNL     1       7.249   4.257   0.021  0.00  0.00    +0.160 A 
ATOM      7  C   UNL     1       7.574   5.041  -1.048  0.00  0.00    +0.050 A 
ATOM      8  C   UNL     1       6.693   5.123  -2.136  0.00  0.00    +0.022 A 
ATOM      9  C   UNL     1       5.533   4.432  -2.125  0.00  0.00    +0.096 A 
ATOM     10  N   UNL     1       5.194   3.644  -1.062  0.00  0.00    -0.265 N 
ATOM     11  C   UNL     1       4.005   2.961  -1.093  0.00  0.00    +0.270 A 
ATOM     12  O   UNL     1       3.183   3.067  -2.161  0.00  0.00    -0.266 OA
ENDROOT
BRANCH   1  16
ATOM     13  C   UNL     1       0.002  -0.004   0.002  0.00  0.00    +0.000 A 
ATOM     14  C   UNL     1      -0.017   1.379   0.010  0.00  0.00    +0.001 A 
ATOM     15  C   UNL     1       1.167   2.088   0.002  0.00  0.00    +0.009 A 
ATOM     16  C   UNL     1       2.384   1.407  -0.013  0.00  0.00    -0.007 A 
ATOM     17  C   UNL     1       2.397   0.013  -0.020  0.00  0.00    +0.009 A 
ATOM     18  C   UNL     1       1.206  -0.685  -0.013  0.00  0.00    +0.001 A 
ENDBRANCH   1  16
BRANCH   6  19
ATOM     19  O   UNL     1       8.091   4.166   1.085  0.00  0.00    -0.503 OA
ATOM     20  H   UNL     1       9.038   4.725   1.085  0.00  0.00    +0.292 HD
ENDBRANCH   6  19
TORSDOF 2
