REMARK  Name = ZINC39303675
REMARK  10 active torsions:
REMARK  status: ('A' for Active; 'I' for Inactive)
REMARK    1  A    between atoms: C_1  and  C_2
REMARK    2  A    between atoms: C_2  and  C_3
REMARK    3  A    between atoms: C_2  and  C_4
REMARK    4  A    between atoms: C_7  and  O_38
REMARK    5  A    between atoms: C_8  and  C_10
REMARK    6  A    between atoms: C_10  and  N_11
REMARK    7  A    between atoms: C_16  and  C_18
REMARK    8  A    between atoms: N_23  and  C_26
REMARK    9  A    between atoms: C_29  and  N_35
REMARK   10  A    between atoms: O_38  and  C_39
REMARK                            x       y       z     vdW  Elec       q    Type
REMARK                         _______ _______ _______ _____ _____    ______ ____
ROOT
ATOM      1  C   UNL     1      -5.776  -4.292  -2.955  0.00  0.00    +0.202 C 
ATOM      2  O   UNL     1      -6.245  -3.484  -2.183  0.00  0.00    -0.277 OA
ATOM      3  N   UNL     1      -6.476  -4.669  -4.044  0.00  0.00    -0.300 N 
ATOM      4  C   UNL     1      -5.975  -5.734  -4.924  0.00  0.00    +0.126 C 
ATOM      5  C   UNL     1      -7.054  -6.817  -5.047  0.00  0.00    +0.124 C 
ATOM      6  N   UNL     1      -8.333  -6.171  -5.374  0.00  0.00    -0.325 N 
ATOM      7  C   UNL     1      -8.834  -5.106  -4.494  0.00  0.00    +0.124 C 
ATOM      8  C   UNL     1      -7.758  -4.027  -4.367  0.00  0.00    +0.126 C 
ENDROOT
BRANCH   6   9
ATOM      9  C   UNL     1      -9.056  -6.559  -6.497  0.00  0.00    +0.061 A 
ATOM     10  C   UNL     1      -9.988  -7.549  -6.413  0.00  0.00    +0.028 A 
ATOM     11  C   UNL     1     -10.726  -7.958  -7.525  0.00  0.00    +0.037 A 
ATOM     12  C   UNL     1     -10.567  -7.405  -8.749  0.00  0.00    +0.157 A 
ATOM     13  C   UNL     1      -9.624  -6.367  -8.949  0.00  0.00    +0.166 A 
ATOM     14  C   UNL     1      -8.831  -5.906  -7.793  0.00  0.00    +0.157 A 
ATOM     15  N   UNL     1      -8.036  -4.947  -8.197  0.00  0.00    -0.047 NA
ATOM     16  O   UNL     1      -8.268  -4.741  -9.580  0.00  0.00    -0.241 OA
ATOM     17  N   UNL     1      -9.263  -5.660  -9.996  0.00  0.00    -0.047 NA
BRANCH  12  18
ATOM     18  N   UNL     1     -11.383  -7.888  -9.887  0.00  0.00    +0.059 N 
ATOM     19  O   UNL     1     -12.189  -8.774  -9.720  0.00  0.00    -0.126 OA
ATOM     20  O   UNL     1     -11.244  -7.396 -10.983  0.00  0.00    -0.126 OA
ENDBRANCH  12  18
ENDBRANCH   6   9
BRANCH   1  26
ATOM     21  N   UNL     1      -3.601  -3.912  -1.945  0.00  0.00    +0.390 N 
ATOM     22  C   UNL     1      -2.244  -4.440  -1.756  0.00  0.00    -0.077 C 
ATOM     23  C   UNL     1      -2.303  -5.716  -0.914  0.00  0.00    -0.019 C 
ATOM     24  C   UNL     1      -3.163  -6.758  -1.635  0.00  0.00    -0.003 C 
ATOM     25  C   UNL     1      -4.552  -6.169  -1.893  0.00  0.00    -0.006 C 
ATOM     26  C   UNL     1      -4.411  -4.876  -2.699  0.00  0.00    +0.020 C 
ATOM     27  H   UNL     1      -4.025  -3.749  -1.044  0.00  0.00    -0.080 HD
BRANCH  21  28
ATOM     28  C   UNL     1      -3.533  -2.646  -2.687  0.00  0.00    -0.038 C 
BRANCH  28  33
ATOM     29  C   UNL     1      -0.862  -0.309  -1.396  0.00  0.00    -0.044 A 
ATOM     30  C   UNL     1      -1.504   0.284  -0.325  0.00  0.00    +0.007 A 
ATOM     31  C   UNL     1      -2.803  -0.069  -0.015  0.00  0.00    +0.046 A 
ATOM     32  C   UNL     1      -3.464  -1.020  -0.779  0.00  0.00    +0.121 A 
ATOM     33  C   UNL     1      -2.818  -1.613  -1.854  0.00  0.00    -0.022 A 
ATOM     34  C   UNL     1      -1.520  -1.252  -2.163  0.00  0.00    +0.009 A 
BRANCH  29  36
ATOM     35  C   UNL     1       0.616   1.575  -2.040  0.00  0.00    +0.012 C 
ATOM     36  C   UNL     1       0.555   0.077  -1.732  0.00  0.00    +0.013 C 
ATOM     37  C   UNL     1       1.465  -0.236  -0.543  0.00  0.00    +0.012 C 
ENDBRANCH  29  36
BRANCH  32  38
ATOM     38  O   UNL     1      -4.742  -1.369  -0.476  0.00  0.00    -0.495 OA
ATOM     39  C   UNL     1      -5.343  -0.718   0.644  0.00  0.00    +0.277 C 
ENDBRANCH  32  38
ENDBRANCH  28  33
ENDBRANCH  21  28
ENDBRANCH   1  26
TORSDOF 7
