REMARK  Name = ZINC40840436
REMARK  7 active torsions:
REMARK  status: ('A' for Active; 'I' for Inactive)
REMARK    1  A    between atoms: C_1  and  C_2
REMARK    2  A    between atoms: C_5  and  C_35
REMARK    3  A    between atoms: N_13  and  C_21
REMARK    4  A    between atoms: C_21  and  C_22
REMARK    5  A    between atoms: C_22  and  C_23
REMARK    6  A    between atoms: N_25  and  C_26
REMARK    7  A    between atoms: C_26  and  C_27
REMARK                            x       y       z     vdW  Elec       q    Type
REMARK                         _______ _______ _______ _____ _____    ______ ____
ROOT
ATOM      1  C   UNL     1       3.563  -2.656   0.752  0.00  0.00    +0.009 C 
ATOM      2  C   UNL     1       2.823  -1.903  -0.355  0.00  0.00    +0.004 C 
ATOM      3  C   UNL     1       1.358  -2.344  -0.381  0.00  0.00    +0.009 C 
ATOM      4  C   UNL     1       0.716  -2.067   0.980  0.00  0.00    +0.004 C 
ATOM      5  C   UNL     1       0.762  -0.563   1.266  0.00  0.00    +0.110 C 
ATOM      6  N   UNL     1       2.153  -0.103   1.150  0.00  0.00    -0.310 N 
ATOM      7  C   UNL     1       2.895  -0.397  -0.085  0.00  0.00    +0.110 C 
ATOM      8  C   UNL     1       2.753   0.594   2.183  0.00  0.00    +0.188 A 
ATOM      9  C   UNL     1       1.952   1.025   3.345  0.00  0.00    +0.292 A 
ATOM     10  O   UNL     1       0.763   0.771   3.402  0.00  0.00    -0.264 OA
ATOM     11  N   UNL     1       2.556   1.705   4.344  0.00  0.00    -0.303 N 
ATOM     12  C   UNL     1       3.908   1.978   4.249  0.00  0.00    +0.070 A 
ATOM     13  C   UNL     1       4.554   2.676   5.265  0.00  0.00    +0.028 A 
ATOM     14  C   UNL     1       5.902   2.943   5.163  0.00  0.00    +0.002 A 
ATOM     15  C   UNL     1       6.622   2.522   4.053  0.00  0.00    +0.002 A 
ATOM     16  C   UNL     1       6.008   1.836   3.046  0.00  0.00    +0.030 A 
ATOM     17  C   UNL     1       4.637   1.550   3.126  0.00  0.00    +0.090 A 
ATOM     18  N   UNL     1       4.032   0.867   2.132  0.00  0.00    -0.225 NA
ATOM     19  C   UNL     1      -0.740  -2.539   0.963  0.00  0.00    +0.009 C 
ENDROOT
BRANCH  11  20
ATOM     20  C   UNL     1       1.789   2.147   5.511  0.00  0.00    +0.135 C 
BRANCH  20  21
ATOM     21  C   UNL     1       1.819   1.056   6.584  0.00  0.00    +0.117 C 
BRANCH  21  22
ATOM     22  C   UNL     1       1.030   1.511   7.785  0.00  0.00    +0.215 C 
ATOM     23  O   UNL     1       0.496   2.600   7.782  0.00  0.00    -0.276 OA
ATOM     24  N   UNL     1       0.918   0.708   8.861  0.00  0.00    -0.311 N 
ATOM     25  H   UNL     1       1.345  -0.163   8.863  0.00  0.00    +0.149 HD
BRANCH  24  26
ATOM     26  C   UNL     1       0.151   1.150  10.028  0.00  0.00    +0.139 C 
BRANCH  26  27
ATOM     27  C   UNL     1       0.180   0.076  11.085  0.00  0.00    -0.025 A 
ATOM     28  C   UNL     1      -0.792  -0.905  11.100  0.00  0.00    +0.043 A 
ATOM     29  C   UNL     1      -0.766  -1.892  12.071  0.00  0.00    +0.126 A 
ATOM     30  C   UNL     1       0.235  -1.896  13.027  0.00  0.00    +0.076 A 
ATOM     31  C   UNL     1       1.209  -0.912  13.011  0.00  0.00    +0.126 A 
ATOM     32  C   UNL     1       1.184   0.071  12.036  0.00  0.00    +0.043 A 
ATOM     33  F   UNL     1       2.187  -0.914  13.943  0.00  0.00    -0.205 F 
ATOM     34  F   UNL     1      -1.718  -2.851  12.086  0.00  0.00    -0.205 F 
ENDBRANCH  26  27
ENDBRANCH  24  26
ENDBRANCH  21  22
ENDBRANCH  20  21
ENDBRANCH  11  20
TORSDOF 5
