REMARK  Name = ZINC34830164
REMARK  8 active torsions:
REMARK  status: ('A' for Active; 'I' for Inactive)
REMARK    1  A    between atoms: C_1  and  C_2
REMARK    2  A    between atoms: C_5  and  C_8
REMARK    3  A    between atoms: N_17  and  C_18
REMARK    4  A    between atoms: C_18  and  C_19
REMARK    5  A    between atoms: C_19  and  C_20
REMARK    6  A    between atoms: C_26  and  C_29
REMARK    7  A    between atoms: C_30  and  C_32
REMARK    8  A    between atoms: C_37  and  C_38
REMARK                            x       y       z     vdW  Elec       q    Type
REMARK                         _______ _______ _______ _____ _____    ______ ____
ROOT
ATOM      1  C   UNL     1       3.240  -4.657   1.902  0.00  0.00    +0.077 C 
ENDROOT
BRANCH   1   2
ATOM      2  C   UNL     1       4.651  -4.225   1.598  0.00  0.00    +0.214 C 
ATOM      3  O   UNL     1       4.898  -3.642   0.564  0.00  0.00    -0.276 OA
ATOM      4  N   UNL     1       5.640  -4.486   2.477  0.00  0.00    -0.298 N 
ATOM      5  C   UNL     1       5.357  -5.197   3.732  0.00  0.00    +0.127 C 
ATOM      6  C   UNL     1       5.856  -4.341   4.902  0.00  0.00    +0.127 C 
ATOM      7  N   UNL     1       7.236  -3.922   4.622  0.00  0.00    -0.292 N 
ATOM      8  C   UNL     1       7.519  -3.211   3.367  0.00  0.00    +0.091 C 
ATOM      9  C   UNL     1       7.021  -4.072   2.193  0.00  0.00    +0.130 C 
ATOM     10  C   UNL     1       6.798  -1.862   3.367  0.00  0.00    +0.029 C 
ATOM     11  C   UNL     1       8.225  -4.183   5.500  0.00  0.00    +0.247 C 
ATOM     12  O   UNL     1       9.377  -3.924   5.213  0.00  0.00    -0.270 OA
BRANCH  11  13
ATOM     13  C   UNL     1       7.907  -4.785   6.813  0.00  0.00    +0.040 A 
ATOM     14  C   UNL     1       6.966  -4.183   7.651  0.00  0.00    +0.013 A 
ATOM     15  C   UNL     1       6.675  -4.750   8.874  0.00  0.00    +0.001 A 
ATOM     16  C   UNL     1       7.312  -5.912   9.271  0.00  0.00    +0.000 A 
ATOM     17  C   UNL     1       8.245  -6.513   8.446  0.00  0.00    +0.004 A 
ATOM     18  C   UNL     1       8.543  -5.960   7.217  0.00  0.00    -0.038 A 
ATOM     19  C   UNL     1       9.555  -6.619   6.317  0.00  0.00    +0.044 C 
ENDBRANCH  11  13
ENDBRANCH   1   2
BRANCH   1  20
ATOM     20  C   UNL     1       2.321  -4.241   0.752  0.00  0.00    -0.068 C 
BRANCH  20  29
ATOM     21  C   UNL     1       0.049  -4.157   0.000  0.00  0.00    -0.006 C 
ATOM     22  C   UNL     1      -1.359  -4.684   0.259  0.00  0.00    -0.047 A 
ATOM     23  C   UNL     1      -2.513  -4.119  -0.279  0.00  0.00    +0.010 A 
ATOM     24  C   UNL     1      -3.724  -4.653   0.007  0.00  0.00    +0.045 A 
ATOM     25  S   UNL     1      -3.283  -6.015   1.077  0.00  0.00    -0.101 S 
ATOM     26  C   UNL     1      -1.530  -5.772   1.061  0.00  0.00    -0.010 A 
ATOM     27  C   UNL     1      -0.453  -6.549   1.744  0.00  0.00    +0.024 C 
ATOM     28  C   UNL     1       0.889  -6.129   1.119  0.00  0.00    -0.072 C 
ATOM     29  N   UNL     1       0.945  -4.662   1.048  0.00  0.00    +0.388 N 
ATOM     30  H   UNL     1       0.665  -4.277   1.938  0.00  0.00    -0.080 HD
BRANCH  21  35
ATOM     31  C   UNL     1       0.003   1.621   0.108  0.00  0.00    +0.044 C 
ATOM     32  C   UNL     1       0.015   0.114   0.080  0.00  0.00    -0.050 A 
ATOM     33  C   UNL     1       0.012  -0.555  -1.130  0.00  0.00    +0.003 A 
ATOM     34  C   UNL     1       0.023  -1.937  -1.156  0.00  0.00    +0.002 A 
ATOM     35  C   UNL     1       0.038  -2.650   0.028  0.00  0.00    -0.057 A 
ATOM     36  C   UNL     1       0.042  -1.981   1.238  0.00  0.00    +0.002 A 
ATOM     37  C   UNL     1       0.035  -0.599   1.264  0.00  0.00    +0.003 A 
ENDBRANCH  21  35
ENDBRANCH  20  29
ENDBRANCH   1  20
TORSDOF 5
