REMARK  Name = ZINC63598257
REMARK  10 active torsions:
REMARK  status: ('A' for Active; 'I' for Inactive)
REMARK    1  A    between atoms: C_1  and  C_2
REMARK    2  A    between atoms: C_2  and  C_3
REMARK    3  A    between atoms: C_2  and  C_4
REMARK    4  A    between atoms: C_2  and  C_5
REMARK    5  A    between atoms: C_13  and  C_17
REMARK    6  A    between atoms: C_17  and  C_18
REMARK    7  A    between atoms: C_18  and  C_19
REMARK    8  A    between atoms: N_21  and  C_22
REMARK    9  A    between atoms: C_22  and  C_23
REMARK   10  A    between atoms: C_23  and  C_24
REMARK                            x       y       z     vdW  Elec       q    Type
REMARK                         _______ _______ _______ _____ _____    ______ ____
ROOT
ATOM      1  C   UNL     1       0.607  -0.496  -1.315  0.00  0.00    -0.004 C 
ATOM      2  C   UNL     1      -0.192   0.089  -2.473  0.00  0.00    +0.008 C 
ATOM      3  C   UNL     1       0.207  -0.603  -3.783  0.00  0.00    +0.033 C 
ATOM      4  C   UNL     1       1.703  -0.889  -3.679  0.00  0.00    -0.042 C 
ATOM      5  C   UNL     1       2.325  -1.891  -4.303  0.00  0.00    +0.071 C 
ATOM      6  C   UNL     1       3.777  -2.087  -4.054  0.00  0.00    +0.111 C 
ATOM      7  N   UNL     1       4.462  -3.055  -4.614  0.00  0.00    -0.227 NA
ATOM      8  C   UNL     1       3.810  -3.881  -5.433  0.00  0.00    +0.124 C 
ATOM      9  N   UNL     1       2.538  -3.808  -5.728  0.00  0.00    -0.161 NA
ATOM     10  C   UNL     1       1.694  -2.881  -5.240  0.00  0.00    +0.271 C 
ATOM     11  O   UNL     1       0.511  -2.846  -5.535  0.00  0.00    -0.268 OA
ATOM     12  S   UNL     1       4.218  -0.795  -2.936  0.00  0.00    -0.097 S 
ATOM     13  C   UNL     1       2.572   0.010  -2.801  0.00  0.00    +0.080 C 
ATOM     14  C   UNL     1       2.074  -0.095  -1.363  0.00  0.00    +0.023 C 
ENDROOT
BRANCH   1  16
ATOM     15  C   UNL     1      -0.008   1.526   0.019  0.00  0.00    +0.011 C 
ATOM     16  C   UNL     1       0.002  -0.004   0.002  0.00  0.00    -0.035 C 
ATOM     17  C   UNL     1       0.841  -0.521   1.173  0.00  0.00    +0.011 C 
ATOM     18  C   UNL     1      -1.431  -0.525   0.132  0.00  0.00    +0.011 C 
ENDBRANCH   1  16
BRANCH   8  19
ATOM     19  C   UNL     1       4.605  -4.989  -6.074  0.00  0.00    +0.083 C 
BRANCH  19  20
ATOM     20  C   UNL     1       3.688  -5.822  -6.972  0.00  0.00    +0.103 C 
BRANCH  20  21
ATOM     21  C   UNL     1       4.483  -6.930  -7.612  0.00  0.00    +0.213 C 
ATOM     22  O   UNL     1       5.667  -7.042  -7.374  0.00  0.00    -0.276 OA
ATOM     23  N   UNL     1       3.879  -7.796  -8.450  0.00  0.00    -0.315 N 
ATOM     24  H   UNL     1       2.932  -7.705  -8.640  0.00  0.00    +0.149 HD
BRANCH  23  25
ATOM     25  C   UNL     1       4.652  -8.873  -9.073  0.00  0.00    +0.108 C 
BRANCH  25  26
ATOM     26  C   UNL     1       3.735  -9.706  -9.970  0.00  0.00    +0.052 C 
BRANCH  26  27
ATOM     27  C   UNL     1       4.530 -10.814 -10.611  0.00  0.00    -0.040 C 
ATOM     28  C   UNL     1       4.649 -12.088 -10.173  0.00  0.00    -0.001 A 
ATOM     29  C   UNL     1       4.095 -12.796  -9.012  0.00  0.00    +0.010 A 
ATOM     30  C   UNL     1       4.400 -14.101  -8.833  0.00  0.00    +0.001 A 
ATOM     31  C   UNL     1       5.231 -14.793  -9.726  0.00  0.00    +0.002 A 
ATOM     32  C   UNL     1       5.777 -14.211 -10.814  0.00  0.00    +0.026 A 
ATOM     33  C   UNL     1       5.522 -12.841 -11.100  0.00  0.00    +0.043 A 
ATOM     34  N   UNL     1       5.928 -12.063 -12.075  0.00  0.00    -0.380 N 
ATOM     35  C   UNL     1       5.352 -10.729 -11.878  0.00  0.00    +0.144 C 
ATOM     36  H   UNL     1       6.509 -12.327 -12.805  0.00  0.00    +0.160 HD
ENDBRANCH  26  27
ENDBRANCH  25  26
ENDBRANCH  23  25
ENDBRANCH  20  21
ENDBRANCH  19  20
ENDBRANCH   8  19
TORSDOF 7
