REMARK  Name = ZINC63004710
REMARK  4 active torsions:
REMARK  status: ('A' for Active; 'I' for Inactive)
REMARK    1  A    between atoms: C_2  and  C_10
REMARK    2  A    between atoms: C_5  and  N_8
REMARK    3  A    between atoms: N_12  and  C_13
REMARK    4  A    between atoms: C_16  and  O_19
REMARK                            x       y       z     vdW  Elec       q    Type
REMARK                         _______ _______ _______ _____ _____    ______ ____
ROOT
ATOM      1  C   UNL     1       1.168   3.563   0.010  0.00  0.00    +0.244 C 
ATOM      2  O   UNL     1       0.108   4.159   0.022  0.00  0.00    -0.270 OA
ATOM      3  N   UNL     1       2.327   4.251   0.002  0.00  0.00    -0.308 N 
ATOM      4  H   UNL     1       3.173   3.775  -0.008  0.00  0.00    +0.149 HD
ENDROOT
BRANCH   1   6
ATOM      5  C   UNL     1      -0.017   1.374   0.010  0.00  0.00    +0.053 A 
ATOM      6  C   UNL     1       1.185   2.088   0.002  0.00  0.00    +0.042 A 
ATOM      7  C   UNL     1       2.403   1.402  -0.013  0.00  0.00    +0.053 A 
ATOM      8  C   UNL     1       2.416   0.024  -0.021  0.00  0.00    +0.147 A 
ATOM      9  C   UNL     1       1.217  -0.685  -0.014  0.00  0.00    +0.096 A 
ATOM     10  C   UNL     1       0.002  -0.004   0.002  0.00  0.00    +0.147 A 
ATOM     11  F   UNL     1      -1.159  -0.695   0.010  0.00  0.00    -0.203 F 
ATOM     12  F   UNL     1       3.593  -0.640  -0.036  0.00  0.00    -0.203 F 
BRANCH   9  13
ATOM     13  N   UNL     1       1.233  -2.079  -0.022  0.00  0.00    -0.354 N 
ATOM     14  H   UNL     1       2.079  -2.554  -0.032  0.00  0.00    +0.142 HD
ATOM     15  H   UNL     1       0.399  -2.573  -0.017  0.00  0.00    +0.142 HD
ENDBRANCH   9  13
ENDBRANCH   1   6
BRANCH   3  16
ATOM     16  C   UNL     1       2.311   5.716   0.010  0.00  0.00    +0.073 C 
ATOM     17  C   UNL     1       2.166   6.231  -1.423  0.00  0.00    +0.025 C 
ATOM     18  C   UNL     1       2.148   7.761  -1.415  0.00  0.00    +0.033 C 
ATOM     19  C   UNL     1       3.455   8.283  -0.816  0.00  0.00    +0.115 C 
ATOM     20  C   UNL     1       3.600   7.767   0.618  0.00  0.00    +0.033 C 
ATOM     21  C   UNL     1       3.618   6.238   0.610  0.00  0.00    +0.025 C 
BRANCH  19  22
ATOM     22  O   UNL     1       3.438   9.712  -0.808  0.00  0.00    -0.392 OA
ATOM     23  H   UNL     1       4.238  10.113  -0.440  0.00  0.00    +0.210 HD
ENDBRANCH  19  22
ENDBRANCH   3  16
TORSDOF 4
