REMARK  Name = ZINC59515725
REMARK  6 active torsions:
REMARK  status: ('A' for Active; 'I' for Inactive)
REMARK    1  A    between atoms: C_1  and  C_2
REMARK    2  A    between atoms: C_2  and  C_3
REMARK    3  A    between atoms: C_2  and  C_4
REMARK    4  A    between atoms: C_7  and  N_10
REMARK    5  A    between atoms: C_11  and  C_13
REMARK    6  A    between atoms: N_15  and  N_16
REMARK                            x       y       z     vdW  Elec       q    Type
REMARK                         _______ _______ _______ _____ _____    ______ ____
ROOT
ATOM      1  N   UNL     1      -5.318  -1.968   0.043  0.00  0.00    -0.278 N 
ATOM      2  C   UNL     1      -5.788  -2.663  -1.012  0.00  0.00    +0.305 C 
ATOM      3  O   UNL     1      -5.047  -2.947  -1.931  0.00  0.00    -0.265 OA
ATOM      4  H   UNL     1      -5.888  -1.808   0.811  0.00  0.00    +0.155 HD
ENDROOT
BRANCH   1   8
ATOM      5  C   UNL     1      -1.417  -0.511   0.004  0.00  0.00    -0.045 A 
ATOM      6  C   UNL     1      -1.990  -0.918   1.196  0.00  0.00    +0.006 A 
ATOM      7  C   UNL     1      -3.283  -1.402   1.212  0.00  0.00    +0.023 A 
ATOM      8  C   UNL     1      -4.009  -1.479   0.030  0.00  0.00    +0.034 A 
ATOM      9  C   UNL     1      -3.431  -1.069  -1.165  0.00  0.00    +0.023 A 
ATOM     10  C   UNL     1      -2.139  -0.581  -1.173  0.00  0.00    +0.006 A 
BRANCH   5  12
ATOM     11  C   UNL     1       0.088   1.248   0.893  0.00  0.00    +0.012 C 
ATOM     12  C   UNL     1      -0.005   0.016  -0.009  0.00  0.00    +0.013 C 
ATOM     13  C   UNL     1       0.948  -1.066   0.504  0.00  0.00    +0.012 C 
ENDBRANCH   5  12
ENDBRANCH   1   8
BRANCH   2  14
ATOM     14  C   UNL     1      -7.219  -3.084  -1.050  0.00  0.00    +0.318 C 
ATOM     15  O   UNL     1      -7.960  -2.801  -0.131  0.00  0.00    -0.263 OA
ATOM     16  N   UNL     1      -7.689  -3.779  -2.105  0.00  0.00    -0.199 N 
ATOM     17  H   UNL     1      -7.097  -4.006  -2.839  0.00  0.00    +0.178 HD
BRANCH  16  18
ATOM     18  N   UNL     1      -9.032  -4.175  -2.141  0.00  0.00    -0.189 NA
ATOM     19  C   UNL     1      -9.479  -4.835  -3.143  0.00  0.00    +0.037 C 
ATOM     20  C   UNL     1      -8.563  -5.198  -4.289  0.00  0.00    +0.052 C 
ATOM     21  C   UNL     1      -7.552  -6.228  -3.810  0.00  0.00    +0.006 C 
ATOM     22  C   UNL     1      -8.261  -7.584  -3.623  0.00  0.00    +0.000 C 
ATOM     23  C   UNL     1      -9.040  -7.568  -2.312  0.00  0.00    +0.000 C 
ATOM     24  C   UNL     1     -10.557  -7.651  -2.570  0.00  0.00    +0.000 C 
ATOM     25  C   UNL     1     -10.957  -6.707  -3.700  0.00  0.00    +0.006 C 
ATOM     26  C   UNL     1     -10.911  -5.261  -3.191  0.00  0.00    +0.052 C 
ENDBRANCH  16  18
ENDBRANCH   2  14
TORSDOF 4
