REMARK  Name = ZINC06606334
REMARK  4 active torsions:
REMARK  status: ('A' for Active; 'I' for Inactive)
REMARK    1  A    between atoms: C_1  and  C_2
REMARK    2  A    between atoms: C_1  and  C_14
REMARK    3  A    between atoms: C_2  and  C_4
REMARK    4  A    between atoms: C_2  and  C_12
REMARK                            x       y       z     vdW  Elec       q    Type
REMARK                         _______ _______ _______ _____ _____    ______ ____
ROOT
ATOM      1  C   UNL     1      -0.013   1.086   0.008  0.00  0.00    +0.135 C 
ENDROOT
BRANCH   1   2
ATOM      2  C   UNL     1      -0.192   2.062  -1.156  0.00  0.00    +0.156 C 
ATOM      3  C   UNL     1       0.532   1.575  -2.404  0.00  0.00    +0.234 C 
ATOM      4  O   UNL     1       0.241   0.536  -2.957  0.00  0.00    -0.274 OA
ATOM      5  N   UNL     1       1.500   2.362  -2.842  0.00  0.00    -0.246 N 
ATOM      6  C   UNL     1       1.840   3.519  -2.244  0.00  0.00    +0.279 C 
ATOM      7  O   UNL     1       2.709   4.304  -2.570  0.00  0.00    -0.263 OA
ATOM      8  S   UNL     1       0.717   3.631  -0.859  0.00  0.00    -0.054 S 
ATOM      9  H   UNL     1       1.990   2.092  -3.634  0.00  0.00    +0.158 HD
ENDBRANCH   1   2
BRANCH   1  10
ATOM     10  C   UNL     1      -0.805   1.569   1.195  0.00  0.00    +0.361 C 
ATOM     11  O   UNL     1      -0.318   2.365   1.963  0.00  0.00    -0.246 OA
ATOM     12  O   UNL     1      -2.052   1.116   1.400  0.00  0.00    -0.246 OA
ENDBRANCH   1  10
BRANCH   1  13
ATOM     13  C   UNL     1       1.468   1.005   0.382  0.00  0.00    +0.141 C 
BRANCH  13  14
ATOM     14  C   UNL     1       1.661  -0.046   1.445  0.00  0.00    +0.357 C 
ATOM     15  O   UNL     1       0.711  -0.667   1.860  0.00  0.00    -0.246 OA
ATOM     16  O   UNL     1       2.888  -0.293   1.930  0.00  0.00    -0.246 OA
ENDBRANCH  13  14
ENDBRANCH   1  13
TORSDOF 4
