REMARK  Name = ZINC44876325
REMARK  11 active torsions:
REMARK  status: ('A' for Active; 'I' for Inactive)
REMARK    1  A    between atoms: C_1  and  C_2
REMARK    2  A    between atoms: N_5  and  C_8
REMARK    3  A    between atoms: C_8  and  C_9
REMARK    4  A    between atoms: C_12  and  C_15
REMARK    5  A    between atoms: C_15  and  N_16
REMARK    6  A    between atoms: C_17  and  C_19
REMARK    7  A    between atoms: C_22  and  N_25
REMARK    8  A    between atoms: N_25  and  C_26
REMARK    9  A    between atoms: N_25  and  S_34
REMARK   10  A    between atoms: C_26  and  C_27
REMARK   11  A    between atoms: S_34  and  C_37
REMARK                            x       y       z     vdW  Elec       q    Type
REMARK                         _______ _______ _______ _____ _____    ______ ____
ROOT
ATOM      1  N   UNL     1       1.443  -3.515   6.863  0.00  0.00    -0.307 N 
ATOM      2  C   UNL     1       1.964  -3.856   8.059  0.00  0.00    +0.244 C 
ATOM      3  O   UNL     1       1.908  -5.009   8.439  0.00  0.00    -0.270 OA
ATOM      4  H   UNL     1       1.488  -2.595   6.559  0.00  0.00    +0.149 HD
ENDROOT
BRANCH   2   5
ATOM      5  C   UNL     1       2.601  -2.830   8.905  0.00  0.00    +0.037 A 
ATOM      6  C   UNL     1       2.661  -1.502   8.472  0.00  0.00    +0.015 A 
ATOM      7  C   UNL     1       3.256  -0.547   9.264  0.00  0.00    +0.025 A 
ATOM      8  C   UNL     1       3.798  -0.902  10.496  0.00  0.00    +0.051 A 
ATOM      9  C   UNL     1       3.740  -2.223  10.931  0.00  0.00    +0.025 A 
ATOM     10  C   UNL     1       3.141  -3.182  10.146  0.00  0.00    +0.015 A 
BRANCH   8  11
ATOM     11  N   UNL     1       4.399   0.065  11.294  0.00  0.00    -0.203 N 
BRANCH  11  12
ATOM     12  S   UNL     1       5.075   1.408  10.600  0.00  0.00    +0.043 S 
ATOM     13  O   UNL     1       6.068   1.832  11.524  0.00  0.00    -0.155 OA
ATOM     14  O   UNL     1       5.435   0.996   9.289  0.00  0.00    -0.155 OA
ATOM     15  C   UNL     1       3.730   2.623  10.527  0.00  0.00    +0.218 C 
ENDBRANCH  11  12
BRANCH  11  16
ATOM     16  C   UNL     1       4.433  -0.104  12.749  0.00  0.00    +0.169 C 
BRANCH  16  17
ATOM     17  C   UNL     1       3.152   0.420  13.346  0.00  0.00    +0.007 A 
ATOM     18  C   UNL     1       3.120   1.675  13.923  0.00  0.00    +0.008 A 
ATOM     19  C   UNL     1       1.946   2.156  14.470  0.00  0.00    +0.000 A 
ATOM     20  C   UNL     1       0.801   1.381  14.441  0.00  0.00    +0.003 A 
ATOM     21  C   UNL     1       0.830   0.125  13.865  0.00  0.00    +0.038 A 
ATOM     22  C   UNL     1       2.005  -0.355  13.311  0.00  0.00    +0.128 A 
ATOM     23  F   UNL     1       2.033  -1.580  12.743  0.00  0.00    -0.205 F 
ENDBRANCH  16  17
ENDBRANCH  11  16
ENDBRANCH   8  11
ENDBRANCH   2   5
BRANCH   1  24
ATOM     24  C   UNL     1       0.810  -4.534   6.022  0.00  0.00    +0.139 C 
BRANCH  24  28
ATOM     25  C   UNL     1      -0.597  -2.732   2.414  0.00  0.00    -0.064 A 
ATOM     26  C   UNL     1       0.685  -3.247   2.475  0.00  0.00    +0.002 A 
ATOM     27  C   UNL     1       1.140  -3.829   3.643  0.00  0.00    +0.005 A 
ATOM     28  C   UNL     1       0.314  -3.898   4.749  0.00  0.00    -0.030 A 
ATOM     29  C   UNL     1      -0.968  -3.383   4.688  0.00  0.00    +0.005 A 
ATOM     30  C   UNL     1      -1.421  -2.796   3.521  0.00  0.00    +0.002 A 
BRANCH  25  31
ATOM     31  C   UNL     1      -1.094  -2.097   1.141  0.00  0.00    -0.043 C 
BRANCH  31  36
ATOM     32  C   UNL     1       0.667   3.240   0.172  0.00  0.00    +0.007 C 
ATOM     33  C   UNL     1       0.403   1.738   0.042  0.00  0.00    -0.018 C 
ATOM     34  C   UNL     1      -1.107   1.485   0.020  0.00  0.00    -0.016 C 
ATOM     35  C   UNL     1      -1.365  -0.023  -0.030  0.00  0.00    -0.078 C 
ATOM     36  N   UNL     1      -0.777  -0.663   1.153  0.00  0.00    +0.382 N 
ATOM     37  C   UNL     1       0.680  -0.485   1.143  0.00  0.00    -0.078 C 
ATOM     38  C   UNL     1       1.016   1.005   1.238  0.00  0.00    -0.016 C 
ATOM     39  H   UNL     1      -1.161  -0.243   1.987  0.00  0.00    -0.081 HD
ENDBRANCH  31  36
ENDBRANCH  25  31
ENDBRANCH  24  28
ENDBRANCH   1  24
TORSDOF 9
