REMARK  Name = ZINC41358696
REMARK  6 active torsions:
REMARK  status: ('A' for Active; 'I' for Inactive)
REMARK    1  A    between atoms: C_1  and  C_2
REMARK    2  A    between atoms: C_2  and  O_3
REMARK    3  A    between atoms: O_3  and  C_4
REMARK    4  A    between atoms: C_7  and  C_10
REMARK    5  A    between atoms: C_12  and  O_13
REMARK    6  A    between atoms: C_22  and  C_24
REMARK                            x       y       z     vdW  Elec       q    Type
REMARK                         _______ _______ _______ _____ _____    ______ ____
ROOT
ATOM      1  C   UNL     1       1.159  -5.794   1.232  0.00  0.00    +0.139 A 
ATOM      2  C   UNL     1       2.128  -6.181   2.138  0.00  0.00    +0.093 A 
ATOM      3  C   UNL     1       2.444  -7.532   2.278  0.00  0.00    +0.131 A 
ATOM      4  C   UNL     1       1.751  -8.473   1.476  0.00  0.00    +0.059 A 
ATOM      5  C   UNL     1       2.029  -9.846   1.576  0.00  0.00    +0.017 A 
ATOM      6  C   UNL     1       1.354 -10.734   0.799  0.00  0.00    +0.024 A 
ATOM      7  C   UNL     1       0.377 -10.286  -0.107  0.00  0.00    +0.037 A 
ATOM      8  C   UNL     1       0.090  -8.923  -0.218  0.00  0.00    +0.070 A 
ATOM      9  C   UNL     1       0.772  -8.013   0.569  0.00  0.00    +0.141 A 
ATOM     10  O   UNL     1       0.504  -6.693   0.480  0.00  0.00    -0.455 OA
ATOM     11  N   UNL     1      -0.292 -11.182  -0.879  0.00  0.00    -0.281 N 
ATOM     12  C   UNL     1      -1.413 -10.825  -1.491  0.00  0.00    +0.248 C 
ATOM     13  O   UNL     1      -1.912  -9.734  -1.262  0.00  0.00    -0.270 OA
ATOM     14  H   UNL     1       0.051 -12.084  -0.983  0.00  0.00    +0.155 HD
ENDROOT
BRANCH  12  15
ATOM     15  C   UNL     1      -2.060 -11.749  -2.452  0.00  0.00    +0.038 A 
ATOM     16  C   UNL     1      -1.495 -12.998  -2.711  0.00  0.00    +0.013 A 
ATOM     17  C   UNL     1      -2.102 -13.854  -3.607  0.00  0.00    +0.002 A 
ATOM     18  C   UNL     1      -3.268 -13.477  -4.248  0.00  0.00    +0.020 A 
ATOM     19  C   UNL     1      -3.833 -12.239  -3.996  0.00  0.00    +0.042 A 
ATOM     20  C   UNL     1      -3.238 -11.376  -3.097  0.00  0.00    +0.033 A 
ATOM     21 CL   UNL     1      -5.297 -11.774  -4.805  0.00  0.00    -0.084 Cl
ENDBRANCH  12  15
BRANCH   1  25
ATOM     22  C   UNL     1       0.220  -1.675   0.831  0.00  0.00    +0.121 A 
ATOM     23  C   UNL     1      -0.450  -2.617   0.058  0.00  0.00    +0.046 A 
ATOM     24  C   UNL     1      -0.149  -3.954   0.185  0.00  0.00    +0.015 A 
ATOM     25  C   UNL     1       0.833  -4.365   1.093  0.00  0.00    +0.018 A 
ATOM     26  C   UNL     1       1.505  -3.413   1.868  0.00  0.00    +0.015 A 
ATOM     27  C   UNL     1       1.200  -2.078   1.730  0.00  0.00    +0.046 A 
BRANCH  22  28
ATOM     28  O   UNL     1      -0.080  -0.358   0.702  0.00  0.00    -0.492 OA
BRANCH  28  30
ATOM     29  C   UNL     1      -1.295   1.504  -0.245  0.00  0.00    +0.048 C 
ATOM     30  C   UNL     1      -1.097  -0.013  -0.240  0.00  0.00    +0.225 C 
ENDBRANCH  28  30
ENDBRANCH  22  28
ENDBRANCH   1  25
BRANCH   3  31
ATOM     31  O   UNL     1       3.388  -7.934   3.157  0.00  0.00    -0.506 OA
ATOM     32  H   UNL     1       3.797  -7.212   3.653  0.00  0.00    +0.292 HD
ENDBRANCH   3  31
TORSDOF 5
