REMARK  Name = ZINC06821285
REMARK  13 active torsions:
REMARK  status: ('A' for Active; 'I' for Inactive)
REMARK    1  A    between atoms: C_1  and  C_2
REMARK    2  A    between atoms: C_2  and  C_3
REMARK    3  A    between atoms: C_3  and  C_5
REMARK    4  A    between atoms: C_3  and  N_6
REMARK    5  A    between atoms: C_7  and  C_9
REMARK    6  A    between atoms: C_9  and  N_10
REMARK    7  A    between atoms: N_10  and  C_11
REMARK    8  A    between atoms: N_10  and  S_20
REMARK    9  A    between atoms: C_16  and  O_17
REMARK   10  A    between atoms: O_17  and  C_18
REMARK   11  A    between atoms: S_20  and  C_23
REMARK   12  A    between atoms: C_26  and  C_32
REMARK   13  A    between atoms: C_27  and  N_29
REMARK                            x       y       z     vdW  Elec       q    Type
REMARK                         _______ _______ _______ _____ _____    ______ ____
ROOT
ATOM      1  N   UNL     1      -1.516   2.326   0.085  0.00  0.00    -0.191 N 
ENDROOT
BRANCH   1   2
ATOM      2  C   UNL     1      -0.354   1.599   0.362  0.00  0.00    +0.095 A 
ATOM      3  C   UNL     1      -0.422   0.228   0.560  0.00  0.00    +0.048 A 
ATOM      4  C   UNL     1       0.730  -0.490   0.829  0.00  0.00    +0.043 A 
ATOM      5  C   UNL     1       1.950   0.157   0.900  0.00  0.00    +0.024 A 
ATOM      6  C   UNL     1       2.025   1.524   0.704  0.00  0.00    +0.049 A 
ATOM      7  C   UNL     1       0.876   2.249   0.435  0.00  0.00    +0.143 A 
ATOM      8 CL   UNL     1       0.643  -2.206   1.077  0.00  0.00    -0.083 Cl
BRANCH   7   9
ATOM      9  O   UNL     1       0.949   3.593   0.241  0.00  0.00    -0.493 OA
ATOM     10  C   UNL     1       2.243   4.193   0.330  0.00  0.00    +0.277 C 
ENDBRANCH   7   9
ENDBRANCH   1   2
BRANCH   1  11
ATOM     11  S   UNL     1      -1.936   2.650  -1.484  0.00  0.00    +0.075 S 
ATOM     12  O   UNL     1      -2.763   3.805  -1.454  0.00  0.00    -0.150 OA
ATOM     13  O   UNL     1      -0.738   2.591  -2.246  0.00  0.00    -0.150 OA
BRANCH  11  14
ATOM     14  C   UNL     1      -2.950   1.319  -2.037  0.00  0.00    +0.111 A 
ATOM     15  C   UNL     1      -2.375   0.216  -2.640  0.00  0.00    +0.029 A 
ATOM     16  C   UNL     1      -3.170  -0.830  -3.070  0.00  0.00    +0.007 A 
ATOM     17  C   UNL     1      -4.541  -0.769  -2.905  0.00  0.00    -0.020 A 
ATOM     18  C   UNL     1      -5.117   0.337  -2.308  0.00  0.00    +0.131 A 
ATOM     19  C   UNL     1      -4.321   1.381  -1.874  0.00  0.00    +0.061 A 
ATOM     20  C   UNL     1      -5.408  -1.907  -3.378  0.00  0.00    +0.046 C 
BRANCH  18  21
ATOM     21  N   UNL     1      -6.585   0.403  -2.133  0.00  0.00    +0.057 N 
ATOM     22  O   UNL     1      -7.083   1.319  -1.503  0.00  0.00    -0.126 OA
ATOM     23  O   UNL     1      -7.296  -0.459  -2.618  0.00  0.00    -0.126 OA
ENDBRANCH  18  21
ENDBRANCH  11  14
ENDBRANCH   1  11
BRANCH   1  24
ATOM     24  C   UNL     1      -2.363   2.802   1.182  0.00  0.00    +0.227 C 
BRANCH  24  26
ATOM     25  N   UNL     1      -2.457   4.748   2.706  0.00  0.00    -0.311 N 
ATOM     26  C   UNL     1      -1.834   4.118   1.690  0.00  0.00    +0.232 C 
ATOM     27  O   UNL     1      -0.847   4.611   1.185  0.00  0.00    -0.274 OA
ATOM     28  H   UNL     1      -3.246   4.354   3.109  0.00  0.00    +0.149 HD
BRANCH  25  29
ATOM     29  C   UNL     1      -1.942   6.028   3.200  0.00  0.00    +0.070 C 
ATOM     30  C   UNL     1      -2.501   7.167   2.344  0.00  0.00    +0.028 C 
BRANCH  29  32
ATOM     31  C   UNL     1      -1.714   5.157   5.530  0.00  0.00    +0.005 C 
ATOM     32  C   UNL     1      -2.374   6.224   4.654  0.00  0.00    +0.018 C 
ENDBRANCH  29  32
ENDBRANCH  25  29
ENDBRANCH  24  26
ENDBRANCH   1  24
TORSDOF 9
