REMARK  Name = ZINC22058576
REMARK  15 active torsions:
REMARK  status: ('A' for Active; 'I' for Inactive)
REMARK    1  A    between atoms: C_1  and  C_2
REMARK    2  A    between atoms: C_2  and  O_3
REMARK    3  A    between atoms: O_3  and  C_4
REMARK    4  A    between atoms: C_4  and  C_6
REMARK    5  A    between atoms: C_6  and  C_8
REMARK    6  A    between atoms: C_6  and  N_16
REMARK    7  A    between atoms: C_8  and  C_9
REMARK    8  A    between atoms: C_9  and  C_10
REMARK    9  A    between atoms: N_16  and  C_17
REMARK   10  A    between atoms: C_17  and  C_19
REMARK   11  A    between atoms: C_17  and  C_20
REMARK   12  A    between atoms: C_31  and  C_33
REMARK   13  A    between atoms: C_33  and  O_35
REMARK   14  A    between atoms: O_35  and  C_36
REMARK   15  A    between atoms: C_36  and  C_37
REMARK                            x       y       z     vdW  Elec       q    Type
REMARK                         _______ _______ _______ _____ _____    ______ ____
ROOT
ATOM      1  C   UNL     1       4.113   0.841  -2.110  0.00  0.00    +0.202 C 
ATOM      2  O   UNL     1       4.686   1.617  -1.375  0.00  0.00    -0.277 OA
ATOM      3  N   UNL     1       4.715   0.409  -3.236  0.00  0.00    -0.286 N 
ATOM      4  C   UNL     1       4.111  -0.468  -4.247  0.00  0.00    +0.080 C 
ATOM      5  C   UNL     1       3.939  -1.889  -3.659  0.00  0.00    +0.023 C 
ATOM      6  C   UNL     1       4.825  -2.830  -4.500  0.00  0.00    +0.002 C 
ATOM      7  C   UNL     1       5.916  -1.902  -5.086  0.00  0.00    +0.005 C 
ATOM      8  C   UNL     1       5.134  -0.606  -5.406  0.00  0.00    +0.012 C 
ATOM      9  C   UNL     1       6.079   0.602  -5.194  0.00  0.00    +0.039 C 
ATOM     10  C   UNL     1       6.091   0.735  -3.651  0.00  0.00    +0.185 C 
ENDROOT
BRANCH   1  11
ATOM     11  C   UNL     1       2.727   0.360  -1.765  0.00  0.00    +0.014 C 
ATOM     12  C   UNL     1       1.691   1.291  -2.398  0.00  0.00    -0.004 C 
BRANCH  11  13
ATOM     13  N   UNL     1       2.558   0.359  -0.306  0.00  0.00    +0.395 N 
ATOM     14  H   UNL     1       2.261   1.368   0.015  0.00  0.00    -0.084 HD
ATOM     15  H   UNL     1       3.518   0.093   0.160  0.00  0.00    -0.084 HD
BRANCH  13  16
ATOM     16  C   UNL     1       1.531  -0.608   0.104  0.00  0.00    +0.040 C 
BRANCH  16  17
ATOM     17  C   UNL     1       0.171   0.035   0.012  0.00  0.00    +0.293 C 
ATOM     18  O   UNL     1       0.068   1.181  -0.357  0.00  0.00    -0.253 OA
BRANCH  17  19
ATOM     19  O   UNL     1      -0.926  -0.665   0.341  0.00  0.00    -0.466 OA
BRANCH  19  21
ATOM     20  C   UNL     1      -3.328  -0.933   0.641  0.00  0.00    +0.048 C 
ATOM     21  C   UNL     1      -2.203   0.018   0.228  0.00  0.00    +0.228 C 
ENDBRANCH  19  21
ENDBRANCH  17  19
ENDBRANCH  16  17
BRANCH  16  22
ATOM     22  C   UNL     1       1.791  -1.047   1.547  0.00  0.00    -0.000 C 
BRANCH  22  23
ATOM     23  C   UNL     1       3.115  -1.809   1.617  0.00  0.00    +0.034 C 
BRANCH  23  24
ATOM     24  C   UNL     1       3.371  -2.242   3.038  0.00  0.00    -0.047 A 
ATOM     25  C   UNL     1       4.073  -1.416   3.896  0.00  0.00    +0.003 A 
ATOM     26  C   UNL     1       4.304  -1.810   5.200  0.00  0.00    +0.000 A 
ATOM     27  C   UNL     1       3.841  -3.035   5.644  0.00  0.00    +0.000 A 
ATOM     28  C   UNL     1       3.144  -3.863   4.785  0.00  0.00    +0.000 A 
ATOM     29  C   UNL     1       2.909  -3.466   3.482  0.00  0.00    +0.003 A 
ENDBRANCH  23  24
ENDBRANCH  22  23
ENDBRANCH  16  22
ENDBRANCH  13  16
ENDBRANCH  11  13
ENDBRANCH   1  11
BRANCH  10  30
ATOM     30  C   UNL     1       6.442   2.144  -3.249  0.00  0.00    +0.328 C 
ATOM     31  O   UNL     1       5.585   2.997  -3.226  0.00  0.00    -0.249 OA
BRANCH  30  32
ATOM     32  O   UNL     1       7.705   2.453  -2.916  0.00  0.00    -0.459 OA
BRANCH  32  33
ATOM     33  C   UNL     1       7.970   3.830  -2.538  0.00  0.00    +0.267 C 
BRANCH  33  34
ATOM     34  C   UNL     1       9.430   3.986  -2.200  0.00  0.00    -0.010 A 
ATOM     35  C   UNL     1       9.863   3.796  -0.902  0.00  0.00    +0.007 A 
ATOM     36  C   UNL     1      11.203   3.934  -0.593  0.00  0.00    +0.000 A 
ATOM     37  C   UNL     1      12.109   4.274  -1.580  0.00  0.00    +0.000 A 
ATOM     38  C   UNL     1      11.675   4.470  -2.878  0.00  0.00    +0.000 A 
ATOM     39  C   UNL     1      10.335   4.326  -3.188  0.00  0.00    +0.007 A 
ENDBRANCH  33  34
ENDBRANCH  32  33
ENDBRANCH  30  32
ENDBRANCH  10  30
TORSDOF 13
