REMARK  Name = ZINC28804578
REMARK  8 active torsions:
REMARK  status: ('A' for Active; 'I' for Inactive)
REMARK    1  A    between atoms: C_1  and  C_2
REMARK    2  A    between atoms: C_8  and  C_10
REMARK    3  A    between atoms: C_10  and  C_12
REMARK    4  A    between atoms: C_10  and  N_13
REMARK    5  A    between atoms: N_13  and  C_14
REMARK    6  A    between atoms: C_14  and  C_15
REMARK    7  A    between atoms: C_15  and  C_17
REMARK    8  A    between atoms: C_15  and  C_23
REMARK                            x       y       z     vdW  Elec       q    Type
REMARK                         _______ _______ _______ _____ _____    ______ ____
ROOT
ATOM      1  C   UNL     1      -7.378  -4.763   0.131  0.00  0.00    +0.034 C 
ENDROOT
BRANCH   1   2
ATOM      2  C   UNL     1      -8.249  -5.993   0.128  0.00  0.00    -0.017 A 
ATOM      3  C   UNL     1      -8.271  -6.959   1.060  0.00  0.00    +0.087 A 
ATOM      4  N   UNL     1      -9.188  -7.915   0.720  0.00  0.00    -0.360 N 
ATOM      5  H   UNL     1      -9.382  -8.711   1.240  0.00  0.00    +0.165 HD
ATOM      6  C   UNL     1      -9.796  -7.580  -0.469  0.00  0.00    +0.047 A 
ATOM      7  C   UNL     1      -9.239  -6.357  -0.889  0.00  0.00    +0.003 A 
ATOM      8  C   UNL     1      -9.673  -5.765  -2.076  0.00  0.00    +0.010 A 
ATOM      9  C   UNL     1     -10.641  -6.375  -2.824  0.00  0.00    +0.001 A 
ATOM     10  C   UNL     1     -11.196  -7.578  -2.412  0.00  0.00    +0.002 A 
ATOM     11  C   UNL     1     -10.776  -8.185  -1.248  0.00  0.00    +0.026 A 
ENDBRANCH   1   2
BRANCH   1  12
ATOM     12  C   UNL     1      -7.661  -3.950   1.367  0.00  0.00    -0.042 A 
ATOM     13  C   UNL     1      -7.457  -4.501   2.619  0.00  0.00    +0.004 A 
ATOM     14  C   UNL     1      -7.717  -3.755   3.753  0.00  0.00    +0.000 A 
ATOM     15  C   UNL     1      -8.180  -2.457   3.636  0.00  0.00    +0.000 A 
ATOM     16  C   UNL     1      -8.383  -1.906   2.385  0.00  0.00    +0.000 A 
ATOM     17  C   UNL     1      -8.119  -2.651   1.250  0.00  0.00    +0.004 A 
ENDBRANCH   1  12
BRANCH   1  18
ATOM     18  C   UNL     1      -5.906  -5.182   0.121  0.00  0.00    -0.069 C 
BRANCH  18  19
ATOM     19  N   UNL     1      -5.059  -3.987   0.003  0.00  0.00    +0.387 N 
ATOM     20  H   UNL     1      -5.229  -3.375   0.787  0.00  0.00    -0.085 HD
ATOM     21  H   UNL     1      -5.276  -3.504  -0.855  0.00  0.00    -0.085 HD
BRANCH  19  22
ATOM     22  C   UNL     1      -3.646  -4.389  -0.006  0.00  0.00    +0.013 C 
ATOM     23  C   UNL     1      -3.358  -5.215  -1.261  0.00  0.00    -0.004 C 
BRANCH  22  31
ATOM     24  C   UNL     1      -0.018   1.503   0.010  0.00  0.00    +0.089 C 
ATOM     25  C   UNL     1       0.002  -0.004   0.002  0.00  0.00    +0.136 A 
ATOM     26  C   UNL     1      -1.076  -0.808   0.003  0.00  0.00    +0.091 A 
ATOM     27  C   UNL     1      -0.625  -2.147  -0.007  0.00  0.00    +0.168 A 
ATOM     28  N   UNL     1       0.683  -2.130  -0.013  0.00  0.00    -0.063 NA
ATOM     29  O   UNL     1       1.100  -0.776  -0.013  0.00  0.00    -0.358 OA
ATOM     30  N   UNL     1      -1.432  -3.285  -0.010  0.00  0.00    -0.269 N 
ATOM     31  C   UNL     1      -2.774  -3.159  -0.003  0.00  0.00    +0.204 C 
ATOM     32  O   UNL     1      -3.280  -2.057   0.006  0.00  0.00    -0.277 OA
ATOM     33  H   UNL     1      -1.027  -4.166  -0.017  0.00  0.00    +0.156 HD
ENDBRANCH  22  31
ENDBRANCH  19  22
ENDBRANCH  18  19
ENDBRANCH   1  18
TORSDOF 6
