REMARK  Name = ZINC08720703
REMARK  15 active torsions:
REMARK  status: ('A' for Active; 'I' for Inactive)
REMARK    1  A    between atoms: C_1  and  C_2
REMARK    2  A    between atoms: C_6  and  C_9
REMARK    3  A    between atoms: C_10  and  C_11
REMARK    4  A    between atoms: C_10  and  C_12
REMARK    5  A    between atoms: C_10  and  C_13
REMARK    6  A    between atoms: C_10  and  N_64
REMARK    7  A    between atoms: C_13  and  N_14
REMARK    8  A    between atoms: N_14  and  C_15
REMARK    9  A    between atoms: C_18  and  S_24
REMARK   10  A    between atoms: C_20  and  N_21
REMARK   11  A    between atoms: S_24  and  N_27
REMARK   12  A    between atoms: N_27  and  C_28
REMARK   13  A    between atoms: C_28  and  C_29
REMARK   14  A    between atoms: C_28  and  C_30
REMARK   15  A    between atoms: C_28  and  C_31
REMARK                            x       y       z     vdW  Elec       q    Type
REMARK                         _______ _______ _______ _____ _____    ______ ____
ROOT
ATOM      1  C   UNL     1      -0.040   4.087  -2.660  0.00  0.00    +0.058 A 
ATOM      2  C   UNL     1      -1.099   3.194  -2.563  0.00  0.00    +0.027 A 
ATOM      3  C   UNL     1      -0.986   2.076  -1.761  0.00  0.00    +0.030 A 
ATOM      4  C   UNL     1       0.180   1.845  -1.054  0.00  0.00    +0.108 A 
ATOM      5  C   UNL     1       1.234   2.735  -1.144  0.00  0.00    +0.063 A 
ATOM      6  C   UNL     1       1.130   3.853  -1.950  0.00  0.00    +0.149 A 
ENDROOT
BRANCH   6   7
ATOM      7  N   UNL     1       2.261   4.802  -2.050  0.00  0.00    +0.058 N 
ATOM      8  O   UNL     1       3.405   4.385  -2.077  0.00  0.00    -0.126 OA
ATOM      9  O   UNL     1       2.048   6.000  -2.106  0.00  0.00    -0.126 OA
ENDBRANCH   6   7
BRANCH   4  10
ATOM     10  S   UNL     1       0.321   0.417  -0.031  0.00  0.00    +0.059 S 
ATOM     11  O   UNL     1      -0.996  -0.089   0.143  0.00  0.00    -0.153 OA
ATOM     12  O   UNL     1       1.147   0.783   1.065  0.00  0.00    -0.153 OA
BRANCH  10  13
ATOM     13  N   UNL     1       1.156  -0.723  -0.894  0.00  0.00    -0.185 NA
ATOM     14  H   UNL     1       2.041  -0.997  -0.606  0.00  0.00    +0.149 HD
BRANCH  13  15
ATOM     15  C   UNL     1       0.556  -1.322  -2.089  0.00  0.00    +0.032 C 
ATOM     16  C   UNL     1       0.092  -0.215  -3.037  0.00  0.00    +0.029 C 
ATOM     17  C   UNL     1       1.593  -2.198  -2.796  0.00  0.00    +0.029 C 
ATOM     18  C   UNL     1      -0.643  -2.180  -1.681  0.00  0.00    +0.029 C 
ENDBRANCH  13  15
ENDBRANCH  10  13
ENDBRANCH   4  10
BRANCH   1  19
ATOM     19  N   UNL     1      -0.151   5.219  -3.472  0.00  0.00    -0.343 N 
ATOM     20  H   UNL     1       0.619   5.792  -3.612  0.00  0.00    +0.146 HD
BRANCH  19  21
ATOM     21  C   UNL     1      -1.430   5.539  -4.111  0.00  0.00    +0.089 C 
BRANCH  21  22
ATOM     22  C   UNL     1      -1.252   6.751  -5.028  0.00  0.00    -0.055 C 
ATOM     23  C   UNL     1      -0.190   6.439  -6.084  0.00  0.00    -0.008 C 
ATOM     24  C   UNL     1      -2.580   7.067  -5.718  0.00  0.00    -0.008 C 
BRANCH  22  32
ATOM     25  C   UNL     1       0.106  11.481  -5.106  0.00  0.00    +0.036 C 
ATOM     26  C   UNL     1      -0.079  10.240  -4.230  0.00  0.00    +0.099 C 
ATOM     27  C   UNL     1      -0.577   9.076  -5.091  0.00  0.00    -0.046 C 
ATOM     28  C   UNL     1      -1.817   8.229  -3.194  0.00  0.00    -0.046 C 
ATOM     29  C   UNL     1      -1.307   9.401  -2.352  0.00  0.00    +0.099 C 
ATOM     30  O   UNL     1      -1.041  10.516  -3.208  0.00  0.00    -0.378 OA
ATOM     31  C   UNL     1      -2.368   9.791  -1.321  0.00  0.00    +0.036 C 
ATOM     32  N   UNL     1      -0.803   7.904  -4.219  0.00  0.00    +0.387 N 
ATOM     33  H   UNL     1       0.078   7.661  -3.751  0.00  0.00    -0.081 HD
ENDBRANCH  22  32
ENDBRANCH  21  22
ENDBRANCH  19  21
ENDBRANCH   1  19
TORSDOF 8
