REMARK  Name = ZINC37375502
REMARK  3 active torsions:
REMARK  status: ('A' for Active; 'I' for Inactive)
REMARK    1  A    between atoms: C_6  and  S_7
REMARK    2  A    between atoms: S_7  and  N_10
REMARK    3  A    between atoms: C_14  and  N_17
REMARK                            x       y       z     vdW  Elec       q    Type
REMARK                         _______ _______ _______ _____ _____    ______ ____
ROOT
ATOM      1  S   UNL     1      -1.512  -0.905   0.012  0.00  0.00    +0.101 S 
ATOM      2  O   UNL     1      -1.220  -2.186   0.553  0.00  0.00    -0.146 OA
ATOM      3  O   UNL     1      -2.493  -0.045   0.577  0.00  0.00    -0.146 OA
ENDROOT
BRANCH   1   9
ATOM      4  C   UNL     1      -0.017   1.378   0.010  0.00  0.00    +0.032 A 
ATOM      5  C   UNL     1       1.170   2.087   0.002  0.00  0.00    +0.043 A 
ATOM      6  C   UNL     1       2.379   1.413  -0.013  0.00  0.00    +0.159 A 
ATOM      7  C   UNL     1       2.397   0.026  -0.021  0.00  0.00    +0.160 A 
ATOM      8  C   UNL     1       1.208  -0.680  -0.013  0.00  0.00    +0.070 A 
ATOM      9  C   UNL     1       0.002  -0.004   0.002  0.00  0.00    +0.115 A 
ATOM     10  F   UNL     1       3.576  -0.634  -0.036  0.00  0.00    -0.202 F 
ATOM     11  F   UNL     1       3.539   2.105  -0.021  0.00  0.00    -0.202 F 
ENDBRANCH   1   9
BRANCH   1  12
ATOM     12  N   UNL     1      -1.948  -1.147  -1.567  0.00  0.00    -0.111 NA
ATOM     13  C   UNL     1      -3.056  -1.802  -1.853  0.00  0.00    +0.153 A 
ATOM     14  C   UNL     1      -3.428  -2.015  -3.200  0.00  0.00    +0.049 A 
ATOM     15  C   UNL     1      -4.572  -2.693  -3.477  0.00  0.00    +0.028 A 
ATOM     16  C   UNL     1      -5.371  -3.174  -2.420  0.00  0.00    +0.041 A 
ATOM     17  C   UNL     1      -5.001  -2.962  -1.134  0.00  0.00    +0.107 A 
ATOM     18  N   UNL     1      -3.850  -2.285  -0.843  0.00  0.00    -0.343 N 
ATOM     19  H   UNL     1      -3.594  -2.143   0.082  0.00  0.00    +0.167 HD
BRANCH  16  20
ATOM     20  N   UNL     1      -6.555  -3.875  -2.700  0.00  0.00    -0.357 N 
ATOM     21  H   UNL     1      -6.821  -4.027  -3.620  0.00  0.00    +0.142 HD
ATOM     22  H   UNL     1      -7.106  -4.206  -1.974  0.00  0.00    +0.142 HD
ENDBRANCH  16  20
ENDBRANCH   1  12
TORSDOF 3
