REMARK  Name = ZINC16956969
REMARK  9 active torsions:
REMARK  status: ('A' for Active; 'I' for Inactive)
REMARK    1  A    between atoms: C_1  and  O_2
REMARK    2  A    between atoms: O_2  and  C_3
REMARK    3  A    between atoms: C_3  and  C_5
REMARK    4  A    between atoms: C_11  and  C_26
REMARK    5  A    between atoms: C_12  and  C_19
REMARK    6  A    between atoms: C_14  and  C_17
REMARK    7  A    between atoms: C_15  and  N_16
REMARK    8  A    between atoms: N_28  and  C_29
REMARK    9  A    between atoms: C_29  and  C_30
REMARK                            x       y       z     vdW  Elec       q    Type
REMARK                         _______ _______ _______ _____ _____    ______ ____
ROOT
ATOM      1  C   UNL     1      -0.139  -7.665   3.172  0.00  0.00    +0.112 C 
ATOM      2  C   UNL     1      -0.083  -6.318   3.333  0.00  0.00    +0.086 A 
ATOM      3  C   UNL     1      -0.013  -5.521   4.581  0.00  0.00    +0.272 A 
ATOM      4  O   UNL     1       0.001  -6.063   5.668  0.00  0.00    -0.266 OA
ATOM      5  N   UNL     1       0.033  -4.178   4.474  0.00  0.00    -0.257 N 
ATOM      6  C   UNL     1       0.012  -3.632   3.205  0.00  0.00    +0.099 A 
ATOM      7  C   UNL     1       0.053  -2.303   2.945  0.00  0.00    +0.057 C 
ATOM      8  C   UNL     1       0.132  -1.341   4.114  0.00  0.00    +0.100 C 
ATOM      9  C   UNL     1       0.146  -1.978   5.489  0.00  0.00    +0.079 C 
ATOM     10  C   UNL     1       0.100  -3.325   5.582  0.00  0.00    +0.118 C 
ATOM     11  S   UNL     1      -0.075  -5.027   2.100  0.00  0.00    -0.065 S 
ENDROOT
BRANCH   8  12
ATOM     12  C   UNL     1       1.382  -0.513   3.960  0.00  0.00    -0.034 A 
ATOM     13  C   UNL     1       2.619  -1.129   3.931  0.00  0.00    +0.007 A 
ATOM     14  C   UNL     1       3.765  -0.371   3.784  0.00  0.00    +0.038 A 
ATOM     15  C   UNL     1       3.675   1.006   3.677  0.00  0.00    +0.123 A 
ATOM     16  C   UNL     1       2.436   1.622   3.712  0.00  0.00    +0.038 A 
ATOM     17  C   UNL     1       1.290   0.862   3.853  0.00  0.00    +0.007 A 
ATOM     18  F   UNL     1       4.795   1.748   3.539  0.00  0.00    -0.205 F 
ENDBRANCH   8  12
BRANCH   7  19
ATOM     19  C   UNL     1       0.028  -1.826   1.620  0.00  0.00    +0.244 C 
ATOM     20  O   UNL     1      -0.031  -2.612   0.691  0.00  0.00    -0.270 OA
ATOM     21  N   UNL     1       0.069  -0.500   1.379  0.00  0.00    -0.307 N 
ATOM     22  H   UNL     1       0.116   0.125   2.119  0.00  0.00    +0.149 HD
BRANCH  21  23
ATOM     23  C   UNL     1       0.043  -0.004   0.001  0.00  0.00    +0.139 C 
BRANCH  23  24
ATOM     24  C   UNL     1       0.098   1.501   0.008  0.00  0.00    -0.030 A 
ATOM     25  C   UNL     1      -1.072   2.236   0.044  0.00  0.00    +0.005 A 
ATOM     26  C   UNL     1      -1.021   3.618   0.054  0.00  0.00    +0.000 A 
ATOM     27  C   UNL     1       0.201   4.264   0.019  0.00  0.00    +0.000 A 
ATOM     28  C   UNL     1       1.371   3.529  -0.021  0.00  0.00    +0.000 A 
ATOM     29  C   UNL     1       1.320   2.148  -0.028  0.00  0.00    +0.005 A 
ENDBRANCH  23  24
ENDBRANCH  21  23
ENDBRANCH   7  19
BRANCH  10  30
ATOM     30  N   UNL     1       0.120  -3.889   6.834  0.00  0.00    -0.343 N 
ATOM     31  H   UNL     1       0.488  -4.778   6.960  0.00  0.00    +0.144 HD
ATOM     32  H   UNL     1      -0.235  -3.400   7.593  0.00  0.00    +0.144 HD
ENDBRANCH  10  30
BRANCH   1  33
ATOM     33  C   UNL     1      -0.204  -8.239   1.827  0.00  0.00    +0.333 C 
ATOM     34  O   UNL     1      -0.208  -7.509   0.855  0.00  0.00    -0.246 OA
BRANCH  33  36
ATOM     35  C   UNL     1      -0.321 -10.068   0.326  0.00  0.00    +0.280 C 
ATOM     36  O   UNL     1      -0.259  -9.578   1.667  0.00  0.00    -0.465 OA
ENDBRANCH  33  36
ENDBRANCH   1  33
BRANCH   9  37
ATOM     37  C   UNL     1       0.214  -1.167   6.668  0.00  0.00    +0.099 C 
ATOM     38  N   UNL     1       0.267  -0.524   7.603  0.00  0.00    -0.191 NA
ENDBRANCH   9  37
TORSDOF 8
