REMARK  Name = ZINC14042234
REMARK  14 active torsions:
REMARK  status: ('A' for Active; 'I' for Inactive)
REMARK    1  A    between atoms: C_1  and  C_2
REMARK    2  A    between atoms: C_2  and  O_3
REMARK    3  A    between atoms: O_3  and  C_4
REMARK    4  A    between atoms: C_8  and  C_10
REMARK    5  A    between atoms: N_12  and  C_13
REMARK    6  A    between atoms: C_13  and  N_15
REMARK    7  A    between atoms: N_15  and  N_16
REMARK    8  A    between atoms: C_17  and  C_19
REMARK    9  A    between atoms: C_19  and  O_20
REMARK   10  A    between atoms: O_20  and  C_21
REMARK   11  A    between atoms: C_24  and  C_28
REMARK   12  A    between atoms: C_28  and  C_29
REMARK   13  A    between atoms: C_28  and  C_30
REMARK   14  A    between atoms: C_28  and  C_31
REMARK                            x       y       z     vdW  Elec       q    Type
REMARK                         _______ _______ _______ _____ _____    ______ ____
ROOT
ATOM      1  N   UNL     1       2.241   8.046   0.023  0.00  0.00    -0.245 N 
ATOM      2  H   UNL     1       2.231   9.016   0.029  0.00  0.00    +0.172 HD
ENDROOT
BRANCH   1   3
ATOM      3  N   UNL     1       3.462   7.359   0.008  0.00  0.00    -0.232 N 
ATOM      4  C   UNL     1       4.622   8.045   0.001  0.00  0.00    +0.267 C 
ATOM      5  O   UNL     1       4.609   9.257   0.007  0.00  0.00    -0.271 OA
ATOM      6  H   UNL     1       3.472   6.389   0.003  0.00  0.00    +0.173 HD
BRANCH   4   7
ATOM      7  C   UNL     1       5.935   7.305  -0.016  0.00  0.00    +0.326 C 
BRANCH   7   8
ATOM      8  O   UNL     1       7.011   8.245  -0.021  0.00  0.00    -0.482 OA
BRANCH   8   9
ATOM      9  C   UNL     1       8.273   7.739  -0.036  0.00  0.00    +0.135 A 
ATOM     10  C   UNL     1       8.470   6.366  -0.045  0.00  0.00    +0.047 A 
ATOM     11  C   UNL     1       9.753   5.854  -0.061  0.00  0.00    +0.008 A 
ATOM     12  C   UNL     1      10.840   6.708  -0.067  0.00  0.00    -0.041 A 
ATOM     13  C   UNL     1      10.647   8.077  -0.059  0.00  0.00    +0.023 A 
ATOM     14  C   UNL     1       9.365   8.595  -0.048  0.00  0.00    +0.060 A 
ATOM     15 BR   UNL     1       9.101  10.467  -0.042  0.00  0.00    -0.047 Br
BRANCH  12  16
ATOM     16  C   UNL     1      12.238   6.146  -0.085  0.00  0.00    -0.013 C 
ATOM     17  C   UNL     1      12.430   5.294  -1.341  0.00  0.00    +0.015 C 
ATOM     18  C   UNL     1      13.249   7.295  -0.089  0.00  0.00    +0.015 C 
ATOM     19  C   UNL     1      12.456   5.280   1.158  0.00  0.00    +0.015 C 
ENDBRANCH  12  16
ENDBRANCH   8   9
ENDBRANCH   7   8
ENDBRANCH   4   7
ENDBRANCH   1   3
BRANCH   1  20
ATOM     20  C   UNL     1       1.081   7.360   0.031  0.00  0.00    +0.153 C 
ATOM     21  S   UNL     1      -0.410   8.200   0.050  0.00  0.00    -0.017 S 
BRANCH  20  24
ATOM     22  C   UNL     1      -0.064   5.326   0.031  0.00  0.00    +0.250 C 
ATOM     23  O   UNL     1      -1.123   5.923   0.044  0.00  0.00    -0.270 OA
ATOM     24  N   UNL     1       1.096   6.012   0.023  0.00  0.00    -0.263 N 
ATOM     25  H   UNL     1       1.941   5.536   0.013  0.00  0.00    +0.157 HD
BRANCH  22  30
ATOM     26  C   UNL     1      -1.226   1.751   0.017  0.00  0.00    +0.121 A 
ATOM     27  C   UNL     1      -0.013   1.076   0.008  0.00  0.00    +0.046 A 
ATOM     28  C   UNL     1       1.177   1.781   0.000  0.00  0.00    +0.004 A 
ATOM     29  C   UNL     1       1.166   3.161   0.007  0.00  0.00    +0.013 A 
ATOM     30  C   UNL     1      -0.049   3.848   0.023  0.00  0.00    +0.041 A 
ATOM     31  C   UNL     1      -1.248   3.135   0.031  0.00  0.00    +0.058 A 
BRANCH  26  32
ATOM     32  O   UNL     1      -2.392   1.053   0.019  0.00  0.00    -0.492 OA
BRANCH  32  34
ATOM     33  C   UNL     1      -3.699  -0.980   0.013  0.00  0.00    +0.048 C 
ATOM     34  C   UNL     1      -2.294  -0.373   0.010  0.00  0.00    +0.225 C 
ENDBRANCH  32  34
ENDBRANCH  26  32
ENDBRANCH  22  30
ENDBRANCH  20  24
ENDBRANCH   1  20
TORSDOF 10
