REMARK  Name = ZINC03466576
REMARK  7 active torsions:
REMARK  status: ('A' for Active; 'I' for Inactive)
REMARK    1  A    between atoms: C_4  and  C_7
REMARK    2  A    between atoms: C_7  and  C_8
REMARK    3  A    between atoms: C_13  and  N_14
REMARK    4  A    between atoms: C_15  and  C_17
REMARK    5  A    between atoms: C_17  and  O_18
REMARK    6  A    between atoms: O_18  and  C_19
REMARK    7  A    between atoms: C_19  and  C_21
REMARK                            x       y       z     vdW  Elec       q    Type
REMARK                         _______ _______ _______ _____ _____    ______ ____
ROOT
ATOM      1  N   UNL     1       8.305  -3.510   4.463  0.00  0.00    -0.282 N 
ATOM      2  C   UNL     1       7.043  -3.036   4.454  0.00  0.00    +0.255 C 
ATOM      3  O   UNL     1       6.138  -3.714   4.891  0.00  0.00    -0.272 OA
ATOM      4  H   UNL     1       9.019  -2.996   4.055  0.00  0.00    +0.155 HD
ENDROOT
BRANCH   1  10
ATOM      5  C   UNL     1       9.794  -4.940   5.716  0.00  0.00    -0.022 A 
ATOM      6  C   UNL     1      10.065  -6.156   6.312  0.00  0.00    +0.006 A 
ATOM      7  C   UNL     1       9.139  -7.180   6.249  0.00  0.00    +0.000 A 
ATOM      8  C   UNL     1       7.935  -6.989   5.594  0.00  0.00    +0.002 A 
ATOM      9  C   UNL     1       7.656  -5.773   5.001  0.00  0.00    +0.023 A 
ATOM     10  C   UNL     1       8.585  -4.742   5.063  0.00  0.00    +0.037 A 
BRANCH   5  11
ATOM     11  C   UNL     1      10.807  -3.826   5.780  0.00  0.00    +0.072 C 
BRANCH  11  15
ATOM     12  C   UNL     1       9.909  -1.271   9.084  0.00  0.00    +0.000 A 
ATOM     13  C   UNL     1      10.748  -2.356   9.257  0.00  0.00    +0.000 A 
ATOM     14  C   UNL     1      11.039  -3.183   8.188  0.00  0.00    +0.004 A 
ATOM     15  C   UNL     1      10.491  -2.925   6.946  0.00  0.00    -0.043 A 
ATOM     16  C   UNL     1       9.656  -1.837   6.771  0.00  0.00    +0.004 A 
ATOM     17  C   UNL     1       9.362  -1.012   7.841  0.00  0.00    +0.000 A 
ENDBRANCH  11  15
ENDBRANCH   5  11
ENDBRANCH   1  10
BRANCH   2  18
ATOM     18  C   UNL     1       6.757  -1.664   3.899  0.00  0.00    +0.328 C 
BRANCH  18  19
ATOM     19  O   UNL     1       5.336  -1.388   4.000  0.00  0.00    -0.452 OA
BRANCH  19  20
ATOM     20  C   UNL     1       4.911  -0.193   3.544  0.00  0.00    +0.340 C 
ATOM     21  O   UNL     1       5.707   0.596   3.075  0.00  0.00    -0.245 OA
BRANCH  20  22
ATOM     22  C   UNL     1       3.480   0.157   3.615  0.00  0.00    +0.063 A 
ATOM     23  C   UNL     1       2.563  -0.750   4.155  0.00  0.00    +0.019 A 
ATOM     24  C   UNL     1       1.227  -0.421   4.220  0.00  0.00    +0.050 A 
ATOM     25  C   UNL     1       0.786   0.810   3.752  0.00  0.00    +0.166 A 
ATOM     26  C   UNL     1       1.696   1.720   3.212  0.00  0.00    +0.167 A 
ATOM     27  C   UNL     1       3.037   1.396   3.143  0.00  0.00    +0.064 A 
ATOM     28  O   UNL     1       1.017   2.840   2.829  0.00  0.00    -0.453 OA
ATOM     29  C   UNL     1      -0.249   2.773   3.512  0.00  0.00    +0.466 C 
ATOM     30  O   UNL     1      -0.460   1.362   3.705  0.00  0.00    -0.453 OA
ENDBRANCH  20  22
ENDBRANCH  19  20
ENDBRANCH  18  19
ENDBRANCH   2  18
TORSDOF 7
