REMARK  Name = ZINC04823118
REMARK  14 active torsions:
REMARK  status: ('A' for Active; 'I' for Inactive)
REMARK    1  A    between atoms: C_3  and  S_15
REMARK    2  A    between atoms: C_6  and  N_7
REMARK    3  A    between atoms: N_7  and  C_8
REMARK    4  A    between atoms: C_8  and  N_10
REMARK    5  A    between atoms: N_10  and  C_11
REMARK    6  A    between atoms: C_11  and  C_12
REMARK    7  A    between atoms: C_12  and  C_13
REMARK    8  A    between atoms: S_15  and  C_18
REMARK    9  A    between atoms: C_21  and  N_24
REMARK   10  A    between atoms: N_24  and  C_25
REMARK   11  A    between atoms: C_25  and  N_27
REMARK   12  A    between atoms: N_27  and  C_28
REMARK   13  A    between atoms: C_28  and  C_29
REMARK   14  A    between atoms: C_29  and  C_30
REMARK                            x       y       z     vdW  Elec       q    Type
REMARK                         _______ _______ _______ _____ _____    ______ ____
ROOT
ATOM      1  S   UNL     1      -4.453   4.991  -0.071  0.00  0.00    +0.025 S 
ATOM      2  O   UNL     1      -4.624   6.202  -0.794  0.00  0.00    -0.164 OA
ATOM      3  O   UNL     1      -5.231   3.831  -0.332  0.00  0.00    -0.164 OA
ENDROOT
BRANCH   1   6
ATOM      4  C   UNL     1      -0.490   5.112  -0.717  0.00  0.00    +0.025 A 
ATOM      5  C   UNL     1      -1.814   5.477  -0.567  0.00  0.00    +0.029 A 
ATOM      6  C   UNL     1      -2.767   4.521  -0.268  0.00  0.00    +0.094 A 
ATOM      7  C   UNL     1      -2.398   3.196  -0.122  0.00  0.00    +0.029 A 
ATOM      8  C   UNL     1      -1.077   2.824  -0.277  0.00  0.00    +0.025 A 
ATOM      9  C   UNL     1      -0.118   3.782  -0.578  0.00  0.00    +0.033 A 
BRANCH   9  10
ATOM     10  N   UNL     1       1.221   3.408  -0.734  0.00  0.00    -0.297 N 
ATOM     11  H   UNL     1       1.922   3.928  -0.310  0.00  0.00    +0.154 HD
BRANCH  10  12
ATOM     12  C   UNL     1       1.536   2.323  -1.468  0.00  0.00    +0.135 C 
ATOM     13  S   UNL     1       0.296   1.344  -2.125  0.00  0.00    -0.019 S 
BRANCH  12  14
ATOM     14  N   UNL     1       2.829   2.009  -1.685  0.00  0.00    -0.326 N 
ATOM     15  H   UNL     1       3.532   2.564  -1.312  0.00  0.00    +0.148 HD
BRANCH  14  16
ATOM     16  C   UNL     1       3.172   0.829  -2.483  0.00  0.00    +0.114 C 
BRANCH  16  17
ATOM     17  C   UNL     1       4.694   0.701  -2.575  0.00  0.00    +0.144 C 
BRANCH  17  18
ATOM     18  C   UNL     1       5.047  -0.512  -3.396  0.00  0.00    +0.357 C 
ATOM     19  O   UNL     1       4.171  -1.204  -3.860  0.00  0.00    -0.246 OA
ATOM     20  O   UNL     1       6.334  -0.825  -3.612  0.00  0.00    -0.246 OA
ENDBRANCH  17  18
ENDBRANCH  16  17
ENDBRANCH  14  16
ENDBRANCH  12  14
ENDBRANCH  10  12
ENDBRANCH   9  10
ENDBRANCH   1   6
BRANCH   1  21
ATOM     21  C   UNL     1      -4.690   5.383   1.631  0.00  0.00    +0.094 A 
ATOM     22  C   UNL     1      -5.080   4.396   2.518  0.00  0.00    +0.029 A 
ATOM     23  C   UNL     1      -5.261   4.699   3.853  0.00  0.00    +0.025 A 
ATOM     24  C   UNL     1      -5.062   5.998   4.303  0.00  0.00    +0.033 A 
ATOM     25  C   UNL     1      -4.675   6.987   3.408  0.00  0.00    +0.025 A 
ATOM     26  C   UNL     1      -4.490   6.677   2.075  0.00  0.00    +0.029 A 
BRANCH  24  27
ATOM     27  N   UNL     1      -5.250   6.309   5.654  0.00  0.00    -0.297 N 
ATOM     28  H   UNL     1      -4.884   5.729   6.340  0.00  0.00    +0.154 HD
BRANCH  27  29
ATOM     29  C   UNL     1      -5.939   7.414   6.001  0.00  0.00    +0.135 C 
ATOM     30  S   UNL     1      -6.491   8.494   4.793  0.00  0.00    -0.019 S 
BRANCH  29  31
ATOM     31  N   UNL     1      -6.193   7.669   7.300  0.00  0.00    -0.326 N 
ATOM     32  H   UNL     1      -5.880   7.057   7.985  0.00  0.00    +0.148 HD
BRANCH  31  33
ATOM     33  C   UNL     1      -6.942   8.870   7.678  0.00  0.00    +0.114 C 
BRANCH  33  34
ATOM     34  C   UNL     1      -7.091   8.920   9.200  0.00  0.00    +0.144 C 
BRANCH  34  35
ATOM     35  C   UNL     1      -7.861  10.155   9.589  0.00  0.00    +0.357 C 
ATOM     36  O   UNL     1      -8.251  10.918   8.736  0.00  0.00    -0.246 OA
ATOM     37  O   UNL     1      -8.114  10.409  10.882  0.00  0.00    -0.246 OA
ENDBRANCH  34  35
ENDBRANCH  33  34
ENDBRANCH  31  33
ENDBRANCH  29  31
ENDBRANCH  27  29
ENDBRANCH  24  27
ENDBRANCH   1  21
TORSDOF 14
