REMARK  Name = ZINC23541315
REMARK  8 active torsions:
REMARK  status: ('A' for Active; 'I' for Inactive)
REMARK    1  A    between atoms: C_1  and  C_2
REMARK    2  A    between atoms: C_5  and  N_9
REMARK    3  A    between atoms: C_7  and  C_8
REMARK    4  A    between atoms: C_19  and  S_20
REMARK    5  A    between atoms: S_20  and  C_21
REMARK    6  A    between atoms: C_21  and  C_22
REMARK    7  A    between atoms: C_28  and  C_34
REMARK    8  A    between atoms: C_29  and  C_33
REMARK                            x       y       z     vdW  Elec       q    Type
REMARK                         _______ _______ _______ _____ _____    ______ ____
ROOT
ATOM      1  N   UNL     1       0.059  -4.171  -0.021  0.00  0.00    -0.255 N 
ATOM      2  C   UNL     1       0.171  -4.848   1.146  0.00  0.00    +0.267 A 
ATOM      3  O   UNL     1       0.256  -4.261   2.209  0.00  0.00    -0.267 OA
ATOM      4  C   UNL     1       0.184  -6.315   1.082  0.00  0.00    +0.065 A 
ATOM      5  C   UNL     1       0.295  -7.101   2.228  0.00  0.00    +0.015 A 
ATOM      6  C   UNL     1       0.302  -8.464   2.113  0.00  0.00    +0.001 A 
ATOM      7  C   UNL     1       0.201  -9.071   0.868  0.00  0.00    +0.002 A 
ATOM      8  C   UNL     1       0.091  -8.325  -0.272  0.00  0.00    +0.028 A 
ATOM      9  C   UNL     1       0.081  -6.930  -0.187  0.00  0.00    +0.079 A 
ATOM     10  N   UNL     1      -0.027  -6.152  -1.290  0.00  0.00    -0.223 NA
ATOM     11  C   UNL     1      -0.042  -4.845  -1.207  0.00  0.00    +0.177 A 
ENDROOT
BRANCH   1  16
ATOM     12  C   UNL     1      -0.016   1.503   0.012  0.00  0.00    +0.044 C 
ATOM     13  C   UNL     1       0.004  -0.004   0.003  0.00  0.00    -0.047 A 
ATOM     14  C   UNL     1      -1.181  -0.711   0.108  0.00  0.00    +0.005 A 
ATOM     15  C   UNL     1      -1.166  -2.091   0.100  0.00  0.00    +0.026 A 
ATOM     16  C   UNL     1       0.040  -2.771  -0.013  0.00  0.00    +0.052 A 
ATOM     17  C   UNL     1       1.227  -2.059  -0.118  0.00  0.00    +0.030 A 
ATOM     18  C   UNL     1       1.205  -0.677  -0.115  0.00  0.00    -0.046 A 
ATOM     19  C   UNL     1       2.493   0.096  -0.234  0.00  0.00    +0.044 C 
ENDBRANCH   1  16
BRANCH  11  20
ATOM     20  S   UNL     1      -0.193  -3.911  -2.693  0.00  0.00    -0.079 S 
BRANCH  20  21
ATOM     21  C   UNL     1      -0.296  -5.170  -3.995  0.00  0.00    +0.151 C 
BRANCH  21  22
ATOM     22  C   UNL     1      -0.430  -4.497  -5.336  0.00  0.00    +0.121 A 
ATOM     23  N   UNL     1      -0.529  -5.257  -6.457  0.00  0.00    -0.310 N 
ATOM     24  H   UNL     1      -0.513  -6.224  -6.379  0.00  0.00    +0.170 HD
ATOM     25  C   UNL     1      -0.651  -4.696  -7.675  0.00  0.00    +0.260 A 
ATOM     26  O   UNL     1      -0.739  -5.393  -8.671  0.00  0.00    -0.267 OA
ATOM     27  C   UNL     1      -0.674  -3.267  -7.781  0.00  0.00    +0.075 A 
ATOM     28  C   UNL     1      -0.795  -2.434  -8.963  0.00  0.00    -0.026 A 
ATOM     29  C   UNL     1      -0.795  -1.099  -8.826  0.00  0.00    -0.008 A 
ATOM     30  S   UNL     1      -0.630  -0.864  -7.066  0.00  0.00    -0.073 S 
ATOM     31  C   UNL     1      -0.565  -2.566  -6.567  0.00  0.00    +0.116 A 
ATOM     32  N   UNL     1      -0.454  -3.193  -5.400  0.00  0.00    -0.226 NA
ATOM     33  C   UNL     1      -0.908  -0.049  -9.902  0.00  0.00    +0.052 C 
ATOM     34  C   UNL     1      -0.919  -3.061 -10.328  0.00  0.00    +0.045 C 
ENDBRANCH  21  22
ENDBRANCH  20  21
ENDBRANCH  11  20
TORSDOF 4
