REMARK  Name = ZINC12600822
REMARK  15 active torsions:
REMARK  status: ('A' for Active; 'I' for Inactive)
REMARK    1  A    between atoms: C_1  and  C_2
REMARK    2  A    between atoms: C_2  and  C_3
REMARK    3  A    between atoms: C_3  and  C_5
REMARK    4  A    between atoms: C_3  and  N_67
REMARK    5  A    between atoms: C_8  and  S_17
REMARK    6  A    between atoms: N_9  and  C_10
REMARK    7  A    between atoms: C_10  and  C_11
REMARK    8  A    between atoms: S_17  and  C_18
REMARK    9  A    between atoms: C_18  and  C_19
REMARK   10  A    between atoms: C_19  and  C_21
REMARK   11  A    between atoms: C_23  and  C_33
REMARK   12  A    between atoms: C_25  and  C_26
REMARK   13  A    between atoms: C_29  and  C_32
REMARK   14  A    between atoms: C_34  and  N_67
REMARK   15  A    between atoms: C_35  and  N_67
REMARK                            x       y       z     vdW  Elec       q    Type
REMARK                         _______ _______ _______ _____ _____    ______ ____
ROOT
ATOM      1  C   UNL     1      -3.911   2.285   2.037  0.00  0.00    +0.121 A 
ATOM      2  N   UNL     1      -4.121   1.637   3.148  0.00  0.00    -0.135 NA
ATOM      3  N   UNL     1      -3.236   0.717   3.296  0.00  0.00    -0.123 NA
ATOM      4  C   UNL     1      -2.410   0.724   2.276  0.00  0.00    +0.192 A 
ATOM      5  N   UNL     1      -2.812   1.728   1.443  0.00  0.00    -0.303 N 
ENDROOT
BRANCH   1   6
ATOM      6  C   UNL     1      -4.728   3.434   1.505  0.00  0.00    +0.000 C 
BRANCH   6   9
ATOM      7  C   UNL     1      -6.301   1.959   0.404  0.00  0.00    -0.096 C 
ATOM      8  C   UNL     1      -6.663   2.614   2.707  0.00  0.00    -0.096 C 
ATOM      9  N   UNL     1      -6.150   3.049   1.391  0.00  0.00    +0.383 N 
ATOM     10  H   UNL     1      -6.691   3.863   1.074  0.00  0.00    -0.082 HD
ENDBRANCH   6   9
BRANCH   6  12
ATOM     11  C   UNL     1      -5.389   5.813   1.885  0.00  0.00    +0.002 C 
ATOM     12  C   UNL     1      -4.612   4.626   2.457  0.00  0.00    -0.011 C 
ENDBRANCH   6  12
ENDBRANCH   1   6
BRANCH   5  13
ATOM     13  C   UNL     1      -2.197   2.124   0.173  0.00  0.00    +0.160 C 
BRANCH  13  14
ATOM     14  C   UNL     1      -1.149   3.176   0.429  0.00  0.00    -0.028 A 
ATOM     15  C   UNL     1       0.159   2.803   0.680  0.00  0.00    +0.005 A 
ATOM     16  C   UNL     1       1.121   3.768   0.909  0.00  0.00    +0.000 A 
ATOM     17  C   UNL     1       0.775   5.107   0.892  0.00  0.00    +0.000 A 
ATOM     18  C   UNL     1      -0.533   5.479   0.647  0.00  0.00    +0.000 A 
ATOM     19  C   UNL     1      -1.495   4.514   0.418  0.00  0.00    +0.005 A 
ENDBRANCH  13  14
ENDBRANCH   5  13
BRANCH   4  20
ATOM     20  S   UNL     1      -1.040  -0.356   2.030  0.00  0.00    -0.078 S 
BRANCH  20  21
ATOM     21  C   UNL     1      -1.168  -1.372   3.523  0.00  0.00    +0.157 C 
BRANCH  21  22
ATOM     22  C   UNL     1      -0.064  -2.397   3.529  0.00  0.00    +0.175 C 
ATOM     23  O   UNL     1       0.732  -2.438   2.614  0.00  0.00    -0.291 OA
BRANCH  22  24
ATOM     24  C   UNL     1       0.049  -3.345   4.639  0.00  0.00    +0.039 A 
ATOM     25  C   UNL     1      -0.820  -3.431   5.822  0.00  0.00    +0.034 A 
ATOM     26  C   UNL     1      -0.348  -4.443   6.568  0.00  0.00    +0.023 A 
ATOM     27  N   UNL     1       0.746  -4.984   5.949  0.00  0.00    -0.299 N 
ATOM     28  C   UNL     1       0.997  -4.339   4.793  0.00  0.00    +0.033 A 
ATOM     29  C   UNL     1       2.118  -4.647   3.833  0.00  0.00    +0.064 C 
ATOM     30  C   UNL     1       1.496  -6.055   6.446  0.00  0.00    +0.181 A 
ATOM     31  C   UNL     1       1.990  -6.208   7.768  0.00  0.00    +0.094 A 
ATOM     32  C   UNL     1       2.641  -7.394   7.738  0.00  0.00    +0.136 A 
ATOM     33  O   UNL     1       2.518  -7.866   6.489  0.00  0.00    -0.358 OA
ATOM     34  N   UNL     1       1.878  -7.117   5.788  0.00  0.00    -0.060 NA
ATOM     35  C   UNL     1       3.363  -8.054   8.884  0.00  0.00    +0.089 C 
ATOM     36  C   UNL     1      -0.926  -4.904   7.881  0.00  0.00    +0.064 C 
ENDBRANCH  22  24
ENDBRANCH  21  22
ENDBRANCH  20  21
ENDBRANCH   4  20
TORSDOF 9
