REMARK  Name = ZINC35815636
REMARK  11 active torsions:
REMARK  status: ('A' for Active; 'I' for Inactive)
REMARK    1  A    between atoms: C_1  and  C_2
REMARK    2  A    between atoms: C_5  and  C_8
REMARK    3  A    between atoms: C_8  and  N_9
REMARK    4  A    between atoms: N_9  and  C_10
REMARK    5  A    between atoms: N_9  and  C_25
REMARK    6  A    between atoms: C_10  and  C_11
REMARK    7  A    between atoms: C_11  and  C_12
REMARK    8  A    between atoms: C_12  and  C_13
REMARK    9  A    between atoms: C_12  and  C_19
REMARK   10  A    between atoms: C_25  and  C_26
REMARK   11  A    between atoms: C_28  and  C_31
REMARK                            x       y       z     vdW  Elec       q    Type
REMARK                         _______ _______ _______ _____ _____    ______ ____
ROOT
ATOM      1  N   UNL     1       0.512  -5.564   0.649  0.00  0.00    +0.386 N 
ATOM      2  H   UNL     1       0.562  -4.700   0.130  0.00  0.00    -0.081 HD
ENDROOT
BRANCH   1   3
ATOM      3  C   UNL     1      -0.863  -5.772   1.121  0.00  0.00    -0.042 C 
BRANCH   3   8
ATOM      4  C   UNL     1      -2.583  -1.165   4.155  0.00  0.00    +0.044 C 
ATOM      5  C   UNL     1      -2.135  -2.367   3.363  0.00  0.00    -0.050 A 
ATOM      6  C   UNL     1      -2.213  -2.354   1.983  0.00  0.00    +0.003 A 
ATOM      7  C   UNL     1      -1.802  -3.456   1.258  0.00  0.00    +0.002 A 
ATOM      8  C   UNL     1      -1.311  -4.571   1.912  0.00  0.00    -0.064 A 
ATOM      9  C   UNL     1      -1.232  -4.583   3.292  0.00  0.00    +0.002 A 
ATOM     10  C   UNL     1      -1.639  -3.479   4.017  0.00  0.00    +0.003 A 
ENDBRANCH   3   8
ENDBRANCH   1   3
BRANCH   1  11
ATOM     11  C   UNL     1       0.907  -6.680  -0.220  0.00  0.00    -0.077 C 
BRANCH  11  12
ATOM     12  C   UNL     1       0.041  -6.675  -1.482  0.00  0.00    -0.006 C 
BRANCH  12  13
ATOM     13  C   UNL     1       0.452  -7.838  -2.387  0.00  0.00    +0.047 C 
BRANCH  13  14
ATOM     14  C   UNL     1      -0.479  -7.908  -3.570  0.00  0.00    -0.040 A 
ATOM     15  C   UNL     1      -1.116  -9.095  -3.879  0.00  0.00    +0.004 A 
ATOM     16  C   UNL     1      -1.970  -9.159  -4.964  0.00  0.00    +0.000 A 
ATOM     17  C   UNL     1      -2.188  -8.035  -5.739  0.00  0.00    +0.000 A 
ATOM     18  C   UNL     1      -1.552  -6.848  -5.429  0.00  0.00    +0.000 A 
ATOM     19  C   UNL     1      -0.701  -6.783  -4.342  0.00  0.00    +0.004 A 
ENDBRANCH  13  14
BRANCH  13  20
ATOM     20  C   UNL     1       1.863  -7.624  -2.871  0.00  0.00    -0.040 A 
ATOM     21  C   UNL     1       2.194  -6.463  -3.544  0.00  0.00    +0.004 A 
ATOM     22  C   UNL     1       3.488  -6.266  -3.988  0.00  0.00    +0.000 A 
ATOM     23  C   UNL     1       4.452  -7.230  -3.758  0.00  0.00    +0.000 A 
ATOM     24  C   UNL     1       4.121  -8.391  -3.084  0.00  0.00    +0.000 A 
ATOM     25  C   UNL     1       2.828  -8.586  -2.636  0.00  0.00    +0.004 A 
ENDBRANCH  13  20
ENDBRANCH  12  13
ENDBRANCH  11  12
ENDBRANCH   1  11
BRANCH   1  26
ATOM     26  C   UNL     1       1.420  -5.496   1.802  0.00  0.00    -0.014 C 
BRANCH  26  27
ATOM     27  C   UNL     1       2.804  -5.129   1.330  0.00  0.00    +0.063 A 
ATOM     28  N   UNL     1       3.295  -3.938   1.125  0.00  0.00    -0.241 NA
ATOM     29  C   UNL     1       4.560  -3.837   0.703  0.00  0.00    +0.133 A 
ATOM     30  C   UNL     1       5.231  -5.016   0.524  0.00  0.00    +0.079 A 
ATOM     31  S   UNL     1       4.076  -6.158   0.954  0.00  0.00    -0.082 S 
BRANCH  29  32
ATOM     32  C   UNL     1       5.194  -2.532   0.446  0.00  0.00    +0.265 C 
ATOM     33  O   UNL     1       6.290  -2.482  -0.079  0.00  0.00    -0.268 OA
ATOM     34  N   UNL     1       4.559  -1.395   0.791  0.00  0.00    -0.296 N 
ATOM     35  C   UNL     1       3.315  -1.439   1.572  0.00  0.00    +0.108 C 
ATOM     36  C   UNL     1       3.477  -0.550   2.808  0.00  0.00    +0.019 C 
ATOM     37  C   UNL     1       3.894   0.856   2.370  0.00  0.00    +0.003 C 
ATOM     38  C   UNL     1       5.240   0.788   1.645  0.00  0.00    +0.019 C 
ATOM     39  C   UNL     1       5.101  -0.086   0.400  0.00  0.00    +0.108 C 
ENDBRANCH  29  32
ENDBRANCH  26  27
ENDBRANCH   1  26
TORSDOF 10
