REMARK  Name = ZINC09764997
REMARK  8 active torsions:
REMARK  status: ('A' for Active; 'I' for Inactive)
REMARK    1  A    between atoms: C_1  and  C_2
REMARK    2  A    between atoms: C_5  and  C_9
REMARK    3  A    between atoms: C_6  and  C_8
REMARK    4  A    between atoms: C_9  and  N_11
REMARK    5  A    between atoms: N_13  and  C_23
REMARK    6  A    between atoms: C_23  and  C_24
REMARK    7  A    between atoms: C_24  and  O_25
REMARK    8  A    between atoms: O_25  and  C_26
REMARK                            x       y       z     vdW  Elec       q    Type
REMARK                         _______ _______ _______ _____ _____    ______ ____
ROOT
ATOM      1  N   UNL     1      -4.410   3.950   4.303  0.00  0.00    -0.152 NA
ATOM      2  C   UNL     1      -5.097   4.557   5.264  0.00  0.00    +0.167 A 
ATOM      3  N   UNL     1      -6.409   4.914   5.266  0.00  0.00    -0.318 N 
ATOM      4  C   UNL     1      -6.955   5.544   6.369  0.00  0.00    +0.078 A 
ATOM      5  C   UNL     1      -6.059   5.764   7.426  0.00  0.00    +0.040 A 
ATOM      6  S   UNL     1      -4.538   5.079   6.821  0.00  0.00    -0.052 S 
ATOM      7  C   UNL     1      -6.436   6.377   8.598  0.00  0.00    +0.019 A 
ATOM      8  C   UNL     1      -7.744   6.801   8.758  0.00  0.00    +0.022 A 
ATOM      9  C   UNL     1      -8.651   6.598   7.731  0.00  0.00    +0.061 A 
ATOM     10  C   UNL     1      -8.275   5.984   6.558  0.00  0.00    +0.084 A 
ATOM     11 CL   UNL     1      -9.445   5.751   5.297  0.00  0.00    -0.080 Cl
ATOM     12 CL   UNL     1     -10.293   7.129   7.927  0.00  0.00    -0.082 Cl
ENDROOT
BRANCH   1  13
ATOM     13  C   UNL     1      -3.113   3.675   4.479  0.00  0.00    +0.270 C 
ATOM     14  O   UNL     1      -2.562   3.982   5.522  0.00  0.00    -0.268 OA
BRANCH  13  19
ATOM     15  C   UNL     1      -0.134   1.045   0.313  0.00  0.00    +0.044 C 
ATOM     16  C   UNL     1      -0.914   1.733   1.404  0.00  0.00    -0.050 A 
ATOM     17  C   UNL     1      -2.218   2.134   1.171  0.00  0.00    +0.004 A 
ATOM     18  C   UNL     1      -2.939   2.760   2.167  0.00  0.00    +0.013 A 
ATOM     19  C   UNL     1      -2.347   2.998   3.407  0.00  0.00    +0.042 A 
ATOM     20  C   UNL     1      -1.031   2.596   3.634  0.00  0.00    -0.038 A 
ATOM     21  C   UNL     1      -0.322   1.966   2.632  0.00  0.00    +0.007 A 
ATOM     22  C   UNL     1      -0.384   2.850   4.971  0.00  0.00    +0.044 C 
ENDBRANCH  13  19
ENDBRANCH   1  13
BRANCH   3  23
ATOM     23  C   UNL     1      -7.247   4.630   4.098  0.00  0.00    +0.152 C 
BRANCH  23  24
ATOM     24  C   UNL     1      -8.021   3.331   4.329  0.00  0.00    +0.181 C 
BRANCH  24  25
ATOM     25  O   UNL     1      -8.838   3.054   3.189  0.00  0.00    -0.381 OA
ATOM     26  C   UNL     1      -9.607   1.856   3.303  0.00  0.00    +0.194 C 
ENDBRANCH  24  25
ENDBRANCH  23  24
ENDBRANCH   3  23
TORSDOF 5
