REMARK  Name = ZINC40919865
REMARK  12 active torsions:
REMARK  status: ('A' for Active; 'I' for Inactive)
REMARK    1  A    between atoms: C_1  and  C_2
REMARK    2  A    between atoms: C_2  and  O_3
REMARK    3  A    between atoms: O_3  and  C_4
REMARK    4  A    between atoms: C_6  and  C_19
REMARK    5  A    between atoms: C_9  and  O_10
REMARK    6  A    between atoms: O_10  and  C_11
REMARK    7  A    between atoms: C_11  and  C_12
REMARK    8  A    between atoms: C_21  and  C_30
REMARK    9  A    between atoms: C_22  and  C_29
REMARK   10  A    between atoms: C_30  and  O_32
REMARK   11  A    between atoms: O_32  and  C_33
REMARK   12  A    between atoms: C_33  and  C_34
REMARK                            x       y       z     vdW  Elec       q    Type
REMARK                         _______ _______ _______ _____ _____    ______ ____
ROOT
ATOM      1  C   UNL     1      -0.166  -4.977  -0.638  0.00  0.00    +0.181 C 
ATOM      2  C   UNL     1      -1.286  -5.827  -0.097  0.00  0.00    +0.082 C 
ATOM      3  C   UNL     1      -1.136  -7.122   0.221  0.00  0.00    +0.020 C 
ATOM      4  N   UNL     1       0.058  -7.782   0.065  0.00  0.00    -0.286 N 
ATOM      5  C   UNL     1       1.046  -7.146  -0.673  0.00  0.00    +0.240 A 
ATOM      6  N   UNL     1       0.953  -5.833  -1.014  0.00  0.00    -0.201 N 
ATOM      7  N   UNL     1       2.105  -5.553  -1.746  0.00  0.00    -0.042 NA
ATOM      8  N   UNL     1       2.786  -6.653  -1.793  0.00  0.00    -0.021 NA
ATOM      9  N   UNL     1       2.167  -7.592  -1.161  0.00  0.00    -0.092 NA
ATOM     10  C   UNL     1      -2.319  -7.879   0.768  0.00  0.00    +0.061 C 
ATOM     11  H   UNL     1       0.205  -8.657   0.455  0.00  0.00    +0.155 HD
ENDROOT
BRANCH   1  14
ATOM     12  C   UNL     1       0.614  -1.744   1.153  0.00  0.00    +0.162 A 
ATOM     13  C   UNL     1       0.203  -2.642   0.181  0.00  0.00    +0.055 A 
ATOM     14  C   UNL     1       0.280  -4.002   0.420  0.00  0.00    -0.015 A 
ATOM     15  C   UNL     1       0.766  -4.468   1.628  0.00  0.00    +0.010 A 
ATOM     16  C   UNL     1       1.176  -3.577   2.602  0.00  0.00    +0.050 A 
ATOM     17  C   UNL     1       1.107  -2.213   2.366  0.00  0.00    +0.162 A 
BRANCH  12  18
ATOM     18  O   UNL     1       0.539  -0.406   0.919  0.00  0.00    -0.489 OA
BRANCH  18  20
ATOM     19  C   UNL     1       0.014   1.531  -0.427  0.00  0.00    +0.048 C 
ATOM     20  C   UNL     1       0.022   0.003  -0.348  0.00  0.00    +0.226 C 
ENDBRANCH  18  20
ENDBRANCH  12  18
BRANCH  17  21
ATOM     21  O   UNL     1       1.517  -1.335   3.321  0.00  0.00    -0.484 OA
BRANCH  21  22
ATOM     22  C   UNL     1       2.012  -1.889   4.542  0.00  0.00    +0.267 C 
BRANCH  22  23
ATOM     23  C   UNL     1       2.415  -0.773   5.472  0.00  0.00    +0.025 A 
ATOM     24  C   UNL     1       2.267   0.543   5.077  0.00  0.00    +0.010 A 
ATOM     25  C   UNL     1       2.637   1.566   5.930  0.00  0.00    +0.001 A 
ATOM     26  C   UNL     1       3.154   1.274   7.179  0.00  0.00    +0.003 A 
ATOM     27  C   UNL     1       3.303  -0.041   7.575  0.00  0.00    +0.039 A 
ATOM     28  C   UNL     1       2.928  -1.067   6.724  0.00  0.00    +0.130 A 
ATOM     29  F   UNL     1       3.068  -2.353   7.112  0.00  0.00    -0.205 F 
ENDBRANCH  22  23
ENDBRANCH  21  22
ENDBRANCH  17  21
ENDBRANCH   1  14
BRANCH   2  30
ATOM     30  C   UNL     1      -2.555  -5.232   0.085  0.00  0.00    +0.339 C 
ATOM     31  O   UNL     1      -3.306  -5.100  -0.863  0.00  0.00    -0.245 OA
BRANCH  30  32
ATOM     32  O   UNL     1      -2.933  -4.811   1.310  0.00  0.00    -0.457 OA
BRANCH  32  33
ATOM     33  C   UNL     1      -4.229  -4.219   1.421  0.00  0.00    +0.268 C 
BRANCH  33  34
ATOM     34  C   UNL     1      -4.475  -3.812   2.851  0.00  0.00    -0.010 A 
ATOM     35  C   UNL     1      -5.055  -4.705   3.733  0.00  0.00    +0.007 A 
ATOM     36  C   UNL     1      -5.280  -4.332   5.045  0.00  0.00    +0.000 A 
ATOM     37  C   UNL     1      -4.925  -3.067   5.475  0.00  0.00    +0.000 A 
ATOM     38  C   UNL     1      -4.344  -2.175   4.593  0.00  0.00    +0.000 A 
ATOM     39  C   UNL     1      -4.115  -2.549   3.283  0.00  0.00    +0.007 A 
ENDBRANCH  33  34
ENDBRANCH  32  33
ENDBRANCH  30  32
ENDBRANCH   2  30
TORSDOF 10
