REMARK  Name = ZINC39228795
REMARK  6 active torsions:
REMARK  status: ('A' for Active; 'I' for Inactive)
REMARK    1  A    between atoms: C_1  and  C_2
REMARK    2  A    between atoms: C_5  and  N_8
REMARK    3  A    between atoms: C_11  and  C_14
REMARK    4  A    between atoms: C_14  and  N_15
REMARK    5  A    between atoms: C_28  and  C_30
REMARK    6  A    between atoms: C_37  and  C_39
REMARK                            x       y       z     vdW  Elec       q    Type
REMARK                         _______ _______ _______ _____ _____    ______ ____
ROOT
ATOM      1  N   UNL     1      -0.927  -9.068   2.762  0.00  0.00    -0.284 NA
ATOM      2  C   UNL     1      -1.719  -8.697   3.943  0.00  0.00    +0.090 C 
ATOM      3  C   UNL     1      -3.194  -9.044   3.700  0.00  0.00    +0.053 C 
ATOM      4  C   UNL     1      -3.260 -10.461   3.189  0.00  0.00    -0.016 A 
ATOM      5  C   UNL     1      -4.396 -11.353   3.105  0.00  0.00    +0.003 A 
ATOM      6  C   UNL     1      -5.744 -11.211   3.449  0.00  0.00    +0.010 A 
ATOM      7  C   UNL     1      -6.559 -12.293   3.225  0.00  0.00    +0.001 A 
ATOM      8  C   UNL     1      -6.081 -13.475   2.685  0.00  0.00    +0.002 A 
ATOM      9  C   UNL     1      -4.752 -13.644   2.336  0.00  0.00    +0.026 A 
ATOM     10  C   UNL     1      -3.901 -12.563   2.551  0.00  0.00    +0.047 A 
ATOM     11  N   UNL     1      -2.565 -12.391   2.326  0.00  0.00    -0.356 N 
ATOM     12  C   UNL     1      -2.189 -11.133   2.710  0.00  0.00    +0.042 A 
ATOM     13  H   UNL     1      -1.972 -13.061   1.951  0.00  0.00    +0.166 HD
ATOM     14  C   UNL     1      -0.806 -10.529   2.633  0.00  0.00    +0.137 C 
ENDROOT
BRANCH  14  15
ATOM     15  C   UNL     1       0.044 -11.067   3.755  0.00  0.00    +0.011 A 
ATOM     16  C   UNL     1      -0.553 -11.593   4.885  0.00  0.00    +0.008 A 
ATOM     17  C   UNL     1       0.227 -12.087   5.913  0.00  0.00    +0.000 A 
ATOM     18  C   UNL     1       1.606 -12.056   5.813  0.00  0.00    +0.003 A 
ATOM     19  C   UNL     1       2.205 -11.531   4.684  0.00  0.00    +0.039 A 
ATOM     20  C   UNL     1       1.425 -11.041   3.650  0.00  0.00    +0.128 A 
ATOM     21  F   UNL     1       2.010 -10.532   2.544  0.00  0.00    -0.205 F 
ENDBRANCH  14  15
BRANCH   1  22
ATOM     22  C   UNL     1       0.396  -8.431   2.793  0.00  0.00    +0.141 C 
BRANCH  22  26
ATOM     23  N   UNL     1      -0.132  -4.261   0.264  0.00  0.00    -0.219 N 
ATOM     24  C   UNL     1      -0.008  -5.038   1.411  0.00  0.00    +0.172 A 
ATOM     25  N   UNL     1       0.131  -6.343   1.504  0.00  0.00    -0.228 NA
ATOM     26  C   UNL     1       0.237  -6.936   2.678  0.00  0.00    +0.065 A 
ATOM     27  C   UNL     1       0.196  -6.142   3.776  0.00  0.00    +0.073 A 
ATOM     28  S   UNL     1       0.008  -4.536   3.018  0.00  0.00    -0.060 S 
ATOM     29  C   UNL     1      -0.207  -4.852  -0.945  0.00  0.00    +0.223 C 
ATOM     30  O   UNL     1      -0.243  -6.062  -1.028  0.00  0.00    -0.275 OA
ATOM     31  C   UNL     1      -0.246  -4.010  -2.195  0.00  0.00    +0.110 C 
BRANCH  23  36
ATOM     32  C   UNL     1      -0.323   1.395   0.672  0.00  0.00    +0.044 C 
ATOM     33  C   UNL     1      -0.272  -0.107   0.564  0.00  0.00    -0.050 A 
ATOM     34  C   UNL     1       0.910  -0.778   0.819  0.00  0.00    +0.005 A 
ATOM     35  C   UNL     1       0.959  -2.155   0.720  0.00  0.00    +0.024 A 
ATOM     36  C   UNL     1      -0.179  -2.865   0.365  0.00  0.00    +0.043 A 
ATOM     37  C   UNL     1      -1.365  -2.189   0.110  0.00  0.00    +0.024 A 
ATOM     38  C   UNL     1      -1.409  -0.812   0.215  0.00  0.00    +0.005 A 
ENDBRANCH  23  36
ENDBRANCH  22  26
ENDBRANCH   1  22
TORSDOF 4
