REMARK  Name = ZINC02725204
REMARK  11 active torsions:
REMARK  status: ('A' for Active; 'I' for Inactive)
REMARK    1  A    between atoms: C_1  and  C_2
REMARK    2  A    between atoms: C_2  and  C_3
REMARK    3  A    between atoms: C_2  and  N_4
REMARK    4  A    between atoms: C_10  and  N_16
REMARK    5  A    between atoms: C_11  and  C_12
REMARK    6  A    between atoms: N_14  and  C_15
REMARK    7  A    between atoms: C_17  and  C_19
REMARK    8  A    between atoms: C_22  and  S_25
REMARK    9  A    between atoms: S_25  and  N_28
REMARK   10  A    between atoms: N_28  and  C_29
REMARK   11  A    between atoms: N_28  and  C_30
REMARK                            x       y       z     vdW  Elec       q    Type
REMARK                         _______ _______ _______ _____ _____    ______ ____
ROOT
ATOM      1  N   UNL     1      -6.960  -0.725  -1.858  0.00  0.00    -0.275 N 
ATOM      2  C   UNL     1      -7.480   0.052  -2.829  0.00  0.00    +0.249 C 
ATOM      3  O   UNL     1      -6.766   0.827  -3.435  0.00  0.00    -0.270 OA
ATOM      4  H   UNL     1      -7.529  -1.343  -1.375  0.00  0.00    +0.156 HD
ENDROOT
BRANCH   1  11
ATOM      5  N   UNL     1      -0.905  -0.049  -0.196  0.00  0.00    +0.384 N 
ATOM      6  C   UNL     1      -1.109  -1.484   0.037  0.00  0.00    -0.073 C 
ATOM      7  C   UNL     1      -2.542  -1.744   0.517  0.00  0.00    +0.018 C 
ATOM      8  C   UNL     1      -3.492  -1.074  -0.466  0.00  0.00    -0.027 A 
ATOM      9  C   UNL     1      -3.033  -0.132  -1.320  0.00  0.00    -0.021 A 
ATOM     10  S   UNL     1      -4.453   0.354  -2.253  0.00  0.00    -0.079 S 
ATOM     11  C   UNL     1      -5.612  -0.639  -1.550  0.00  0.00    +0.085 A 
ATOM     12  C   UNL     1      -4.909  -1.353  -0.591  0.00  0.00    +0.068 A 
ATOM     13  C   UNL     1      -1.624   0.362  -1.416  0.00  0.00    -0.035 C 
ATOM     14  H   UNL     1      -1.257   0.473   0.593  0.00  0.00    -0.081 HD
BRANCH  12  15
ATOM     15  C   UNL     1      -5.571  -2.347   0.260  0.00  0.00    +0.246 C 
ATOM     16  O   UNL     1      -6.056  -2.011   1.325  0.00  0.00    -0.270 OA
ATOM     17  N   UNL     1      -5.642  -3.633  -0.137  0.00  0.00    -0.314 N 
ATOM     18  C   UNL     1      -6.304  -4.626   0.713  0.00  0.00    +0.128 C 
ATOM     19  H   UNL     1      -5.256  -3.901  -0.985  0.00  0.00    +0.149 HD
ENDBRANCH  12  15
BRANCH   5  21
ATOM     20  C   UNL     1       0.735   1.698  -0.700  0.00  0.00    -0.014 C 
ATOM     21  C   UNL     1       0.529   0.221  -0.360  0.00  0.00    -0.074 C 
ATOM     22  C   UNL     1       1.262  -0.109   0.942  0.00  0.00    -0.014 C 
ENDBRANCH   5  21
ENDBRANCH   1  11
BRANCH   2  23
ATOM     23  C   UNL     1      -8.918  -0.039  -3.158  0.00  0.00    +0.037 A 
ATOM     24  C   UNL     1      -9.741  -0.924  -2.460  0.00  0.00    +0.015 A 
ATOM     25  C   UNL     1     -11.083  -1.004  -2.771  0.00  0.00    +0.029 A 
ATOM     26  C   UNL     1     -11.613  -0.210  -3.772  0.00  0.00    +0.109 A 
ATOM     27  C   UNL     1     -10.802   0.669  -4.468  0.00  0.00    +0.029 A 
ATOM     28  C   UNL     1      -9.460   0.763  -4.163  0.00  0.00    +0.015 A 
BRANCH  26  29
ATOM     29  S   UNL     1     -13.327  -0.319  -4.164  0.00  0.00    +0.074 S 
ATOM     30  O   UNL     1     -13.467   0.131  -5.505  0.00  0.00    -0.150 OA
ATOM     31  O   UNL     1     -13.759  -1.606  -3.743  0.00  0.00    -0.150 OA
BRANCH  29  32
ATOM     32  N   UNL     1     -14.118   0.780  -3.211  0.00  0.00    -0.206 N 
ATOM     33  C   UNL     1     -14.402   2.123  -3.723  0.00  0.00    +0.157 C 
BRANCH  32  34
ATOM     34  C   UNL     1     -14.513   0.428  -1.918  0.00  0.00    +0.051 A 
ATOM     35  C   UNL     1     -14.021   1.128  -0.824  0.00  0.00    +0.025 A 
ATOM     36  C   UNL     1     -14.414   0.776   0.452  0.00  0.00    +0.002 A 
ATOM     37  C   UNL     1     -15.297  -0.271   0.642  0.00  0.00    +0.000 A 
ATOM     38  C   UNL     1     -15.789  -0.970  -0.446  0.00  0.00    +0.002 A 
ATOM     39  C   UNL     1     -15.404  -0.620  -1.725  0.00  0.00    +0.025 A 
ENDBRANCH  32  34
ENDBRANCH  29  32
ENDBRANCH  26  29
ENDBRANCH   2  23
TORSDOF 7
