REMARK  Name = ZINC12330751
REMARK  8 active torsions:
REMARK  status: ('A' for Active; 'I' for Inactive)
REMARK    1  A    between atoms: C_3  and  C_6
REMARK    2  A    between atoms: N_8  and  C_9
REMARK    3  A    between atoms: N_8  and  C_18
REMARK    4  A    between atoms: C_9  and  C_10
REMARK    5  A    between atoms: C_10  and  C_11
REMARK    6  A    between atoms: C_11  and  N_12
REMARK    7  A    between atoms: C_18  and  C_19
REMARK    8  A    between atoms: C_27  and  N_28
REMARK                            x       y       z     vdW  Elec       q    Type
REMARK                         _______ _______ _______ _____ _____    ______ ____
ROOT
ATOM      1  C   UNL     1      -1.141   1.212  -1.560  0.00  0.00    +0.008 A 
ATOM      2  C   UNL     1      -1.250  -0.115  -1.850  0.00  0.00    +0.018 A 
ATOM      3  C   UNL     1      -1.950  -0.488  -3.015  0.00  0.00    -0.001 A 
ATOM      4  C   UNL     1      -2.099  -1.835  -3.377  0.00  0.00    +0.014 A 
ATOM      5  C   UNL     1      -2.783  -2.165  -4.511  0.00  0.00    -0.043 A 
ATOM      6  C   UNL     1      -3.338  -1.174  -5.320  0.00  0.00    -0.042 A 
ATOM      7  C   UNL     1      -3.208   0.145  -4.995  0.00  0.00    +0.030 A 
ATOM      8  C   UNL     1      -2.511   0.520  -3.836  0.00  0.00    +0.048 A 
ATOM      9  C   UNL     1      -1.722   2.163  -2.410  0.00  0.00    +0.104 A 
ATOM     10  C   UNL     1      -4.035  -1.817  -6.502  0.00  0.00    +0.036 C 
ATOM     11  C   UNL     1      -3.476  -3.253  -6.570  0.00  0.00    +0.009 C 
ATOM     12  C   UNL     1      -3.076  -3.527  -5.105  0.00  0.00    +0.036 C 
ATOM     13  N   UNL     1      -2.401   1.862  -3.546  0.00  0.00    -0.343 N 
ATOM     14  H   UNL     1      -2.806   2.587  -4.149  0.00  0.00    +0.167 HD
ENDROOT
BRANCH   9  15
ATOM     15  N   UNL     1      -1.606   3.510  -2.100  0.00  0.00    -0.312 N 
ATOM     16  C   UNL     1      -2.901   4.194  -2.234  0.00  0.00    +0.134 C 
ATOM     17  C   UNL     1      -2.741   5.661  -1.826  0.00  0.00    +0.178 C 
ATOM     18  O   UNL     1      -1.722   6.266  -2.627  0.00  0.00    -0.377 OA
ATOM     19  C   UNL     1      -0.449   5.625  -2.519  0.00  0.00    +0.178 C 
ATOM     20  C   UNL     1      -0.585   4.158  -2.935  0.00  0.00    +0.134 C 
ENDBRANCH   9  15
BRANCH   1  21
ATOM     21  C   UNL     1      -0.402   1.656  -0.324  0.00  0.00    +0.146 C 
BRANCH  21  24
ATOM     22  C   UNL     1      -1.870   0.989   1.503  0.00  0.00    +0.254 C 
ATOM     23  O   UNL     1      -1.586  -0.172   1.270  0.00  0.00    -0.269 OA
ATOM     24  N   UNL     1      -1.365   1.973   0.733  0.00  0.00    -0.293 N 
BRANCH  22  27
ATOM     25  C   UNL     1      -4.235   1.039   4.434  0.00  0.00    +0.008 A 
ATOM     26  C   UNL     1      -3.470   0.462   3.451  0.00  0.00    +0.021 A 
ATOM     27  C   UNL     1      -2.760   1.315   2.621  0.00  0.00    +0.074 A 
ATOM     28  S   UNL     1      -3.218   2.916   3.263  0.00  0.00    -0.092 S 
ATOM     29  C   UNL     1      -4.269   2.393   4.539  0.00  0.00    +0.046 A 
ENDBRANCH  22  27
BRANCH  24  30
ATOM     30  C   UNL     1      -1.780   3.361   0.954  0.00  0.00    +0.110 C 
BRANCH  30  31
ATOM     31  C   UNL     1      -0.887   3.997   2.021  0.00  0.00    +0.038 C 
BRANCH  31  32
ATOM     32  C   UNL     1      -1.316   5.448   2.246  0.00  0.00    +0.109 C 
BRANCH  32  33
ATOM     33  N   UNL     1      -0.383   6.095   3.172  0.00  0.00    -0.301 N 
ATOM     34  C   UNL     1      -0.495   6.039   4.634  0.00  0.00    +0.108 C 
ATOM     35  C   UNL     1       0.894   6.459   5.169  0.00  0.00    +0.028 C 
ATOM     36  C   UNL     1       1.427   7.329   4.007  0.00  0.00    +0.097 C 
ATOM     37  C   UNL     1       0.682   6.821   2.791  0.00  0.00    +0.216 C 
ATOM     38  O   UNL     1       1.001   7.037   1.641  0.00  0.00    -0.276 OA
ENDBRANCH  32  33
ENDBRANCH  31  32
ENDBRANCH  30  31
ENDBRANCH  24  30
ENDBRANCH  21  24
ENDBRANCH   1  21
TORSDOF 8
