REMARK  Name = ZINC28703234
REMARK  8 active torsions:
REMARK  status: ('A' for Active; 'I' for Inactive)
REMARK    1  A    between atoms: C_2  and  C_3
REMARK    2  A    between atoms: C_3  and  O_4
REMARK    3  A    between atoms: O_4  and  C_5
REMARK    4  A    between atoms: C_8  and  C_11
REMARK    5  A    between atoms: C_12  and  C_26
REMARK    6  A    between atoms: C_17  and  N_20
REMARK    7  A    between atoms: N_20  and  C_21
REMARK    8  A    between atoms: N_32  and  C_33
REMARK                            x       y       z     vdW  Elec       q    Type
REMARK                         _______ _______ _______ _____ _____    ______ ____
ROOT
ATOM      1  C   UNL     1      -1.512   3.418   0.498  0.00  0.00    +0.074 A 
ATOM      2  C   UNL     1      -1.293   2.130   0.020  0.00  0.00    +0.097 A 
ATOM      3  N   UNL     1      -2.507   1.676  -0.448  0.00  0.00    -0.297 N 
ATOM      4  C   UNL     1      -2.885   0.498  -1.025  0.00  0.00    +0.093 A 
ATOM      5  C   UNL     1      -4.165   0.294  -1.405  0.00  0.00    +0.020 A 
ATOM      6  C   UNL     1      -5.128   1.295  -1.211  0.00  0.00    +0.028 A 
ATOM      7  C   UNL     1      -4.766   2.477  -0.627  0.00  0.00    +0.069 A 
ATOM      8  C   UNL     1      -3.419   2.674  -0.240  0.00  0.00    +0.138 A 
ATOM      9  N   UNL     1      -2.804   3.706   0.323  0.00  0.00    -0.337 N 
ATOM     10  H   UNL     1      -3.196   4.685   0.636  0.00  0.00    +0.167 HD
ENDROOT
BRANCH   2  11
ATOM     11  C   UNL     1      -0.017   1.400   0.010  0.00  0.00    +0.095 A 
ATOM     12  C   UNL     1       0.002  -0.004   0.002  0.00  0.00    +0.050 A 
ATOM     13  C   UNL     1       1.224  -0.644  -0.013  0.00  0.00    +0.116 A 
ATOM     14  N   UNL     1       2.336   0.078  -0.020  0.00  0.00    -0.223 NA
ATOM     15  C   UNL     1       2.292   1.403  -0.012  0.00  0.00    +0.216 A 
ATOM     16  N   UNL     1       1.144   2.061   0.002  0.00  0.00    -0.213 NA
ATOM     17  N   UNL     1       3.478   2.117  -0.019  0.00  0.00    -0.311 N 
ATOM     18  H   UNL     1       3.457   3.217  -0.013  0.00  0.00    +0.149 HD
BRANCH  17  19
ATOM     19  C   UNL     1       4.760   1.408  -0.035  0.00  0.00    +0.073 C 
ATOM     20  C   UNL     1       5.200   1.080   1.407  0.00  0.00    +0.022 C 
ATOM     21  C   UNL     1       6.738   1.268   1.386  0.00  0.00    +0.002 C 
ATOM     22  C   UNL     1       6.920   2.498   0.463  0.00  0.00    +0.002 C 
ATOM     23  C   UNL     1       5.853   2.309  -0.635  0.00  0.00    +0.022 C 
ENDBRANCH  17  19
ENDBRANCH   2  11
BRANCH   1  27
ATOM     24  C   UNL     1       1.414   5.980   2.216  0.00  0.00    +0.121 A 
ATOM     25  C   UNL     1       0.394   6.516   1.441  0.00  0.00    +0.046 A 
ATOM     26  C   UNL     1      -0.556   5.687   0.882  0.00  0.00    +0.013 A 
ATOM     27  C   UNL     1      -0.492   4.311   1.097  0.00  0.00    +0.001 A 
ATOM     28  C   UNL     1       0.530   3.777   1.881  0.00  0.00    +0.013 A 
ATOM     29  C   UNL     1       1.481   4.610   2.432  0.00  0.00    +0.046 A 
BRANCH  24  30
ATOM     30  O   UNL     1       2.349   6.799   2.766  0.00  0.00    -0.488 OA
BRANCH  30  31
ATOM     31  C   UNL     1       3.370   6.182   3.552  0.00  0.00    +0.256 C 
BRANCH  31  33
ATOM     32  C   UNL     1       4.693   7.213   5.327  0.00  0.00    +0.007 C 
ATOM     33  C   UNL     1       4.309   7.239   4.074  0.00  0.00    +0.006 C 
ENDBRANCH  31  33
ENDBRANCH  30  31
ENDBRANCH  24  30
ENDBRANCH   1  27
BRANCH   7  34
ATOM     34  N   UNL     1      -5.712   3.485  -0.428  0.00  0.00    -0.338 N 
ATOM     35  H   UNL     1      -5.412   4.438   0.031  0.00  0.00    +0.146 HD
BRANCH  34  36
ATOM     36  C   UNL     1      -7.104   3.273  -0.832  0.00  0.00    +0.070 C 
ATOM     37  C   UNL     1      -7.292   3.667  -2.312  0.00  0.00    +0.022 C 
ATOM     38  C   UNL     1      -8.698   4.315  -2.356  0.00  0.00    +0.002 C 
ATOM     39  C   UNL     1      -8.756   5.101  -1.022  0.00  0.00    +0.002 C 
ATOM     40  C   UNL     1      -8.035   4.184  -0.012  0.00  0.00    +0.022 C 
ENDBRANCH  34  36
ENDBRANCH   7  34
TORSDOF 8
