REMARK  Name = ZINC45773717
REMARK  9 active torsions:
REMARK  status: ('A' for Active; 'I' for Inactive)
REMARK    1  A    between atoms: C_1  and  C_2
REMARK    2  A    between atoms: C_2  and  C_4
REMARK    3  A    between atoms: C_2  and  O_15
REMARK    4  A    between atoms: N_6  and  C_7
REMARK    5  A    between atoms: C_12  and  C_13
REMARK    6  A    between atoms: O_15  and  C_16
REMARK    7  A    between atoms: C_16  and  C_18
REMARK    8  A    between atoms: C_21  and  N_23
REMARK    9  A    between atoms: C_24  and  C_26
REMARK                            x       y       z     vdW  Elec       q    Type
REMARK                         _______ _______ _______ _____ _____    ______ ____
ROOT
ATOM      1  C   UNL     1       2.002  -0.627  -1.095  0.00  0.00    +0.347 C 
ATOM      2  O   UNL     1       2.582  -0.397  -0.050  0.00  0.00    -0.244 OA
ENDROOT
BRANCH   1   3
ATOM      3  C   UNL     1       2.730  -1.080  -2.222  0.00  0.00    +0.098 A 
ATOM      4  C   UNL     1       4.092  -1.329  -2.341  0.00  0.00    +0.024 A 
ATOM      5  C   UNL     1       4.516  -1.765  -3.568  0.00  0.00    +0.032 A 
ATOM      6  C   UNL     1       3.587  -1.922  -4.571  0.00  0.00    +0.073 A 
ATOM      7  S   UNL     1       2.132  -1.486  -3.852  0.00  0.00    -0.067 S 
BRANCH   6   8
ATOM      8  N   UNL     1       3.801  -2.348  -5.874  0.00  0.00    -0.273 N 
ATOM      9  C   UNL     1       2.764  -2.444  -6.730  0.00  0.00    +0.284 C 
ATOM     10  O   UNL     1       1.641  -2.157  -6.361  0.00  0.00    -0.266 OA
ATOM     11  H   UNL     1       4.696  -2.576  -6.169  0.00  0.00    +0.156 HD
BRANCH   9  12
ATOM     12  C   UNL     1       2.990  -2.894  -8.107  0.00  0.00    +0.189 A 
ATOM     13  C   UNL     1       2.035  -3.030  -9.074  0.00  0.00    +0.054 A 
ATOM     14  C   UNL     1       2.692  -3.483 -10.229  0.00  0.00    +0.042 A 
ATOM     15  C   UNL     1       4.003  -3.602  -9.920  0.00  0.00    +0.196 A 
ATOM     16  O   UNL     1       4.179  -3.240  -8.643  0.00  0.00    -0.458 OA
ENDBRANCH   9  12
ENDBRANCH   6   8
ENDBRANCH   1   3
BRANCH   1  17
ATOM     17  O   UNL     1       0.667  -0.450  -1.180  0.00  0.00    -0.448 OA
BRANCH  17  19
ATOM     18  C   UNL     1      -0.035   1.539   0.000  0.00  0.00    +0.062 C 
ATOM     19  C   UNL     1      -0.003   0.009  -0.004  0.00  0.00    +0.259 C 
BRANCH  19  20
ATOM     20  C   UNL     1      -1.413  -0.523   0.012  0.00  0.00    +0.258 C 
ATOM     21  O   UNL     1      -1.834  -1.150  -0.937  0.00  0.00    -0.271 OA
ATOM     22  N   UNL     1      -2.204  -0.302   1.079  0.00  0.00    -0.281 N 
ATOM     23  H   UNL     1      -1.844   0.129   1.870  0.00  0.00    +0.155 HD
BRANCH  22  24
ATOM     24  C   UNL     1      -3.542  -0.692   1.048  0.00  0.00    +0.051 A 
ATOM     25  C   UNL     1      -4.203  -0.820  -0.166  0.00  0.00    +0.024 A 
ATOM     26  C   UNL     1      -5.528  -1.206  -0.196  0.00  0.00    +0.002 A 
ATOM     27  C   UNL     1      -6.208  -1.470   0.982  0.00  0.00    +0.001 A 
ATOM     28  C   UNL     1      -5.568  -1.349   2.197  0.00  0.00    +0.021 A 
ATOM     29  C   UNL     1      -4.226  -0.964   2.242  0.00  0.00    +0.073 A 
BRANCH  29  30
ATOM     30  C   UNL     1      -3.553  -0.842   3.501  0.00  0.00    +0.101 C 
ATOM     31  N   UNL     1      -3.020  -0.746   4.499  0.00  0.00    -0.191 NA
ENDBRANCH  29  30
ENDBRANCH  22  24
ENDBRANCH  19  20
ENDBRANCH  17  19
ENDBRANCH   1  17
TORSDOF 8
