REMARK  Name = ZINC39965699
REMARK  9 active torsions:
REMARK  status: ('A' for Active; 'I' for Inactive)
REMARK    1  A    between atoms: C_1  and  C_2
REMARK    2  A    between atoms: C_9  and  N_14
REMARK    3  A    between atoms: C_10  and  C_11
REMARK    4  A    between atoms: C_15  and  C_17
REMARK    5  A    between atoms: C_17  and  S_18
REMARK    6  A    between atoms: S_18  and  C_19
REMARK    7  A    between atoms: C_22  and  C_27
REMARK    8  A    between atoms: N_23  and  C_24
REMARK    9  A    between atoms: C_24  and  C_25
REMARK                            x       y       z     vdW  Elec       q    Type
REMARK                         _______ _______ _______ _____ _____    ______ ____
ROOT
ATOM      1  N   UNL     1       1.124  -6.324   1.794  0.00  0.00    -0.279 N 
ATOM      2  C   UNL     1       1.831  -6.458   2.933  0.00  0.00    +0.228 C 
ATOM      3  O   UNL     1       2.187  -5.474   3.546  0.00  0.00    -0.275 OA
ATOM      4  H   UNL     1       0.839  -7.111   1.304  0.00  0.00    +0.155 HD
ENDROOT
BRANCH   1  12
ATOM      5  C   UNL     1      -0.532   0.959  -0.434  0.00  0.00    +0.008 C 
ATOM      6  C   UNL     1      -0.673  -0.543  -0.179  0.00  0.00    -0.009 C 
ATOM      7  C   UNL     1      -0.484  -1.306  -1.493  0.00  0.00    +0.008 C 
ATOM      8  C   UNL     1      -0.864  -2.776  -1.301  0.00  0.00    +0.037 C 
ATOM      9  C   UNL     1      -0.110  -3.321  -0.097  0.00  0.00    -0.023 A 
ATOM     10  C   UNL     1       0.438  -2.495   0.821  0.00  0.00    -0.004 A 
ATOM     11  S   UNL     1       1.192  -3.575   2.002  0.00  0.00    -0.077 S 
ATOM     12  C   UNL     1       0.804  -5.060   1.321  0.00  0.00    +0.084 A 
ATOM     13  C   UNL     1       0.091  -4.733   0.178  0.00  0.00    +0.068 A 
ATOM     14  C   UNL     1       0.400  -0.998   0.821  0.00  0.00    +0.046 C 
BRANCH  13  15
ATOM     15  C   UNL     1      -0.438  -5.768  -0.715  0.00  0.00    +0.244 C 
ATOM     16  O   UNL     1       0.239  -6.179  -1.639  0.00  0.00    -0.270 OA
ATOM     17  N   UNL     1      -1.674  -6.266  -0.512  0.00  0.00    -0.325 N 
ATOM     18  H   UNL     1      -2.213  -5.939   0.225  0.00  0.00    +0.145 HD
ATOM     19  H   UNL     1      -2.024  -6.951  -1.102  0.00  0.00    +0.145 HD
ENDBRANCH  13  15
ENDBRANCH   1  12
BRANCH   2  20
ATOM     20  C   UNL     1       2.178  -7.832   3.447  0.00  0.00    +0.173 C 
BRANCH  20  21
ATOM     21  S   UNL     1       3.126  -7.680   4.986  0.00  0.00    -0.077 S 
BRANCH  21  22
ATOM     22  C   UNL     1       3.451  -9.348   5.453  0.00  0.00    +0.193 A 
ATOM     23  N   UNL     1       3.079 -10.426   4.801  0.00  0.00    -0.122 NA
ATOM     24  N   UNL     1       3.483 -11.478   5.420  0.00  0.00    -0.128 NA
ATOM     25  C   UNL     1       4.137 -11.135   6.505  0.00  0.00    +0.165 A 
ATOM     26  N   UNL     1       4.142  -9.761   6.557  0.00  0.00    -0.298 N 
BRANCH  25  27
ATOM     27  C   UNL     1       4.757 -12.054   7.484  0.00  0.00    +0.023 A 
ATOM     28  C   UNL     1       4.796 -11.712   8.836  0.00  0.00    +0.015 A 
ATOM     29  C   UNL     1       5.374 -12.570   9.748  0.00  0.00    +0.050 A 
ATOM     30  C   UNL     1       5.918 -13.774   9.326  0.00  0.00    +0.166 A 
ATOM     31  C   UNL     1       5.882 -14.121   7.976  0.00  0.00    +0.167 A 
ATOM     32  C   UNL     1       5.299 -13.267   7.058  0.00  0.00    +0.061 A 
ATOM     33  O   UNL     1       6.477 -15.341   7.824  0.00  0.00    -0.453 OA
ATOM     34  C   UNL     1       7.239 -15.550   9.027  0.00  0.00    +0.466 C 
ATOM     35  O   UNL     1       6.535 -14.777  10.017  0.00  0.00    -0.453 OA
ENDBRANCH  25  27
BRANCH  26  36
ATOM     36  C   UNL     1       4.757  -8.915   7.583  0.00  0.00    +0.152 C 
BRANCH  36  37
ATOM     37  C   UNL     1       3.717  -8.522   8.600  0.00  0.00    -0.013 C 
ATOM     38  C   UNL     1       3.934  -8.734   9.874  0.00  0.00    +0.005 C 
ENDBRANCH  36  37
ENDBRANCH  26  36
ENDBRANCH  21  22
ENDBRANCH  20  21
ENDBRANCH   2  20
TORSDOF 8
