REMARK  Name = ZINC16291146
REMARK  9 active torsions:
REMARK  status: ('A' for Active; 'I' for Inactive)
REMARK    1  A    between atoms: C_1  and  C_2
REMARK    2  A    between atoms: C_5  and  C_28
REMARK    3  A    between atoms: C_6  and  O_8
REMARK    4  A    between atoms: O_8  and  C_9
REMARK    5  A    between atoms: C_9  and  C_10
REMARK    6  A    between atoms: N_20  and  N_21
REMARK    7  A    between atoms: C_22  and  C_24
REMARK    8  A    between atoms: C_28  and  C_29
REMARK    9  A    between atoms: C_28  and  C_30
REMARK                            x       y       z     vdW  Elec       q    Type
REMARK                         _______ _______ _______ _____ _____    ______ ____
ROOT
ATOM      1  C   UNL     1      -1.976   1.718  -1.119  0.00  0.00    +0.168 A 
ATOM      2  N   UNL     1      -3.117   2.332  -1.191  0.00  0.00    -0.228 NA
ATOM      3  C   UNL     1      -3.656   2.959  -0.115  0.00  0.00    +0.078 A 
ATOM      4  C   UNL     1      -4.884   3.619  -0.191  0.00  0.00    +0.028 A 
ATOM      5  C   UNL     1      -5.394   4.242   0.926  0.00  0.00    +0.002 A 
ATOM      6  C   UNL     1      -4.702   4.222   2.130  0.00  0.00    +0.001 A 
ATOM      7  C   UNL     1      -3.488   3.577   2.230  0.00  0.00    +0.015 A 
ATOM      8  C   UNL     1      -2.955   2.941   1.111  0.00  0.00    +0.066 A 
ATOM      9  C   UNL     1      -1.668   2.232   1.159  0.00  0.00    +0.279 A 
ATOM     10  O   UNL     1      -1.016   2.174   2.186  0.00  0.00    -0.265 OA
ATOM     11  N   UNL     1      -1.234   1.650   0.017  0.00  0.00    -0.206 N 
ENDROOT
BRANCH  11  12
ATOM     12  N   UNL     1      -0.011   0.966   0.007  0.00  0.00    -0.215 N 
ATOM     13  C   UNL     1       1.147   1.655   0.000  0.00  0.00    +0.282 C 
ATOM     14  O   UNL     1       1.130   2.868   0.007  0.00  0.00    -0.269 OA
ATOM     15  H   UNL     1       0.002  -0.004   0.002  0.00  0.00    +0.176 HD
BRANCH  13  16
ATOM     16  C   UNL     1       2.462   0.920  -0.017  0.00  0.00    +0.268 C 
ATOM     17 CL   UNL     1       3.816   2.110  -0.023  0.00  0.00    -0.074 Cl
ATOM     18 CL   UNL     1       2.586  -0.123   1.449  0.00  0.00    -0.074 Cl
ATOM     19 CL   UNL     1       2.558  -0.107  -1.495  0.00  0.00    -0.074 Cl
ENDBRANCH  13  16
ENDBRANCH  11  12
BRANCH   1  20
ATOM     20  C   UNL     1      -1.446   1.047  -2.360  0.00  0.00    +0.305 C 
BRANCH  20  21
ATOM     21  O   UNL     1      -2.370   1.235  -3.434  0.00  0.00    -0.484 OA
BRANCH  21  27
ATOM     22  C   UNL     1       0.769  -1.335  -6.148  0.00  0.00    +0.044 C 
ATOM     23  C   UNL     1      -0.520  -0.571  -5.995  0.00  0.00    -0.047 A 
ATOM     24  C   UNL     1      -1.370  -0.427  -7.076  0.00  0.00    +0.004 A 
ATOM     25  C   UNL     1      -2.554   0.274  -6.939  0.00  0.00    +0.008 A 
ATOM     26  C   UNL     1      -2.894   0.827  -5.719  0.00  0.00    -0.003 A 
ATOM     27  C   UNL     1      -2.040   0.688  -4.634  0.00  0.00    +0.125 A 
ATOM     28  C   UNL     1      -0.853  -0.016  -4.774  0.00  0.00    +0.049 A 
BRANCH  26  29
ATOM     29  C   UNL     1      -4.187   1.585  -5.568  0.00  0.00    +0.016 C 
ATOM     30  C   UNL     1      -4.198   2.772  -6.533  0.00  0.00    +0.012 C 
ATOM     31  C   UNL     1      -5.362   0.658  -5.888  0.00  0.00    +0.012 C 
ENDBRANCH  26  29
ENDBRANCH  21  27
ENDBRANCH  20  21
ENDBRANCH   1  20
TORSDOF 6
