REMARK  Name = ZINC39777014
REMARK  5 active torsions:
REMARK  status: ('A' for Active; 'I' for Inactive)
REMARK    1  A    between atoms: C_7  and  C_10
REMARK    2  A    between atoms: C_13  and  S_19
REMARK    3  A    between atoms: N_15  and  C_16
REMARK    4  A    between atoms: S_19  and  C_20
REMARK    5  A    between atoms: C_20  and  C_21
REMARK                            x       y       z     vdW  Elec       q    Type
REMARK                         _______ _______ _______ _____ _____    ______ ____
ROOT
ATOM      1  C   UNL     1       0.845  -3.393   0.073  0.00  0.00    +0.147 C 
ATOM      2  N   UNL     1      -0.420  -3.135   0.272  0.00  0.00    -0.169 NA
ATOM      3  N   UNL     1      -1.210  -4.271   0.063  0.00  0.00    -0.237 N 
ATOM      4  C   UNL     1      -0.290  -5.357  -0.312  0.00  0.00    +0.237 C 
ATOM      5  N   UNL     1       1.040  -4.727  -0.296  0.00  0.00    -0.282 N 
ATOM      6  H   UNL     1      -2.175  -4.331   0.149  0.00  0.00    +0.171 HD
ENDROOT
BRANCH   1  13
ATOM      7  C   UNL     1       0.851   0.914   1.498  0.00  0.00    +0.001 A 
ATOM      8  C   UNL     1       2.114   1.508   1.476  0.00  0.00    +0.002 A 
ATOM      9  C   UNL     1       3.215   0.833   1.062  0.00  0.00    +0.026 A 
ATOM     10  C   UNL     1       3.097  -0.515   0.636  0.00  0.00    +0.043 A 
ATOM     11  N   UNL     1       3.997  -1.372   0.197  0.00  0.00    -0.380 N 
ATOM     12  C   UNL     1       3.342  -2.647  -0.112  0.00  0.00    +0.152 C 
ATOM     13  C   UNL     1       1.876  -2.451   0.207  0.00  0.00    +0.022 C 
ATOM     14  C   UNL     1       1.763  -1.136   0.662  0.00  0.00    +0.006 A 
ATOM     15  C   UNL     1       0.663  -0.372   1.105  0.00  0.00    +0.010 A 
ATOM     16  H   UNL     1       4.944  -1.189   0.093  0.00  0.00    +0.160 HD
ENDBRANCH   1  13
BRANCH   5  17
ATOM     17  C   UNL     1       2.319  -5.372  -0.605  0.00  0.00    +0.078 C 
ATOM     18  C   UNL     1       2.280  -6.827  -1.077  0.00  0.00    +0.024 C 
ATOM     19  C   UNL     1       2.787  -6.492   0.327  0.00  0.00    +0.024 C 
ENDBRANCH   5  17
BRANCH   4  20
ATOM     20  S   UNL     1      -0.377  -6.708   0.895  0.00  0.00    -0.109 S 
BRANCH  20  21
ATOM     21  C   UNL     1       0.064  -5.920   2.468  0.00  0.00    +0.168 C 
BRANCH  21  22
ATOM     22  C   UNL     1       0.029  -6.947   3.571  0.00  0.00    +0.226 C 
ATOM     23  O   UNL     1      -0.264  -8.097   3.320  0.00  0.00    -0.275 OA
ATOM     24  N   UNL     1       0.325  -6.587   4.836  0.00  0.00    -0.298 N 
ATOM     25  C   UNL     1       0.675  -5.196   5.155  0.00  0.00    +0.126 C 
ATOM     26  C   UNL     1      -0.265  -4.694   6.258  0.00  0.00    +0.125 C 
ATOM     27  N   UNL     1      -0.289  -5.686   7.342  0.00  0.00    -0.314 N 
ATOM     28  C   UNL     1      -0.640  -7.076   7.023  0.00  0.00    +0.125 C 
ATOM     29  C   UNL     1       0.295  -7.577   5.921  0.00  0.00    +0.126 C 
ATOM     30  C   UNL     1       0.015  -5.314   8.647  0.00  0.00    +0.099 A 
ATOM     31  C   UNL     1       0.206  -3.971   8.954  0.00  0.00    +0.042 A 
ATOM     32  C   UNL     1       0.509  -3.616  10.257  0.00  0.00    +0.005 A 
ATOM     33  C   UNL     1       0.610  -4.620  11.211  0.00  0.00    +0.018 A 
ATOM     34  C   UNL     1       0.407  -5.932  10.835  0.00  0.00    +0.084 A 
ATOM     35  N   UNL     1       0.115  -6.242   9.586  0.00  0.00    -0.350 N 
ATOM     36  H   UNL     1      -0.027  -7.172   9.350  0.00  0.00    +0.166 HD
ENDBRANCH  21  22
ENDBRANCH  20  21
ENDBRANCH   4  20
TORSDOF 5
