REMARK  Name = ZINC39262030
REMARK  8 active torsions:
REMARK  status: ('A' for Active; 'I' for Inactive)
REMARK    1  A    between atoms: C_7  and  C_19
REMARK    2  A    between atoms: N_9  and  C_10
REMARK    3  A    between atoms: C_10  and  C_11
REMARK    4  A    between atoms: C_11  and  N_12
REMARK    5  A    between atoms: C_19  and  C_20
REMARK    6  A    between atoms: C_20  and  N_21
REMARK    7  A    between atoms: C_22  and  C_24
REMARK    8  A    between atoms: C_24  and  C_25
REMARK                            x       y       z     vdW  Elec       q    Type
REMARK                         _______ _______ _______ _____ _____    ______ ____
ROOT
ATOM      1  C   UNL     1      -0.042   1.415   0.186  0.00  0.00    +0.001 A 
ATOM      2  C   UNL     1       1.139   2.143   0.215  0.00  0.00    +0.002 A 
ATOM      3  C   UNL     1       2.359   1.508   0.142  0.00  0.00    +0.026 A 
ATOM      4  C   UNL     1       2.410   0.121   0.038  0.00  0.00    +0.049 A 
ATOM      5  C   UNL     1       1.211  -0.613   0.008  0.00  0.00    +0.003 A 
ATOM      6  C   UNL     1      -0.015   0.053   0.083  0.00  0.00    +0.010 A 
ATOM      7  C   UNL     1       1.600  -2.020  -0.105  0.00  0.00    -0.021 A 
ATOM      8  C   UNL     1       2.941  -2.055  -0.136  0.00  0.00    +0.090 A 
ATOM      9  N   UNL     1       3.443  -0.785  -0.052  0.00  0.00    -0.348 N 
ENDROOT
BRANCH   9  10
ATOM     10  C   UNL     1       4.867  -0.441  -0.056  0.00  0.00    +0.103 C 
BRANCH  10  11
ATOM     11  C   UNL     1       5.363  -0.307   1.386  0.00  0.00    -0.057 C 
BRANCH  11  12
ATOM     12  N   UNL     1       6.816  -0.090   1.385  0.00  0.00    +0.381 N 
ATOM     13  C   UNL     1       7.312  -0.202   2.771  0.00  0.00    -0.079 C 
ATOM     14  C   UNL     1       8.770  -0.584   2.722  0.00  0.00    -0.019 C 
ATOM     15  C   UNL     1       9.681   0.653   2.835  0.00  0.00    -0.002 C 
ATOM     16  C   UNL     1       9.137   1.841   2.016  0.00  0.00    -0.002 C 
ATOM     17  C   UNL     1       8.598   1.414   0.674  0.00  0.00    -0.019 C 
ATOM     18  C   UNL     1       7.084   1.149   0.800  0.00  0.00    -0.079 C 
ATOM     19  H   UNL     1       7.250  -0.811   0.828  0.00  0.00    -0.082 HD
ENDBRANCH  11  12
ENDBRANCH  10  11
ENDBRANCH   9  10
BRANCH   7  20
ATOM     20  C   UNL     1       0.670  -3.204  -0.173  0.00  0.00    +0.056 C 
BRANCH  20  21
ATOM     21  C   UNL     1       0.226  -3.421  -1.621  0.00  0.00    +0.109 C 
BRANCH  21  22
ATOM     22  N   UNL     1      -0.678  -4.572  -1.688  0.00  0.00    -0.315 N 
ATOM     23  C   UNL     1      -1.198  -4.953  -2.871  0.00  0.00    +0.215 C 
ATOM     24  O   UNL     1      -0.919  -4.343  -3.881  0.00  0.00    -0.276 OA
ATOM     25  H   UNL     1      -0.901  -5.061  -0.880  0.00  0.00    +0.149 HD
BRANCH  23  26
ATOM     26  C   UNL     1      -2.128  -6.137  -2.940  0.00  0.00    +0.127 C 
BRANCH  26  27
ATOM     27  C   UNL     1      -2.572  -6.354  -4.388  0.00  0.00    +0.169 C 
ATOM     28  C   UNL     1      -3.481  -7.563  -4.491  0.00  0.00    +0.241 C 
ATOM     29  O   UNL     1      -3.205  -8.712  -4.219  0.00  0.00    -0.273 OA
ATOM     30  N   UNL     1      -4.659  -7.095  -4.948  0.00  0.00    -0.239 N 
ATOM     31  C   UNL     1      -4.621  -5.772  -5.146  0.00  0.00    +0.307 C 
ATOM     32  O   UNL     1      -5.564  -5.123  -5.555  0.00  0.00    -0.252 OA
ATOM     33  N   UNL     1      -3.420  -5.239  -4.842  0.00  0.00    -0.287 N 
ATOM     34  H   UNL     1      -5.438  -7.648  -5.114  0.00  0.00    +0.159 HD
ATOM     35  H   UNL     1      -3.164  -4.306  -4.908  0.00  0.00    +0.151 HD
ENDBRANCH  26  27
ENDBRANCH  23  26
ENDBRANCH  21  22
ENDBRANCH  20  21
ENDBRANCH   7  20
TORSDOF 8
