REMARK  Name = ZINC13548172
REMARK  14 active torsions:
REMARK  status: ('A' for Active; 'I' for Inactive)
REMARK    1  A    between atoms: CD1_1  and  CG_2
REMARK    2  A    between atoms: CG_2  and  CD2_3
REMARK    3  A    between atoms: CG_2  and  CB_4
REMARK    4  A    between atoms: CB_4  and  CA_5
REMARK    5  A    between atoms: CA_5  and  C_7
REMARK    6  A    between atoms: CA_5  and  N_17
REMARK    7  A    between atoms: N_9  and  CA_10
REMARK    8  A    between atoms: CA_10  and  CB_12
REMARK    9  A    between atoms: CA_10  and  C_15
REMARK   10  A    between atoms: CB_12  and  CG1_13
REMARK   11  A    between atoms: CB_12  and  CG2_14
REMARK   12  A    between atoms: C_18  and  C_20
REMARK   13  A    between atoms: C_20  and  N_21
REMARK   14  A    between atoms: C_31  and  O_32
REMARK                            x       y       z     vdW  Elec       q    Type
REMARK                         _______ _______ _______ _____ _____    ______ ____
ROOT
ATOM      1  N   VAL A   1      -0.991   0.457   4.723  0.00  0.00    -0.303 N 
ATOM      2  C   UNK A   0      -1.851   0.361   5.756  0.00  0.00    +0.234 C 
ATOM      3  O   UNK A   0      -2.865   1.026   5.764  0.00  0.00    -0.274 OA
ATOM      4  H   VAL A   1      -0.179  -0.075   4.717  0.00  0.00    +0.150 HD
ENDROOT
BRANCH   1   5
ATOM      5  CA  VAL A   1      -1.281   1.363   3.609  0.00  0.00    +0.159 C 
BRANCH   5   6
ATOM      6  C   VAL A   1      -0.575   0.877   2.369  0.00  0.00    +0.234 C 
ATOM      7  O   VAL A   1       0.103  -0.128   2.412  0.00  0.00    -0.274 OA
ATOM      8  N   VAL A   1      -0.698   1.558   1.213  0.00  0.00    -0.301 N 
ATOM      9  H   VAL A   1      -1.241   2.362   1.179  0.00  0.00    +0.150 HD
BRANCH   8  10
ATOM     10  CA  VAL A   1      -0.013   1.086   0.008  0.00  0.00    +0.189 C 
BRANCH  10  11
ATOM     11  CB  VAL A   1       1.423   1.615  -0.003  0.00  0.00    +0.014 C 
ATOM     12  CG1 VAL A   1       2.163   1.109   1.237  0.00  0.00    +0.009 C 
ATOM     13  CG2 VAL A   1       2.139   1.122  -1.262  0.00  0.00    +0.009 C 
ENDBRANCH  10  11
BRANCH  10  14
ATOM     14  C   VAL A   1      -0.742   1.585  -1.213  0.00  0.00    +0.376 C 
ATOM     15  O   VAL A   1      -1.732   2.266  -1.089  0.00  0.00    -0.244 OA
ATOM     16  OXT VAL A   1      -0.290   1.274  -2.438  0.00  0.00    -0.244 OA
ENDBRANCH  10  14
ENDBRANCH   8  10
ENDBRANCH   5   6
BRANCH   5  17
ATOM     17  CB  VAL A   1      -0.791   2.770   3.956  0.00  0.00    +0.034 C 
BRANCH  17  19
ATOM     18  CD1 VAL A   1      -1.024   4.667   5.566  0.00  0.00    +0.007 C 
ATOM     19  CG  VAL A   1      -1.595   3.313   5.139  0.00  0.00    -0.015 C 
ATOM     20  CD2 VAL A   1      -3.058   3.483   4.726  0.00  0.00    +0.007 C 
ENDBRANCH  17  19
ENDBRANCH   5  17
ENDBRANCH   1   5
BRANCH   2  21
ATOM     21  C   UNK A   0      -1.552  -0.571   6.902  0.00  0.00    +0.225 C 
BRANCH  21  22
ATOM     22  N   UNK A   0      -2.632  -0.492   7.890  0.00  0.00    -0.254 N 
ATOM     23  C   UNK A   0      -3.696  -1.321   7.787  0.00  0.00    +0.265 A 
ATOM     24  O   UNK A   0      -3.778  -2.136   6.886  0.00  0.00    -0.267 OA
ATOM     25  C   UNK A   0      -4.750  -1.201   8.804  0.00  0.00    +0.065 A 
ATOM     26  C   UNK A   0      -5.887  -2.008   8.787  0.00  0.00    +0.015 A 
ATOM     27  C   UNK A   0      -6.837  -1.854   9.759  0.00  0.00    +0.001 A 
ATOM     28  C   UNK A   0      -6.680  -0.903  10.759  0.00  0.00    +0.002 A 
ATOM     29  C   UNK A   0      -5.576  -0.100  10.799  0.00  0.00    +0.029 A 
ATOM     30  C   UNK A   0      -4.588  -0.233   9.820  0.00  0.00    +0.081 A 
ATOM     31  N   UNK A   0      -3.477   0.542   9.821  0.00  0.00    -0.196 NA
ATOM     32  C   UNK A   0      -2.552   0.411   8.907  0.00  0.00    +0.299 A 
BRANCH  32  33
ATOM     33  O   UNK A   0      -1.468   1.212   8.971  0.00  0.00    -0.479 OA
ATOM     34  H   UNK A   0      -1.477   1.828   9.717  0.00  0.00    +0.295 HD
ENDBRANCH  32  33
ENDBRANCH  21  22
ENDBRANCH   2  21
TORSDOF 10
