REMARK  Name = ZINC36159969
REMARK  14 active torsions:
REMARK  status: ('A' for Active; 'I' for Inactive)
REMARK    1  A    between atoms: C_1  and  C_2
REMARK    2  A    between atoms: C_7  and  O_8
REMARK    3  A    between atoms: O_8  and  C_9
REMARK    4  A    between atoms: C_9  and  C_10
REMARK    5  A    between atoms: C_10  and  C_12
REMARK    6  A    between atoms: C_10  and  O_34
REMARK    7  A    between atoms: C_12  and  N_13
REMARK    8  A    between atoms: N_13  and  C_14
REMARK    9  A    between atoms: N_13  and  C_19
REMARK   10  A    between atoms: C_14  and  C_15
REMARK   11  A    between atoms: C_15  and  C_16
REMARK   12  A    between atoms: C_16  and  C_17
REMARK   13  A    between atoms: C_16  and  C_18
REMARK   14  A    between atoms: C_19  and  C_20
REMARK                            x       y       z     vdW  Elec       q    Type
REMARK                         _______ _______ _______ _____ _____    ______ ____
ROOT
ATOM      1  N   UNL     1      -0.049   0.183   6.864  0.00  0.00    +0.386 N 
ATOM      2  H   UNL     1       0.630   0.915   6.717  0.00  0.00    -0.081 HD
ENDROOT
BRANCH   1   3
ATOM      3  C   UNL     1       0.154  -0.879   5.869  0.00  0.00    -0.043 C 
BRANCH   3   4
ATOM      4  C   UNL     1       0.107  -0.277   4.463  0.00  0.00    +0.135 C 
BRANCH   4   5
ATOM      5  O   UNL     1       1.209   0.617   4.291  0.00  0.00    -0.390 OA
ATOM      6  H   UNL     1       2.075   0.198   4.394  0.00  0.00    +0.210 HD
ENDBRANCH   4   5
BRANCH   4   7
ATOM      7  C   UNL     1       0.193  -1.398   3.425  0.00  0.00    +0.258 C 
BRANCH   7   8
ATOM      8  O   UNL     1       0.033  -0.849   2.116  0.00  0.00    -0.489 OA
BRANCH   8  15
ATOM      9  C   UNL     1      -0.282   0.218  -0.480  0.00  0.00    +0.047 C 
ATOM     10  C   UNL     1      -0.064  -1.251  -0.226  0.00  0.00    -0.009 A 
ATOM     11  C   UNL     1      -0.005  -2.135  -1.287  0.00  0.00    +0.007 A 
ATOM     12  C   UNL     1       0.194  -3.483  -1.054  0.00  0.00    +0.000 A 
ATOM     13  C   UNL     1       0.336  -3.951   0.240  0.00  0.00    +0.004 A 
ATOM     14  C   UNL     1       0.279  -3.071   1.303  0.00  0.00    +0.046 A 
ATOM     15  C   UNL     1       0.084  -1.717   1.072  0.00  0.00    +0.124 A 
ENDBRANCH   8  15
ENDBRANCH   7   8
ENDBRANCH   4   7
ENDBRANCH   3   4
ENDBRANCH   1   3
BRANCH   1  16
ATOM     16  C   UNL     1      -1.403   0.735   6.722  0.00  0.00    -0.078 C 
BRANCH  16  17
ATOM     17  C   UNL     1      -1.570   1.925   7.669  0.00  0.00    -0.016 C 
BRANCH  17  18
ATOM     18  C   UNL     1      -2.933   2.578   7.431  0.00  0.00    -0.019 C 
ATOM     19  C   UNL     1      -3.153   3.688   8.460  0.00  0.00    +0.007 C 
ATOM     20  C   UNL     1      -2.973   3.174   6.022  0.00  0.00    +0.007 C 
ENDBRANCH  17  18
ENDBRANCH  16  17
ENDBRANCH   1  16
BRANCH   1  21
ATOM     21  C   UNL     1       0.115  -0.373   8.214  0.00  0.00    -0.003 C 
BRANCH  21  22
ATOM     22  C   UNL     1       1.550  -0.784   8.417  0.00  0.00    +0.094 A 
ATOM     23  N   UNL     1       1.901  -1.438   9.555  0.00  0.00    -0.312 N 
ATOM     24  H   UNL     1       1.222  -1.631  10.220  0.00  0.00    +0.170 HD
ATOM     25  C   UNL     1       3.171  -1.824   9.777  0.00  0.00    +0.260 A 
ATOM     26  O   UNL     1       3.472  -2.410  10.803  0.00  0.00    -0.267 OA
ATOM     27  C   UNL     1       4.164  -1.533   8.785  0.00  0.00    +0.075 A 
ATOM     28  C   UNL     1       5.598  -1.856   8.815  0.00  0.00    -0.023 A 
ATOM     29  C   UNL     1       6.329  -1.473   7.755  0.00  0.00    -0.004 A 
ATOM     30  S   UNL     1       5.174  -0.673   6.665  0.00  0.00    -0.073 S 
ATOM     31  C   UNL     1       3.708  -0.856   7.646  0.00  0.00    +0.116 A 
ATOM     32  N   UNL     1       2.432  -0.511   7.494  0.00  0.00    -0.229 NA
ATOM     33  C   UNL     1       7.779  -1.851   7.898  0.00  0.00    +0.043 C 
ATOM     34  C   UNL     1       7.954  -2.154   9.402  0.00  0.00    +0.010 C 
ATOM     35  C   UNL     1       6.525  -2.565   9.807  0.00  0.00    +0.037 C 
ENDBRANCH  21  22
ENDBRANCH   1  21
TORSDOF 11
