REMARK  Name = ZINC06162977
REMARK  9 active torsions:
REMARK  status: ('A' for Active; 'I' for Inactive)
REMARK    1  A    between atoms: C_1  and  C_2
REMARK    2  A    between atoms: C_5  and  C_33
REMARK    3  A    between atoms: C_6  and  O_8
REMARK    4  A    between atoms: O_8  and  C_9
REMARK    5  A    between atoms: C_15  and  O_32
REMARK    6  A    between atoms: C_16  and  C_24
REMARK    7  A    between atoms: C_19  and  C_20
REMARK    8  A    between atoms: C_24  and  N_59
REMARK    9  A    between atoms: C_28  and  C_31
REMARK                            x       y       z     vdW  Elec       q    Type
REMARK                         _______ _______ _______ _____ _____    ______ ____
ROOT
ATOM      1  C   UNL     1       1.277  -0.638  -0.013  0.00  0.00    +0.222 A 
ATOM      2  C   UNL     1       0.002  -0.004   0.002  0.00  0.00    +0.235 A 
ATOM      3  O   UNL     1      -1.030  -0.653   0.009  0.00  0.00    -0.283 OA
ATOM      4  C   UNL     1      -0.018   1.469   0.010  0.00  0.00    +0.068 A 
ATOM      5  C   UNL     1      -1.219   2.180   0.031  0.00  0.00    +0.019 A 
ATOM      6  C   UNL     1      -1.198   3.545   0.033  0.00  0.00    +0.046 A 
ATOM      7  C   UNL     1       0.016   4.231   0.025  0.00  0.00    +0.122 A 
ATOM      8  C   UNL     1       1.215   3.540   0.009  0.00  0.00    +0.020 A 
ATOM      9  C   UNL     1       1.211   2.152   0.002  0.00  0.00    +0.144 A 
ATOM     10  O   UNL     1       2.365   1.455  -0.013  0.00  0.00    -0.447 OA
ATOM     11  C   UNL     1       2.394   0.116  -0.020  0.00  0.00    +0.254 A 
ENDROOT
BRANCH  11  12
ATOM     12  C   UNL     1       3.733  -0.577  -0.037  0.00  0.00    +0.454 C 
ATOM     13  F   UNL     1       4.134  -0.784  -1.361  0.00  0.00    -0.163 F 
ATOM     14  F   UNL     1       4.678   0.220   0.618  0.00  0.00    -0.163 F 
ATOM     15  F   UNL     1       3.628  -1.809   0.617  0.00  0.00    -0.163 F 
ENDBRANCH  11  12
BRANCH   7  16
ATOM     16  O   UNL     1       0.021   5.588   0.032  0.00  0.00    -0.506 OA
ATOM     17  H   UNL     1       0.014   5.987  -0.849  0.00  0.00    +0.292 HD
ENDBRANCH   7  16
BRANCH   1  18
ATOM     18  O   UNL     1       1.367  -1.996  -0.022  0.00  0.00    -0.448 OA
BRANCH  18  24
ATOM     19  C   UNL     1       1.303  -1.727  -4.895  0.00  0.00    +0.044 C 
ATOM     20  C   UNL     1       1.369  -2.529  -3.621  0.00  0.00    -0.047 A 
ATOM     21  C   UNL     1       1.460  -3.908  -3.676  0.00  0.00    +0.004 A 
ATOM     22  C   UNL     1       1.520  -4.647  -2.510  0.00  0.00    +0.007 A 
ATOM     23  C   UNL     1       1.489  -4.009  -1.284  0.00  0.00    -0.008 A 
ATOM     24  C   UNL     1       1.398  -2.626  -1.226  0.00  0.00    +0.132 A 
ATOM     25  C   UNL     1       1.333  -1.887  -2.399  0.00  0.00    +0.050 A 
ATOM     26  C   UNL     1       1.553  -4.815  -0.013  0.00  0.00    +0.047 C 
ENDBRANCH  18  24
ENDBRANCH   1  18
BRANCH   8  27
ATOM     27  C   UNL     1       2.521   4.293   0.002  0.00  0.00    -0.036 C 
BRANCH  27  34
ATOM     28  C   UNL     1       3.243   3.288  -2.079  0.00  0.00    -0.078 C 
ATOM     29  C   UNL     1       3.526   3.574  -3.556  0.00  0.00    -0.018 C 
ATOM     30  C   UNL     1       4.705   4.544  -3.666  0.00  0.00    -0.001 C 
ATOM     31  C   UNL     1       4.376   5.826  -2.895  0.00  0.00    -0.031 C 
ATOM     32  C   UNL     1       4.069   5.474  -1.438  0.00  0.00    -0.075 C 
ATOM     33  C   UNL     1       5.572   6.778  -2.949  0.00  0.00    +0.005 C 
ATOM     34  N   UNL     1       2.909   4.557  -1.399  0.00  0.00    +0.383 N 
ATOM     35  H   UNL     1       2.120   4.998  -1.886  0.00  0.00    -0.081 HD
ENDBRANCH  27  34
ENDBRANCH   8  27
TORSDOF 6
