REMARK  Name = ZINC63600788
REMARK  4 active torsions:
REMARK  status: ('A' for Active; 'I' for Inactive)
REMARK    1  A    between atoms: C_4  and  C_7
REMARK    2  A    between atoms: N_9  and  C_10
REMARK    3  A    between atoms: C_16  and  N_20
REMARK    4  A    between atoms: C_21  and  C_23
REMARK                            x       y       z     vdW  Elec       q    Type
REMARK                         _______ _______ _______ _____ _____    ______ ____
ROOT
ATOM      1  C   UNL     1       5.197  -2.758  -0.149  0.00  0.00    +0.224 C 
ATOM      2  N   UNL     1       4.836  -4.167  -0.351  0.00  0.00    -0.316 N 
ATOM      3  C   UNL     1       5.211  -5.078   0.639  0.00  0.00    +0.043 A 
ATOM      4  C   UNL     1       4.953  -6.460   0.618  0.00  0.00    +0.026 A 
ATOM      5  C   UNL     1       5.364  -7.279   1.644  0.00  0.00    +0.025 A 
ATOM      6  C   UNL     1       6.049  -6.767   2.737  0.00  0.00    +0.035 A 
ATOM      7  C   UNL     1       6.317  -5.403   2.782  0.00  0.00    +0.040 A 
ATOM      8  C   UNL     1       5.903  -4.590   1.752  0.00  0.00    +0.034 A 
ATOM      9  S   UNL     1       6.063  -2.840   1.470  0.00  0.00    -0.082 S 
ATOM     10  H   UNL     1       4.354  -4.455  -1.142  0.00  0.00    +0.149 HD
ENDROOT
BRANCH   1  13
ATOM     11  C   UNL     1       4.120  -0.573  -0.116  0.00  0.00    +0.246 C 
ATOM     12  O   UNL     1       5.217  -0.062  -0.231  0.00  0.00    -0.270 OA
ATOM     13  N   UNL     1       4.003  -1.914  -0.065  0.00  0.00    -0.284 N 
ATOM     14  H   UNL     1       3.127  -2.321   0.027  0.00  0.00    +0.152 HD
BRANCH  11  18
ATOM     15  C   UNL     1       0.655   1.873   0.126  0.00  0.00    +0.000 A 
ATOM     16  C   UNL     1       1.903   2.457  -0.005  0.00  0.00    +0.001 A 
ATOM     17  C   UNL     1       3.032   1.668  -0.084  0.00  0.00    +0.013 A 
ATOM     18  C   UNL     1       2.914   0.279  -0.031  0.00  0.00    +0.037 A 
ATOM     19  C   UNL     1       1.653  -0.304   0.100  0.00  0.00    +0.013 A 
ATOM     20  C   UNL     1       0.531   0.496   0.178  0.00  0.00    +0.001 A 
ENDBRANCH  11  18
ENDBRANCH   1  13
BRANCH   6  21
ATOM     21  N   UNL     1       6.463  -7.609   3.777  0.00  0.00    -0.284 N 
ATOM     22  C   UNL     1       6.506  -7.147   5.043  0.00  0.00    +0.244 C 
ATOM     23  O   UNL     1       6.096  -6.034   5.296  0.00  0.00    -0.273 OA
ATOM     24  H   UNL     1       6.720  -8.525   3.587  0.00  0.00    +0.155 HD
BRANCH  22  25
ATOM     25  C   UNL     1       7.064  -8.013   6.143  0.00  0.00    +0.190 C 
ATOM     26  C   UNL     1       8.520  -8.320   5.877  0.00  0.00    +0.016 C 
ATOM     27  C   UNL     1       9.208  -7.808   6.923  0.00  0.00    -0.002 A 
ATOM     28  C   UNL     1      10.638  -7.777   7.253  0.00  0.00    +0.029 A 
ATOM     29  C   UNL     1      11.035  -7.176   8.398  0.00  0.00    +0.042 A 
ATOM     30  C   UNL     1      10.115  -6.583   9.276  0.00  0.00    +0.022 A 
ATOM     31  C   UNL     1       8.786  -6.571   9.040  0.00  0.00    +0.027 A 
ATOM     32  C   UNL     1       8.259  -7.175   7.865  0.00  0.00    +0.043 A 
ATOM     33  N   UNL     1       7.029  -7.292   7.420  0.00  0.00    -0.370 N 
ATOM     34 CL   UNL     1      12.725  -7.138   8.793  0.00  0.00    -0.084 Cl
ATOM     35  H   UNL     1       6.232  -6.959   7.861  0.00  0.00    +0.161 HD
ENDBRANCH  22  25
ENDBRANCH   6  21
TORSDOF 4
