REMARK  Name = ZINC64622901
REMARK  8 active torsions:
REMARK  status: ('A' for Active; 'I' for Inactive)
REMARK    1  A    between atoms: C_1  and  C_2
REMARK    2  A    between atoms: C_2  and  O_3
REMARK    3  A    between atoms: O_3  and  C_4
REMARK    4  A    between atoms: C_4  and  C_6
REMARK    5  A    between atoms: C_6  and  C_7
REMARK    6  A    between atoms: C_10  and  N_13
REMARK    7  A    between atoms: C_29  and  C_31
REMARK    8  A    between atoms: C_34  and  C_37
REMARK                            x       y       z     vdW  Elec       q    Type
REMARK                         _______ _______ _______ _____ _____    ______ ____
ROOT
ATOM      1  N   UNL     1      -0.696  -8.134   0.340  0.00  0.00    -0.269 N 
ATOM      2  C   UNL     1      -1.169  -8.821   1.399  0.00  0.00    +0.307 C 
ATOM      3  O   UNL     1      -1.313  -8.263   2.470  0.00  0.00    -0.252 OA
ATOM      4  N   UNL     1      -1.484 -10.125   1.271  0.00  0.00    -0.276 N 
ATOM      5  C   UNL     1      -1.190 -10.822   0.015  0.00  0.00    +0.114 C 
ATOM      6  C   UNL     1      -2.490 -11.412  -0.561  0.00  0.00    +0.052 C 
ATOM      7  C   UNL     1      -3.207 -12.079   0.587  0.00  0.00    -0.035 C 
ATOM      8  C   UNL     1      -3.705 -13.302   0.720  0.00  0.00    -0.001 A 
ATOM      9  C   UNL     1      -3.837 -14.415  -0.234  0.00  0.00    +0.010 A 
ATOM     10  C   UNL     1      -4.387 -15.559   0.251  0.00  0.00    +0.001 A 
ATOM     11  C   UNL     1      -4.814 -15.706   1.575  0.00  0.00    +0.002 A 
ATOM     12  C   UNL     1      -4.739 -14.733   2.517  0.00  0.00    +0.026 A 
ATOM     13  C   UNL     1      -4.185 -13.480   2.124  0.00  0.00    +0.043 A 
ATOM     14  N   UNL     1      -4.017 -12.384   2.804  0.00  0.00    -0.375 N 
ATOM     15  C   UNL     1      -3.471 -11.364   1.907  0.00  0.00    +0.131 C 
ATOM     16  C   UNL     1      -2.113 -10.836   2.395  0.00  0.00    +0.134 C 
ATOM     17  H   UNL     1      -0.656  -8.556  -0.532  0.00  0.00    +0.156 HD
ATOM     18  H   UNL     1      -4.218 -12.264   3.745  0.00  0.00    +0.160 HD
ENDROOT
BRANCH  16  19
ATOM     19  C   UNL     1      -2.315  -9.888   3.549  0.00  0.00    -0.025 A 
ATOM     20  C   UNL     1      -3.176  -8.815   3.419  0.00  0.00    +0.006 A 
ATOM     21  C   UNL     1      -3.362  -7.945   4.478  0.00  0.00    +0.004 A 
ATOM     22  C   UNL     1      -2.687  -8.150   5.667  0.00  0.00    -0.050 A 
ATOM     23  C   UNL     1      -1.827  -9.224   5.797  0.00  0.00    +0.004 A 
ATOM     24  C   UNL     1      -1.645 -10.096   4.740  0.00  0.00    +0.006 A 
ATOM     25  C   UNL     1      -2.889  -7.202   6.820  0.00  0.00    +0.044 C 
ENDBRANCH  16  19
BRANCH   1  29
ATOM     26  C   UNL     1       0.591  -4.200   0.813  0.00  0.00    -0.037 A 
ATOM     27  C   UNL     1       1.243  -5.038  -0.073  0.00  0.00    +0.006 A 
ATOM     28  C   UNL     1       0.819  -6.342  -0.232  0.00  0.00    +0.023 A 
ATOM     29  C   UNL     1      -0.264  -6.813   0.499  0.00  0.00    +0.035 A 
ATOM     30  C   UNL     1      -0.917  -5.969   1.388  0.00  0.00    +0.023 A 
ATOM     31  C   UNL     1      -0.484  -4.667   1.547  0.00  0.00    +0.006 A 
BRANCH  26  32
ATOM     32  C   UNL     1       1.056  -2.777   0.985  0.00  0.00    +0.155 C 
BRANCH  32  33
ATOM     33  C   UNL     1       2.096  -2.716   2.074  0.00  0.00    +0.311 C 
ATOM     34  O   UNL     1       2.425  -3.725   2.652  0.00  0.00    -0.250 OA
BRANCH  33  35
ATOM     35  O   UNL     1       2.656  -1.541   2.402  0.00  0.00    -0.465 OA
BRANCH  35  37
ATOM     36  C   UNL     1       4.156  -0.138   3.675  0.00  0.00    +0.048 C 
ATOM     37  C   UNL     1       3.634  -1.557   3.444  0.00  0.00    +0.229 C 
ENDBRANCH  35  37
ENDBRANCH  33  35
ENDBRANCH  32  33
ENDBRANCH  26  32
ENDBRANCH   1  29
TORSDOF 6
