REMARK  Name = ZINC38700426
REMARK  9 active torsions:
REMARK  status: ('A' for Active; 'I' for Inactive)
REMARK    1  A    between atoms: C_1  and  C_2
REMARK    2  A    between atoms: C_10  and  C_11
REMARK    3  A    between atoms: C_11  and  O_13
REMARK    4  A    between atoms: O_13  and  C_14
REMARK    5  A    between atoms: C_21  and  N_40
REMARK    6  A    between atoms: C_22  and  C_38
REMARK    7  A    between atoms: C_23  and  C_25
REMARK    8  A    between atoms: C_29  and  O_31
REMARK    9  A    between atoms: O_31  and  C_32
REMARK                            x       y       z     vdW  Elec       q    Type
REMARK                         _______ _______ _______ _____ _____    ______ ____
ROOT
ATOM      1  C   UNL     1       0.205  -0.552   4.424  0.00  0.00    +0.136 A 
ATOM      2  C   UNL     1       0.112   0.819   4.620  0.00  0.00    +0.047 A 
ATOM      3  C   UNL     1       0.033   1.330   5.900  0.00  0.00    +0.012 A 
ATOM      4  C   UNL     1       0.046   0.480   6.992  0.00  0.00    +0.008 A 
ATOM      5  C   UNL     1       0.139  -0.890   6.803  0.00  0.00    +0.138 A 
ATOM      6  C   UNL     1       0.213  -1.406   5.515  0.00  0.00    +0.093 A 
ATOM      7  O   UNL     1       0.153  -1.738   7.860  0.00  0.00    -0.441 OA
ATOM      8  C   UNL     1      -0.300  -1.327   9.056  0.00  0.00    +0.199 C 
ATOM      9  C   UNL     1      -0.417  -0.014   9.365  0.00  0.00    +0.098 C 
ATOM     10  C   UNL     1      -0.041   1.057   8.380  0.00  0.00    +0.098 C 
ENDROOT
BRANCH  10  11
ATOM     11  C   UNL     1       1.294   1.641   8.762  0.00  0.00    -0.031 A 
ATOM     12  C   UNL     1       2.417   0.834   8.798  0.00  0.00    +0.005 A 
ATOM     13  C   UNL     1       3.643   1.367   9.148  0.00  0.00    +0.004 A 
ATOM     14  C   UNL     1       3.751   2.708   9.463  0.00  0.00    +0.046 A 
ATOM     15  C   UNL     1       2.626   3.520   9.428  0.00  0.00    +0.129 A 
ATOM     16  C   UNL     1       1.397   2.984   9.071  0.00  0.00    +0.050 A 
BRANCH  15  17
ATOM     17  O   UNL     1       2.729   4.839   9.738  0.00  0.00    -0.456 OA
BRANCH  17  18
ATOM     18  C   UNL     1       1.585   5.568   9.814  0.00  0.00    +0.128 A 
ATOM     19  C   UNL     1       0.671   5.323  10.829  0.00  0.00    +0.046 A 
ATOM     20  C   UNL     1      -0.492   6.065  10.903  0.00  0.00    +0.004 A 
ATOM     21  C   UNL     1      -0.746   7.051   9.968  0.00  0.00    +0.000 A 
ATOM     22  C   UNL     1       0.164   7.297   8.955  0.00  0.00    +0.004 A 
ATOM     23  C   UNL     1       1.331   6.562   8.880  0.00  0.00    +0.046 A 
ENDBRANCH  17  18
ENDBRANCH  15  17
ENDBRANCH  10  11
BRANCH   8  24
ATOM     24  N   UNL     1      -0.657  -2.265   9.992  0.00  0.00    -0.328 N 
ATOM     25  H   UNL     1      -0.580  -3.210   9.786  0.00  0.00    +0.145 HD
ATOM     26  H   UNL     1      -0.986  -1.984  10.860  0.00  0.00    +0.145 HD
ENDBRANCH   8  24
BRANCH   9  27
ATOM     27  C   UNL     1      -0.907   0.362  10.657  0.00  0.00    +0.101 C 
ATOM     28  N   UNL     1      -1.296   0.660  11.682  0.00  0.00    -0.191 NA
ENDBRANCH   9  27
BRANCH   1  29
ATOM     29  O   UNL     1       0.283  -1.056   3.165  0.00  0.00    -0.420 OA
BRANCH  29  30
ATOM     30  C   UNL     1      -0.818  -1.637   2.646  0.00  0.00    +0.380 C 
ATOM     31  O   UNL     1      -1.812  -1.778   3.332  0.00  0.00    -0.241 OA
BRANCH  30  41
ATOM     32  C   UNL     1      -3.218  -3.001   1.214  0.00  0.00    +0.048 C 
ATOM     33  C   UNL     1      -1.865  -2.694   0.625  0.00  0.00    +0.010 A 
ATOM     34  C   UNL     1      -1.416  -2.971  -0.739  0.00  0.00    +0.024 A 
ATOM     35  C   UNL     1      -2.011  -3.555  -1.860  0.00  0.00    +0.012 A 
ATOM     36  C   UNL     1      -1.300  -3.671  -3.021  0.00  0.00    +0.001 A 
ATOM     37  C   UNL     1       0.009  -3.212  -3.093  0.00  0.00    +0.004 A 
ATOM     38  C   UNL     1       0.614  -2.634  -1.998  0.00  0.00    +0.047 A 
ATOM     39  C   UNL     1      -0.090  -2.505  -0.806  0.00  0.00    +0.136 A 
ATOM     40  O   UNL     1       0.225  -1.996   0.401  0.00  0.00    -0.448 OA
ATOM     41  C   UNL     1      -0.817  -2.098   1.252  0.00  0.00    +0.216 A 
ENDBRANCH  30  41
ENDBRANCH  29  30
ENDBRANCH   1  29
TORSDOF 8
