REMARK  Name = ZINC64775779
REMARK  8 active torsions:
REMARK  status: ('A' for Active; 'I' for Inactive)
REMARK    1  A    between atoms: C_1  and  C_2
REMARK    2  A    between atoms: C_5  and  C_8
REMARK    3  A    between atoms: C_8  and  N_9
REMARK    4  A    between atoms: C_24  and  C_27
REMARK    5  A    between atoms: N_29  and  C_30
REMARK    6  A    between atoms: C_30  and  C_31
REMARK    7  A    between atoms: C_31  and  C_32
REMARK    8  A    between atoms: C_37  and  C_38
REMARK                            x       y       z     vdW  Elec       q    Type
REMARK                         _______ _______ _______ _____ _____    ______ ____
ROOT
ATOM      1  N   UNL     1       3.363  -5.675  -1.341  0.00  0.00    -0.300 N 
ATOM      2  C   UNL     1       2.165  -4.987  -1.269  0.00  0.00    +0.071 A 
ATOM      3  C   UNL     1       1.440  -4.720  -2.426  0.00  0.00    +0.028 A 
ATOM      4  C   UNL     1       0.248  -4.033  -2.346  0.00  0.00    +0.002 A 
ATOM      5  C   UNL     1      -0.237  -3.606  -1.117  0.00  0.00    +0.002 A 
ATOM      6  C   UNL     1       0.458  -3.857   0.030  0.00  0.00    +0.030 A 
ATOM      7  C   UNL     1       1.674  -4.554  -0.025  0.00  0.00    +0.090 A 
ATOM      8  N   UNL     1       2.361  -4.802   1.110  0.00  0.00    -0.225 NA
ATOM      9  C   UNL     1       3.497  -5.450   1.082  0.00  0.00    +0.188 A 
ATOM     10  C   UNL     1       4.044  -5.927  -0.202  0.00  0.00    +0.292 A 
ATOM     11  O   UNL     1       5.098  -6.534  -0.236  0.00  0.00    -0.264 OA
ATOM     12  N   UNL     1       4.183  -5.693   2.259  0.00  0.00    -0.310 N 
ATOM     13  C   UNL     1       3.571  -5.387   3.559  0.00  0.00    +0.107 C 
ATOM     14  C   UNL     1       4.525  -4.490   4.354  0.00  0.00    +0.020 C 
ATOM     15  C   UNL     1       5.895  -5.166   4.448  0.00  0.00    +0.016 C 
ATOM     16  C   UNL     1       6.469  -5.355   3.042  0.00  0.00    +0.092 C 
ATOM     17  C   UNL     1       5.535  -6.267   2.232  0.00  0.00    +0.119 C 
ENDROOT
BRANCH  16  18
ATOM     18  C   UNL     1       7.832  -5.990   3.137  0.00  0.00    +0.218 C 
ATOM     19  O   UNL     1       8.041  -7.061   2.607  0.00  0.00    -0.275 OA
ATOM     20  N   UNL     1       8.820  -5.369   3.811  0.00  0.00    -0.315 N 
ATOM     21  H   UNL     1       8.654  -4.512   4.235  0.00  0.00    +0.149 HD
BRANCH  20  22
ATOM     22  C   UNL     1      10.146  -5.986   3.903  0.00  0.00    +0.109 C 
BRANCH  22  23
ATOM     23  C   UNL     1      11.074  -5.081   4.716  0.00  0.00    +0.054 C 
BRANCH  23  24
ATOM     24  C   UNL     1      12.438  -5.717   4.811  0.00  0.00    -0.043 A 
ATOM     25  C   UNL     1      12.764  -6.491   5.908  0.00  0.00    +0.004 A 
ATOM     26  C   UNL     1      14.015  -7.074   5.995  0.00  0.00    +0.000 A 
ATOM     27  C   UNL     1      14.938  -6.882   4.984  0.00  0.00    +0.000 A 
ATOM     28  C   UNL     1      14.611  -6.109   3.887  0.00  0.00    +0.003 A 
ATOM     29  C   UNL     1      13.359  -5.530   3.797  0.00  0.00    -0.047 A 
ATOM     30  C   UNL     1      13.001  -4.691   2.598  0.00  0.00    +0.044 C 
ENDBRANCH  23  24
ENDBRANCH  22  23
ENDBRANCH  20  22
ENDBRANCH  16  18
BRANCH   1  31
ATOM     31  C   UNL     1       3.881  -6.130  -2.633  0.00  0.00    +0.160 C 
BRANCH  31  36
ATOM     32  C   UNL     1       1.871 -11.429  -3.761  0.00  0.00    +0.044 C 
ATOM     33  C   UNL     1       2.395 -10.047  -3.466  0.00  0.00    -0.050 A 
ATOM     34  C   UNL     1       1.685  -8.936  -3.880  0.00  0.00    +0.004 A 
ATOM     35  C   UNL     1       2.166  -7.668  -3.611  0.00  0.00    +0.005 A 
ATOM     36  C   UNL     1       3.357  -7.512  -2.926  0.00  0.00    -0.028 A 
ATOM     37  C   UNL     1       4.066  -8.623  -2.512  0.00  0.00    +0.005 A 
ATOM     38  C   UNL     1       3.583  -9.891  -2.778  0.00  0.00    +0.004 A 
ENDBRANCH  31  36
ENDBRANCH   1  31
TORSDOF 6
