REMARK  Name = ZINC22807552
REMARK  12 active torsions:
REMARK  status: ('A' for Active; 'I' for Inactive)
REMARK    1  A    between atoms: C_1  and  C_2
REMARK    2  A    between atoms: C_2  and  O_3
REMARK    3  A    between atoms: O_3  and  C_4
REMARK    4  A    between atoms: C_4  and  C_6
REMARK    5  A    between atoms: C_10  and  N_11
REMARK    6  A    between atoms: C_12  and  C_14
REMARK    7  A    between atoms: C_14  and  N_15
REMARK    8  A    between atoms: N_18  and  C_21
REMARK    9  A    between atoms: C_21  and  C_23
REMARK   10  A    between atoms: C_21  and  C_24
REMARK   11  A    between atoms: N_26  and  C_27
REMARK   12  A    between atoms: C_31  and  C_35
REMARK                            x       y       z     vdW  Elec       q    Type
REMARK                         _______ _______ _______ _____ _____    ______ ____
ROOT
ATOM      1  N   UNL     1      -1.069   4.011  -2.442  0.00  0.00    -0.278 N 
ATOM      2  C   UNL     1      -0.646   4.802  -3.448  0.00  0.00    +0.232 C 
ATOM      3  O   UNL     1      -0.376   5.965  -3.233  0.00  0.00    -0.274 OA
ATOM      4  H   UNL     1      -1.314   2.957  -2.638  0.00  0.00    +0.155 HD
ENDROOT
BRANCH   1   9
ATOM      5  C   UNL     1      -1.613   3.877  -0.007  0.00  0.00    +0.091 A 
ATOM      6  C   UNL     1      -1.664   4.654   1.219  0.00  0.00    -0.021 A 
ATOM      7  C   UNL     1      -1.283   5.944   1.099  0.00  0.00    -0.004 A 
ATOM      8  S   UNL     1      -0.875   6.138  -0.613  0.00  0.00    -0.077 S 
ATOM      9  C   UNL     1      -1.197   4.527  -1.162  0.00  0.00    +0.086 A 
ATOM     10  C   UNL     1      -1.229   6.976   2.184  0.00  0.00    +0.046 C 
ATOM     11  C   UNL     1      -1.321   6.261   3.537  0.00  0.00    -0.009 C 
ATOM     12  C   UNL     1      -2.471   5.250   3.490  0.00  0.00    +0.008 C 
ATOM     13  C   UNL     1      -2.105   4.089   2.564  0.00  0.00    +0.037 C 
ATOM     14  C   UNL     1      -1.583   7.284   4.644  0.00  0.00    +0.008 C 
BRANCH   5  15
ATOM     15  C   UNL     1      -1.992   2.462  -0.027  0.00  0.00    +0.342 C 
ATOM     16  O   UNL     1      -1.153   1.605   0.173  0.00  0.00    -0.245 OA
BRANCH  15  17
ATOM     17  O   UNL     1      -3.272   2.111  -0.266  0.00  0.00    -0.461 OA
BRANCH  17  19
ATOM     18  C   UNL     1      -5.065   0.488  -0.556  0.00  0.00    +0.048 C 
ATOM     19  C   UNL     1      -3.576   0.691  -0.270  0.00  0.00    +0.229 C 
ENDBRANCH  17  19
ENDBRANCH  15  17
ENDBRANCH   5  15
ENDBRANCH   1   9
BRANCH   2  20
ATOM     20  C   UNL     1      -0.508   4.242  -4.840  0.00  0.00    +0.180 C 
BRANCH  20  21
ATOM     21  N   UNL     1      -0.034   5.296  -5.747  0.00  0.00    -0.298 NA
ATOM     22  C   UNL     1      -1.042   6.354  -5.898  0.00  0.00    +0.066 C 
ATOM     23  C   UNL     1      -0.480   7.468  -6.785  0.00  0.00    -0.062 C 
ATOM     24  N   UNL     1      -0.108   6.909  -8.092  0.00  0.00    +0.389 N 
ATOM     25  C   UNL     1       0.901   5.851  -7.941  0.00  0.00    -0.062 C 
ATOM     26  C   UNL     1       0.339   4.737  -7.054  0.00  0.00    +0.066 C 
ATOM     27  H   UNL     1      -1.007   6.460  -8.538  0.00  0.00    -0.081 HD
BRANCH  24  28
ATOM     28  C   UNL     1       0.366   7.963  -8.999  0.00  0.00    +0.016 C 
ATOM     29  C   UNL     1       1.789   8.370  -8.609  0.00  0.00    -0.004 C 
BRANCH  28  30
ATOM     30  C   UNL     1       0.362   7.446 -10.415  0.00  0.00    +0.199 C 
ATOM     31  O   UNL     1       0.242   6.258 -10.626  0.00  0.00    -0.278 OA
ATOM     32  N   UNL     1       0.492   8.305 -11.445  0.00  0.00    -0.314 N 
ATOM     33  H   UNL     1       0.601   9.382 -11.253  0.00  0.00    +0.149 HD
BRANCH  32  34
ATOM     34  C   UNL     1       0.488   7.803 -12.822  0.00  0.00    +0.073 C 
ATOM     35  C   UNL     1       1.527   8.377 -13.787  0.00  0.00    +0.024 C 
ATOM     36  C   UNL     1       0.055   8.770 -13.925  0.00  0.00    +0.024 C 
ENDBRANCH  32  34
ENDBRANCH  28  30
ENDBRANCH  24  28
ENDBRANCH  20  21
ENDBRANCH   2  20
TORSDOF 9
