REMARK  Name = ZINC13626610
REMARK  4 active torsions:
REMARK  status: ('A' for Active; 'I' for Inactive)
REMARK    1  A    between atoms: C_1  and  C_2
REMARK    2  A    between atoms: C_13  and  C_15
REMARK    3  A    between atoms: C_19  and  C_30
REMARK    4  A    between atoms: C_22  and  C_26
REMARK                            x       y       z     vdW  Elec       q    Type
REMARK                         _______ _______ _______ _____ _____    ______ ____
ROOT
ATOM      1  C   UNL     1       2.503  -0.203   2.866  0.00  0.00    +0.110 C 
ATOM      2  C   UNL     1       2.634  -1.512   3.195  0.00  0.00    +0.072 C 
ATOM      3  C   UNL     1       3.594  -1.589   4.295  0.00  0.00    +0.114 C 
ATOM      4  N   UNL     1       4.032  -2.627   4.951  0.00  0.00    -0.362 N 
ATOM      5  C   UNL     1       4.979  -2.425   6.053  0.00  0.00    +0.149 C 
ATOM      6  C   UNL     1       5.874  -1.215   5.779  0.00  0.00    +0.065 C 
ATOM      7  C   UNL     1       5.005   0.036   5.577  0.00  0.00    +0.202 C 
ATOM      8  N   UNL     1       4.007  -0.288   4.553  0.00  0.00    -0.226 N 
ATOM      9  N   UNL     1       3.325   0.556   3.684  0.00  0.00    -0.258 N 
ATOM     10  H   UNL     1       3.409   1.522   3.656  0.00  0.00    +0.170 HD
ATOM     11  H   UNL     1       3.736  -3.520   4.713  0.00  0.00    +0.162 HD
ENDROOT
BRANCH   1  23
ATOM     12  C   UNL     1      -0.410   0.439   0.017  0.00  0.00    +0.028 C 
ATOM     13  C   UNL     1       1.005   0.435  -0.564  0.00  0.00    +0.079 C 
ATOM     14  C   UNL     1       1.143  -0.698  -1.589  0.00  0.00    +0.027 C 
ATOM     15  C   UNL     1       2.540  -0.639  -2.206  0.00  0.00    +0.039 C 
ATOM     16  C   UNL     1       3.591  -0.591  -1.129  0.00  0.00    -0.023 A 
ATOM     17  C   UNL     1       4.887  -0.964  -1.440  0.00  0.00    +0.043 A 
ATOM     18  C   UNL     1       5.876  -0.927  -0.473  0.00  0.00    +0.124 A 
ATOM     19  C   UNL     1       5.573  -0.516   0.814  0.00  0.00    +0.040 A 
ATOM     20  C   UNL     1       4.282  -0.144   1.132  0.00  0.00    +0.026 A 
ATOM     21  C   UNL     1       3.287  -0.183   0.161  0.00  0.00    +0.040 A 
ATOM     22  N   UNL     1       1.982   0.193   0.507  0.00  0.00    -0.263 N 
ATOM     23  C   UNL     1       1.628   0.329   1.800  0.00  0.00    +0.266 C 
ATOM     24  O   UNL     1       0.589   0.890   2.090  0.00  0.00    -0.268 OA
ATOM     25  F   UNL     1       7.138  -1.293  -0.785  0.00  0.00    -0.205 F 
ENDBRANCH   1  23
BRANCH   5  26
ATOM     26  C   UNL     1       4.214  -2.196   7.331  0.00  0.00    +0.127 A 
ATOM     27  C   UNL     1       4.539  -2.685   8.541  0.00  0.00    +0.047 A 
ATOM     28  C   UNL     1       3.554  -2.226   9.446  0.00  0.00    +0.041 A 
ATOM     29  C   UNL     1       2.687  -1.484   8.735  0.00  0.00    +0.195 A 
ATOM     30  O   UNL     1       3.094  -1.465   7.455  0.00  0.00    -0.466 OA
ENDBRANCH   5  26
BRANCH   7  31
ATOM     31  C   UNL     1       5.876   1.204   5.107  0.00  0.00    +0.410 C 
ATOM     32  F   UNL     1       6.491   0.869   3.896  0.00  0.00    -0.169 F 
ATOM     33  F   UNL     1       5.077   2.338   4.926  0.00  0.00    -0.169 F 
ATOM     34  F   UNL     1       6.856   1.472   6.069  0.00  0.00    -0.169 F 
ENDBRANCH   7  31
TORSDOF 3
