REMARK  Name = ZINC36637497
REMARK  13 active torsions:
REMARK  status: ('A' for Active; 'I' for Inactive)
REMARK    1  A    between atoms: C_1  and  C_2
REMARK    2  A    between atoms: C_2  and  C_3
REMARK    3  A    between atoms: C_3  and  C_4
REMARK    4  A    between atoms: C_4  and  N_5
REMARK    5  A    between atoms: N_5  and  C_6
REMARK    6  A    between atoms: N_5  and  S_7
REMARK    7  A    between atoms: S_7  and  C_10
REMARK    8  A    between atoms: C_13  and  C_16
REMARK    9  A    between atoms: N_18  and  C_19
REMARK   10  A    between atoms: C_19  and  C_20
REMARK   11  A    between atoms: C_20  and  N_21
REMARK   12  A    between atoms: N_21  and  C_22
REMARK   13  A    between atoms: N_21  and  C_23
REMARK                            x       y       z     vdW  Elec       q    Type
REMARK                         _______ _______ _______ _____ _____    ______ ____
ROOT
ATOM      1  C   UNL     1      -6.056   1.635   3.308  0.00  0.00    +0.252 C 
ATOM      2  O   UNL     1      -5.337   2.192   4.114  0.00  0.00    -0.270 OA
ATOM      3  N   UNL     1      -7.319   2.066   3.120  0.00  0.00    -0.248 N 
ATOM      4  C   UNL     1      -7.760   3.215   3.754  0.00  0.00    +0.168 A 
ATOM      5  N   UNL     1      -8.942   3.783   3.701  0.00  0.00    -0.224 NA
ATOM      6  C   UNL     1      -9.235   4.915   4.378  0.00  0.00    +0.084 A 
ATOM      7  C   UNL     1     -10.460   5.621   4.405  0.00  0.00    +0.078 A 
ATOM      8  C   UNL     1     -10.600   6.768   5.152  0.00  0.00    +0.168 A 
ATOM      9  C   UNL     1      -9.534   7.268   5.904  0.00  0.00    +0.167 A 
ATOM     10  C   UNL     1      -8.323   6.599   5.898  0.00  0.00    +0.066 A 
ATOM     11  C   UNL     1      -8.184   5.454   5.153  0.00  0.00    +0.044 A 
ATOM     12  S   UNL     1      -6.866   4.299   4.859  0.00  0.00    -0.052 S 
ATOM     13  O   UNL     1      -9.940   8.405   6.541  0.00  0.00    -0.453 OA
ATOM     14  C   UNL     1     -11.133   8.825   5.853  0.00  0.00    +0.466 C 
ATOM     15  O   UNL     1     -11.673   7.600   5.324  0.00  0.00    -0.453 OA
ENDROOT
BRANCH   1  19
ATOM     16  C   UNL     1      -4.587  -1.671   1.081  0.00  0.00    +0.106 A 
ATOM     17  C   UNL     1      -3.809  -0.535   1.222  0.00  0.00    +0.029 A 
ATOM     18  C   UNL     1      -4.280   0.542   1.944  0.00  0.00    +0.015 A 
ATOM     19  C   UNL     1      -5.545   0.484   2.533  0.00  0.00    +0.037 A 
ATOM     20  C   UNL     1      -6.324  -0.664   2.386  0.00  0.00    +0.015 A 
ATOM     21  C   UNL     1      -5.843  -1.732   1.658  0.00  0.00    +0.029 A 
BRANCH  16  22
ATOM     22  S   UNL     1      -3.977  -3.042   0.158  0.00  0.00    +0.061 S 
ATOM     23  O   UNL     1      -4.673  -4.189   0.626  0.00  0.00    -0.153 OA
ATOM     24  O   UNL     1      -2.559  -2.948   0.180  0.00  0.00    -0.153 OA
BRANCH  22  25
ATOM     25  N   UNL     1      -4.441  -2.817  -1.416  0.00  0.00    -0.180 NA
ATOM     26  C   UNL     1      -5.723  -3.349  -1.885  0.00  0.00    +0.131 C 
BRANCH  25  27
ATOM     27  C   UNL     1      -3.570  -2.086  -2.340  0.00  0.00    +0.109 C 
BRANCH  27  28
ATOM     28  C   UNL     1      -3.996  -0.617  -2.387  0.00  0.00    +0.017 C 
BRANCH  28  30
ATOM     29  C   UNL     1      -3.512   1.615  -3.399  0.00  0.00    +0.004 C 
ATOM     30  C   UNL     1      -3.086   0.147  -3.352  0.00  0.00    -0.002 C 
ENDBRANCH  28  30
ENDBRANCH  27  28
ENDBRANCH  25  27
ENDBRANCH  22  25
ENDBRANCH  16  22
ENDBRANCH   1  19
BRANCH   3  31
ATOM     31  C   UNL     1      -8.226   1.318   2.245  0.00  0.00    +0.097 C 
BRANCH  31  32
ATOM     32  C   UNL     1      -9.122   0.413   3.093  0.00  0.00    -0.060 C 
BRANCH  32  33
ATOM     33  N   UNL     1      -9.939  -0.431   2.212  0.00  0.00    +0.377 N 
ATOM     34  C   UNL     1     -10.711  -1.382   3.023  0.00  0.00    -0.097 C 
ATOM     35  C   UNL     1     -10.860   0.413   1.439  0.00  0.00    -0.097 C 
ATOM     36  H   UNL     1      -9.338  -0.939   1.581  0.00  0.00    -0.083 HD
ENDBRANCH  32  33
ENDBRANCH  31  32
ENDBRANCH   3  31
TORSDOF 9
