REMARK  Name = ZINC22648568
REMARK  11 active torsions:
REMARK  status: ('A' for Active; 'I' for Inactive)
REMARK    1  A    between atoms: C_1  and  C_2
REMARK    2  A    between atoms: C_2  and  O_3
REMARK    3  A    between atoms: O_3  and  C_4
REMARK    4  A    between atoms: C_7  and  N_18
REMARK    5  A    between atoms: C_9  and  S_10
REMARK    6  A    between atoms: S_10  and  N_13
REMARK    7  A    between atoms: C_19  and  C_21
REMARK    8  A    between atoms: C_21  and  C_23
REMARK    9  A    between atoms: C_21  and  S_24
REMARK   10  A    between atoms: S_24  and  C_25
REMARK   11  A    between atoms: C_28  and  N_31
REMARK                            x       y       z     vdW  Elec       q    Type
REMARK                         _______ _______ _______ _____ _____    ______ ____
ROOT
ATOM      1  C   UNL     1      -4.609  -0.303   0.435  0.00  0.00    +0.147 A 
ATOM      2  C   UNL     1      -3.386  -0.959   0.433  0.00  0.00    +0.049 A 
ATOM      3  C   UNL     1      -2.216  -0.238   0.301  0.00  0.00    +0.027 A 
ATOM      4  C   UNL     1      -2.263   1.145   0.181  0.00  0.00    +0.035 A 
ATOM      5  C   UNL     1      -3.487   1.800   0.184  0.00  0.00    +0.055 A 
ATOM      6  C   UNL     1      -4.657   1.077   0.310  0.00  0.00    +0.149 A 
ENDROOT
BRANCH   4   7
ATOM      7  N   UNL     1      -1.076   1.878   0.052  0.00  0.00    -0.285 N 
ATOM      8  C   UNL     1      -0.975   3.101   0.610  0.00  0.00    +0.230 C 
ATOM      9  O   UNL     1      -1.938   3.601   1.153  0.00  0.00    -0.274 OA
ATOM     10  H   UNL     1      -0.226   1.455  -0.503  0.00  0.00    +0.155 HD
BRANCH   8  11
ATOM     11  C   UNL     1       0.335   3.844   0.564  0.00  0.00    +0.134 C 
ATOM     12  C   UNL     1       1.265   3.307   1.653  0.00  0.00    +0.029 C 
BRANCH  11  13
ATOM     13  S   UNL     1       0.037   5.612   0.841  0.00  0.00    -0.113 S 
BRANCH  13  14
ATOM     14  C   UNL     1       1.587   6.367   0.479  0.00  0.00    +0.009 A 
ATOM     15  C   UNL     1       2.485   6.642   1.504  0.00  0.00    +0.017 A 
ATOM     16  C   UNL     1       3.701   7.228   1.216  0.00  0.00    +0.034 A 
ATOM     17  C   UNL     1       4.022   7.553  -0.089  0.00  0.00    +0.126 A 
ATOM     18  C   UNL     1       3.129   7.287  -1.111  0.00  0.00    +0.034 A 
ATOM     19  C   UNL     1       1.913   6.695  -0.832  0.00  0.00    +0.017 A 
BRANCH  17  20
ATOM     20  N   UNL     1       5.324   8.187  -0.394  0.00  0.00    +0.056 N 
ATOM     21  O   UNL     1       5.609   8.474  -1.543  0.00  0.00    -0.126 OA
ATOM     22  O   UNL     1       6.112   8.422   0.505  0.00  0.00    -0.126 OA
ENDBRANCH  17  20
ENDBRANCH  13  14
ENDBRANCH  11  13
ENDBRANCH   8  11
ENDBRANCH   4   7
BRANCH   6  23
ATOM     23  S   UNL     1      -6.210   1.909   0.313  0.00  0.00    +0.064 S 
ATOM     24  O   UNL     1      -6.936   1.409   1.428  0.00  0.00    -0.153 OA
ATOM     25  O   UNL     1      -5.931   3.292   0.144  0.00  0.00    -0.153 OA
BRANCH  23  26
ATOM     26  N   UNL     1      -7.029   1.423  -1.042  0.00  0.00    -0.176 NA
ATOM     27  C   UNL     1      -6.975   2.078  -2.357  0.00  0.00    +0.109 C 
ATOM     28  C   UNL     1      -7.912   1.293  -3.299  0.00  0.00    +0.018 C 
ATOM     29  C   UNL     1      -8.880   0.588  -2.313  0.00  0.00    +0.018 C 
ATOM     30  C   UNL     1      -7.937   0.265  -1.128  0.00  0.00    +0.109 C 
ENDBRANCH  23  26
ENDBRANCH   6  23
BRANCH   1  31
ATOM     31  O   UNL     1      -5.761  -1.014   0.560  0.00  0.00    -0.490 OA
BRANCH  31  33
ATOM     32  C   UNL     1      -7.029  -3.056   0.813  0.00  0.00    +0.048 C 
ATOM     33  C   UNL     1      -5.638  -2.433   0.684  0.00  0.00    +0.226 C 
ENDBRANCH  31  33
ENDBRANCH   1  31
TORSDOF 9
