REMARK  Name = ZINC44713554
REMARK  7 active torsions:
REMARK  status: ('A' for Active; 'I' for Inactive)
REMARK    1  A    between atoms: C_3  and  C_6
REMARK    2  A    between atoms: C_6  and  N_7
REMARK    3  A    between atoms: N_7  and  C_8
REMARK    4  A    between atoms: N_7  and  C_27
REMARK    5  A    between atoms: C_14  and  N_16
REMARK    6  A    between atoms: N_16  and  S_17
REMARK    7  A    between atoms: S_17  and  C_20
REMARK                            x       y       z     vdW  Elec       q    Type
REMARK                         _______ _______ _______ _____ _____    ______ ____
ROOT
ATOM      1  C   UNL     1       5.290   0.685   1.014  0.00  0.00    -0.049 C 
ATOM      2  C   UNL     1       5.288   2.079   0.386  0.00  0.00    -0.014 C 
ATOM      3  C   UNL     1       6.729   2.535   0.149  0.00  0.00    -0.001 C 
ATOM      4  C   UNL     1       7.476   2.579   1.483  0.00  0.00    +0.001 C 
ATOM      5  C   UNL     1       7.479   1.184   2.112  0.00  0.00    +0.019 C 
ATOM      6  C   UNL     1       6.037   0.728   2.349  0.00  0.00    +0.063 C 
ENDROOT
BRANCH   1   7
ATOM      7  N   UNL     1       3.907   0.247   1.242  0.00  0.00    +0.389 N 
ATOM      8  H   UNL     1       3.475   0.842   1.933  0.00  0.00    -0.080 HD
BRANCH   7   9
ATOM      9  C   UNL     1       3.904  -1.141   1.720  0.00  0.00    -0.068 C 
ATOM     10  C   UNL     1       4.663  -2.024   0.727  0.00  0.00    -0.015 C 
ATOM     11  C   UNL     1       4.660  -3.471   1.225  0.00  0.00    -0.002 C 
ATOM     12  C   UNL     1       3.218  -3.965   1.349  0.00  0.00    -0.000 C 
ATOM     13  C   UNL     1       2.459  -3.083   2.342  0.00  0.00    -0.002 C 
ATOM     14  C   UNL     1       2.462  -1.636   1.843  0.00  0.00    -0.015 C 
ENDBRANCH   7   9
BRANCH   7  15
ATOM     15  C   UNL     1       3.153   0.333  -0.016  0.00  0.00    -0.002 C 
BRANCH  15  18
ATOM     16  C   UNL     1      -0.340   0.917   1.004  0.00  0.00    +0.041 A 
ATOM     17  C   UNL     1       1.018   1.307   0.957  0.00  0.00    +0.042 A 
ATOM     18  C   UNL     1       1.676   0.346   0.283  0.00  0.00    +0.089 A 
ATOM     19  O   UNL     1       0.793  -0.599  -0.079  0.00  0.00    -0.470 OA
ATOM     20  C   UNL     1      -0.431  -0.258   0.356  0.00  0.00    +0.195 A 
ENDBRANCH  15  18
ENDBRANCH   7  15
ENDBRANCH   1   7
BRANCH   6  21
ATOM     21  N   UNL     1       6.040  -0.607   2.951  0.00  0.00    -0.188 NA
ATOM     22  H   UNL     1       6.121  -1.393   2.388  0.00  0.00    +0.148 HD
BRANCH  21  23
ATOM     23  S   UNL     1       5.905  -0.775   4.593  0.00  0.00    +0.059 S 
ATOM     24  O   UNL     1       5.878  -2.171   4.857  0.00  0.00    -0.153 OA
ATOM     25  O   UNL     1       6.872   0.091   5.171  0.00  0.00    -0.153 OA
BRANCH  23  26
ATOM     26  C   UNL     1       4.326  -0.145   5.053  0.00  0.00    +0.105 A 
ATOM     27  C   UNL     1       4.181   1.193   5.370  0.00  0.00    +0.030 A 
ATOM     28  C   UNL     1       2.942   1.688   5.731  0.00  0.00    +0.022 A 
ATOM     29  C   UNL     1       1.847   0.844   5.776  0.00  0.00    +0.041 A 
ATOM     30  C   UNL     1       1.992  -0.495   5.459  0.00  0.00    +0.022 A 
ATOM     31  C   UNL     1       3.230  -0.987   5.092  0.00  0.00    +0.030 A 
ATOM     32 CL   UNL     1       0.290   1.465   6.230  0.00  0.00    -0.084 Cl
ENDBRANCH  23  26
ENDBRANCH  21  23
ENDBRANCH   6  21
TORSDOF 7
