REMARK  Name = ZINC08790340
REMARK  7 active torsions:
REMARK  status: ('A' for Active; 'I' for Inactive)
REMARK    1  A    between atoms: C_1  and  S_2
REMARK    2  A    between atoms: S_2  and  C_3
REMARK    3  A    between atoms: C_3  and  C_4
REMARK    4  A    between atoms: C_4  and  C_5
REMARK    5  A    between atoms: N_13  and  C_16
REMARK    6  A    between atoms: C_16  and  C_17
REMARK    7  A    between atoms: C_17  and  C_18
REMARK                            x       y       z     vdW  Elec       q    Type
REMARK                         _______ _______ _______ _____ _____    ______ ____
ROOT
ATOM      1  C   UNL     1       0.962   1.811  -5.536  0.00  0.00    -0.057 C 
ATOM      2  C   UNL     1       1.399   1.054  -4.245  0.00  0.00    +0.073 C 
ATOM      3  C   UNL     1       0.520  -0.228  -4.242  0.00  0.00    +0.088 C 
ATOM      4  C   UNL     1      -0.366  -0.041  -3.031  0.00  0.00    +0.225 C 
ATOM      5  O   UNL     1      -1.214  -0.821  -2.657  0.00  0.00    -0.275 OA
ATOM      6  N   UNL     1      -0.067   1.120  -2.437  0.00  0.00    -0.241 N 
ATOM      7  C   UNL     1       0.905   1.817  -3.036  0.00  0.00    +0.224 C 
ATOM      8  O   UNL     1       1.326   2.892  -2.667  0.00  0.00    -0.275 OA
ATOM      9  C   UNL     1      -0.322  -0.141  -5.519  0.00  0.00    +0.050 C 
ATOM     10  C   UNL     1      -0.535  -1.495  -6.135  0.00  0.00    -0.026 A 
ATOM     11  C   UNL     1       0.319  -2.465  -6.613  0.00  0.00    +0.004 A 
ATOM     12  C   UNL     1      -0.190  -3.639  -7.136  0.00  0.00    +0.002 A 
ATOM     13  C   UNL     1      -1.558  -3.839  -7.178  0.00  0.00    +0.022 A 
ATOM     14  C   UNL     1      -2.418  -2.871  -6.700  0.00  0.00    +0.062 A 
ATOM     15  C   UNL     1      -1.913  -1.684  -6.172  0.00  0.00    +0.054 A 
ATOM     16  N   UNL     1      -2.568  -0.572  -5.636  0.00  0.00    -0.285 N 
ATOM     17  C   UNL     1      -1.704   0.379  -5.231  0.00  0.00    +0.211 C 
ATOM     18  O   UNL     1      -1.986   1.448  -4.731  0.00  0.00    -0.277 OA
ATOM     19 CL   UNL     1      -4.133  -3.132  -6.758  0.00  0.00    -0.082 Cl
ATOM     20  H   UNL     1      -3.532  -0.494  -5.563  0.00  0.00    +0.155 HD
ATOM     21  N   UNL     1       0.409   0.759  -6.393  0.00  0.00    +0.394 N 
ATOM     22  H   UNL     1       1.166   0.256  -6.870  0.00  0.00    -0.083 HD
ATOM     23  H   UNL     1      -0.224   1.167  -7.092  0.00  0.00    -0.083 HD
ENDROOT
BRANCH   1  24
ATOM     24  C   UNL     1       2.172   2.482  -6.187  0.00  0.00    -0.004 C 
BRANCH  24  25
ATOM     25  C   UNL     1       1.721   3.257  -7.427  0.00  0.00    +0.067 C 
BRANCH  25  27
ATOM     26  C   UNL     1       2.460   4.917  -9.633  0.00  0.00    +0.084 C 
ATOM     27  S   UNL     1       3.156   4.053  -8.199  0.00  0.00    -0.164 S 
ENDBRANCH  25  27
ENDBRANCH  24  25
ENDBRANCH   1  24
BRANCH   6  28
ATOM     28  C   UNL     1      -0.753   1.593  -1.232  0.00  0.00    +0.121 C 
BRANCH  28  29
ATOM     29  C   UNL     1      -0.013   1.086   0.008  0.00  0.00    +0.054 C 
BRANCH  29  30
ATOM     30  C   UNL     1      -0.718   1.572   1.248  0.00  0.00    -0.046 A 
ATOM     31  C   UNL     1      -0.360   2.779   1.819  0.00  0.00    +0.004 A 
ATOM     32  C   UNL     1      -1.010   3.227   2.954  0.00  0.00    +0.000 A 
ATOM     33  C   UNL     1      -2.012   2.463   3.523  0.00  0.00    +0.000 A 
ATOM     34  C   UNL     1      -2.366   1.254   2.955  0.00  0.00    +0.000 A 
ATOM     35  C   UNL     1      -1.719   0.808   1.818  0.00  0.00    +0.004 A 
ENDBRANCH  29  30
ENDBRANCH  28  29
ENDBRANCH   6  28
TORSDOF 6
