REMARK  Name = ZINC00647396
REMARK  3 active torsions:
REMARK  status: ('A' for Active; 'I' for Inactive)
REMARK    1  A    between atoms: C_11  and  C_13
REMARK    2  A    between atoms: C_19  and  C_28
REMARK    3  A    between atoms: C_22  and  C_24
REMARK                            x       y       z     vdW  Elec       q    Type
REMARK                         _______ _______ _______ _____ _____    ______ ____
ROOT
ATOM      1  C   UNL     1       5.522  -2.023   1.614  0.00  0.00    +0.096 A 
ATOM      2  C   UNL     1       5.798  -0.642   1.448  0.00  0.00    +0.149 A 
ATOM      3  N   UNL     1       6.888  -0.361   2.108  0.00  0.00    -0.177 NA
ATOM      4  N   UNL     1       7.364  -1.518   2.721  0.00  0.00    -0.238 N 
ATOM      5  C   UNL     1       6.521  -2.534   2.420  0.00  0.00    +0.130 A 
ATOM      6  N   UNL     1       6.708  -3.827   2.877  0.00  0.00    -0.322 N 
ATOM      7  C   UNL     1       8.022  -4.121   3.482  0.00  0.00    +0.104 C 
ATOM      8  C   UNL     1       8.409  -2.953   4.396  0.00  0.00    +0.063 C 
ATOM      9  C   UNL     1       8.556  -1.673   3.562  0.00  0.00    +0.215 C 
ATOM     10  H   UNL     1       6.014  -4.501   2.805  0.00  0.00    +0.148 HD
ENDROOT
BRANCH   1  21
ATOM     11  C   UNL     1      -0.796  -0.635   3.533  0.00  0.00    +0.000 A 
ATOM     12  C   UNL     1       0.124   0.392   3.639  0.00  0.00    +0.000 A 
ATOM     13  C   UNL     1       1.325   0.306   2.965  0.00  0.00    +0.005 A 
ATOM     14  C   UNL     1       1.618  -0.805   2.185  0.00  0.00    -0.027 A 
ATOM     15  C   UNL     1       0.707  -1.832   2.086  0.00  0.00    -0.041 A 
ATOM     16  C   UNL     1      -0.506  -1.739   2.760  0.00  0.00    +0.004 A 
ATOM     17  C   UNL     1       0.966  -3.080   1.284  0.00  0.00    +0.054 C 
ATOM     18  C   UNL     1       2.065  -2.843   0.249  0.00  0.00    +0.113 C 
ATOM     19  N   UNL     1       3.187  -2.171   0.925  0.00  0.00    -0.293 N 
ATOM     20  C   UNL     1       2.942  -0.829   1.464  0.00  0.00    +0.143 C 
ATOM     21  C   UNL     1       4.391  -2.765   1.044  0.00  0.00    +0.252 C 
ATOM     22  O   UNL     1       4.540  -3.916   0.680  0.00  0.00    -0.270 OA
ENDBRANCH   1  21
BRANCH   7  23
ATOM     23  C   UNL     1       9.054  -4.282   2.396  0.00  0.00    -0.027 A 
ATOM     24  C   UNL     1       9.041  -3.440   1.300  0.00  0.00    +0.006 A 
ATOM     25  C   UNL     1       9.988  -3.587   0.303  0.00  0.00    +0.015 A 
ATOM     26  C   UNL     1      10.949  -4.578   0.403  0.00  0.00    +0.018 A 
ATOM     27  C   UNL     1      10.961  -5.420   1.500  0.00  0.00    +0.015 A 
ATOM     28  C   UNL     1      10.017  -5.269   2.498  0.00  0.00    +0.006 A 
ATOM     29 BR   UNL     1      12.244  -4.780  -0.960  0.00  0.00    -0.050 Br
ENDBRANCH   7  23
BRANCH   9  30
ATOM     30  C   UNL     1       8.678  -0.473   4.504  0.00  0.00    +0.412 C 
ATOM     31  F   UNL     1       7.541  -0.400   5.316  0.00  0.00    -0.168 F 
ATOM     32  F   UNL     1       9.815  -0.623   5.305  0.00  0.00    -0.168 F 
ATOM     33  F   UNL     1       8.789   0.701   3.751  0.00  0.00    -0.168 F 
ENDBRANCH   9  30
TORSDOF 3
