REMARK  Name = ZINC42015607
REMARK  3 active torsions:
REMARK  status: ('A' for Active; 'I' for Inactive)
REMARK    1  A    between atoms: C_6  and  N_7
REMARK    2  A    between atoms: C_8  and  C_12
REMARK    3  A    between atoms: C_17  and  N_18
REMARK                            x       y       z     vdW  Elec       q    Type
REMARK                         _______ _______ _______ _____ _____    ______ ____
ROOT
ATOM      1  N   UNL     1      -1.192  -0.739   0.033  0.00  0.00    -0.193 N 
ATOM      2  C   UNL     1      -1.494  -1.860  -0.685  0.00  0.00    +0.189 A 
ATOM      3  N   UNL     1      -2.743  -2.171  -0.401  0.00  0.00    -0.108 NA
ATOM      4  N   UNL     1      -3.236  -1.331   0.436  0.00  0.00    -0.022 NA
ATOM      5  N   UNL     1      -2.362  -0.440   0.753  0.00  0.00    -0.039 NA
ENDROOT
BRANCH   1  11
ATOM      6  C   UNL     1       0.715   0.185  -1.130  0.00  0.00    +0.031 A 
ATOM      7  C   UNL     1       1.912   0.873  -1.108  0.00  0.00    +0.040 A 
ATOM      8  C   UNL     1       2.424   1.336   0.093  0.00  0.00    +0.124 A 
ATOM      9  C   UNL     1       1.736   1.110   1.274  0.00  0.00    +0.040 A 
ATOM     10  C   UNL     1       0.539   0.423   1.256  0.00  0.00    +0.031 A 
ATOM     11  C   UNL     1       0.024  -0.042   0.053  0.00  0.00    +0.070 A 
ATOM     12  F   UNL     1       3.596   2.008   0.112  0.00  0.00    -0.205 F 
ENDBRANCH   1  11
BRANCH   2  13
ATOM     13  C   UNL     1      -0.594  -2.585  -1.606  0.00  0.00    +0.042 A 
ATOM     14  C   UNL     1       0.698  -2.923  -1.202  0.00  0.00    +0.015 A 
ATOM     15  C   UNL     1       1.534  -3.599  -2.064  0.00  0.00    +0.021 A 
ATOM     16  C   UNL     1       1.097  -3.946  -3.333  0.00  0.00    +0.043 A 
ATOM     17  C   UNL     1      -0.181  -3.618  -3.746  0.00  0.00    +0.043 A 
ATOM     18  C   UNL     1      -1.036  -2.942  -2.887  0.00  0.00    +0.037 A 
ATOM     19 CL   UNL     1       2.160  -4.797  -4.410  0.00  0.00    -0.083 Cl
BRANCH  18  20
ATOM     20  N   UNL     1      -2.326  -2.615  -3.299  0.00  0.00    -0.357 N 
ATOM     21  H   UNL     1      -2.921  -2.140  -2.698  0.00  0.00    +0.142 HD
ATOM     22  H   UNL     1      -2.630  -2.864  -4.186  0.00  0.00    +0.142 HD
ENDBRANCH  18  20
ENDBRANCH   2  13
TORSDOF 3
