REMARK  Name = ZINC39675055
REMARK  9 active torsions:
REMARK  status: ('A' for Active; 'I' for Inactive)
REMARK    1  A    between atoms: C_1  and  C_2
REMARK    2  A    between atoms: C_4  and  C_33
REMARK    3  A    between atoms: N_5  and  C_7
REMARK    4  A    between atoms: C_7  and  C_8
REMARK    5  A    between atoms: C_8  and  N_9
REMARK    6  A    between atoms: C_10  and  C_12
REMARK    7  A    between atoms: C_23  and  C_25
REMARK    8  A    between atoms: C_29  and  O_30
REMARK    9  A    between atoms: O_30  and  C_31
REMARK                            x       y       z     vdW  Elec       q    Type
REMARK                         _______ _______ _______ _____ _____    ______ ____
ROOT
ATOM      1  C   UNL     1       2.711  -6.633   3.922  0.00  0.00    +0.100 C 
ATOM      2  C   UNL     1       1.961  -7.801   3.244  0.00  0.00    +0.121 C 
ATOM      3  N   UNL     1       3.020  -8.578   2.557  0.00  0.00    -0.296 N 
ATOM      4  C   UNL     1       4.162  -8.561   3.503  0.00  0.00    +0.115 C 
ATOM      5  C   UNL     1       4.154  -7.138   4.094  0.00  0.00    -0.004 C 
ATOM      6  C   UNL     1       5.121  -6.243   3.325  0.00  0.00    -0.010 C 
ATOM      7  C   UNL     1       6.554  -6.731   3.557  0.00  0.00    -0.082 C 
ATOM      8  N   UNL     1       6.859  -6.694   4.992  0.00  0.00    +0.379 N 
ATOM      9  C   UNL     1       5.985  -7.627   5.714  0.00  0.00    -0.082 C 
ATOM     10  C   UNL     1       4.528  -7.177   5.573  0.00  0.00    -0.010 C 
ATOM     11  C   UNL     1       2.960  -9.167   1.347  0.00  0.00    +0.251 C 
ATOM     12  O   UNL     1       1.981  -9.009   0.642  0.00  0.00    -0.270 OA
ATOM     13  H   UNL     1       7.822  -6.957   5.137  0.00  0.00    -0.086 HD
ATOM     14  H   UNL     1       6.712  -5.759   5.342  0.00  0.00    -0.086 HD
ENDROOT
BRANCH  11  15
ATOM     15  C   UNL     1       4.077 -10.000   0.877  0.00  0.00    +0.087 A 
ATOM     16  C   UNL     1       4.813 -10.776   1.746  0.00  0.00    +0.063 A 
ATOM     17  S   UNL     1       5.950 -11.528   0.768  0.00  0.00    -0.081 S 
ATOM     18  C   UNL     1       5.499 -10.850  -0.815  0.00  0.00    +0.120 A 
ATOM     19  C   UNL     1       4.451 -10.048  -0.518  0.00  0.00    +0.158 A 
ATOM     20 CL   UNL     1       6.224 -11.149  -2.363  0.00  0.00    -0.072 Cl
BRANCH  19  21
ATOM     21  O   UNL     1       3.794  -9.330  -1.470  0.00  0.00    -0.492 OA
ATOM     22  C   UNL     1       4.282  -8.015  -1.743  0.00  0.00    +0.277 C 
ENDBRANCH  19  21
ENDBRANCH  11  15
BRANCH   1  24
ATOM     23  N   UNL     1       2.698  -4.182   3.596  0.00  0.00    -0.313 N 
ATOM     24  C   UNL     1       2.684  -5.410   3.042  0.00  0.00    +0.218 C 
ATOM     25  O   UNL     1       2.650  -5.532   1.836  0.00  0.00    -0.275 OA
ATOM     26  H   UNL     1       2.725  -4.085   4.561  0.00  0.00    +0.149 HD
BRANCH  23  27
ATOM     27  C   UNL     1       2.671  -2.993   2.740  0.00  0.00    +0.127 C 
BRANCH  27  28
ATOM     28  C   UNL     1       2.694  -1.736   3.613  0.00  0.00    +0.162 C 
BRANCH  28  33
ATOM     29  C   UNL     1       4.231   2.121   0.793  0.00  0.00    +0.067 C 
ATOM     30  C   UNL     1       3.362   1.134   1.528  0.00  0.00    +0.060 A 
ATOM     31  C   UNL     1       1.964   1.139   1.563  0.00  0.00    +0.047 A 
ATOM     32  C   UNL     1       1.562   0.096   2.325  0.00  0.00    +0.036 A 
ATOM     33  N   UNL     1       2.668  -0.547   2.758  0.00  0.00    -0.267 N 
ATOM     34  N   UNL     1       3.785   0.121   2.240  0.00  0.00    -0.176 NA
ATOM     35  C   UNL     1       0.137  -0.281   2.636  0.00  0.00    +0.065 C 
ENDBRANCH  28  33
ENDBRANCH  27  28
ENDBRANCH  23  27
ENDBRANCH   1  24
TORSDOF 6
