REMARK  Name = ZINC16042640
REMARK  5 active torsions:
REMARK  status: ('A' for Active; 'I' for Inactive)
REMARK    1  A    between atoms: C_1  and  C_2
REMARK    2  A    between atoms: C_2  and  C_3
REMARK    3  A    between atoms: C_2  and  C_4
REMARK    4  A    between atoms: C_7  and  C_10
REMARK    5  A    between atoms: N_28  and  C_31
REMARK                            x       y       z     vdW  Elec       q    Type
REMARK                         _______ _______ _______ _____ _____    ______ ____
ROOT
ATOM      1  C   UNL     1       2.488   1.613   0.028  0.00  0.00    +0.155 C 
ATOM      2  C   UNL     1       3.179   2.521   1.027  0.00  0.00    +0.046 A 
ATOM      3  C   UNL     1       2.608   3.626   1.553  0.00  0.00    -0.015 A 
ATOM      4  C   UNL     1       3.586   4.215   2.449  0.00  0.00    +0.003 A 
ATOM      5  C   UNL     1       3.560   5.355   3.258  0.00  0.00    +0.010 A 
ATOM      6  C   UNL     1       4.689   5.619   3.993  0.00  0.00    +0.001 A 
ATOM      7  C   UNL     1       5.807   4.803   3.943  0.00  0.00    +0.002 A 
ATOM      8  C   UNL     1       5.860   3.669   3.151  0.00  0.00    +0.026 A 
ATOM      9  C   UNL     1       4.728   3.376   2.394  0.00  0.00    +0.047 A 
ATOM     10  N   UNL     1       4.444   2.362   1.525  0.00  0.00    -0.356 N 
ATOM     11  H   UNL     1       5.048   1.638   1.296  0.00  0.00    +0.166 HD
ATOM     12  C   UNL     1       1.216   4.125   1.260  0.00  0.00    +0.069 C 
ATOM     13  C   UNL     1       0.721   3.509  -0.054  0.00  0.00    +0.170 C 
ATOM     14  N   UNL     1       1.098   2.079  -0.058  0.00  0.00    -0.260 N 
ATOM     15  C   UNL     1      -0.031   1.371  -0.139  0.00  0.00    +0.317 C 
ATOM     16  O   UNL     1      -0.067   0.159  -0.222  0.00  0.00    -0.252 OA
ATOM     17  N   UNL     1      -1.120   2.153  -0.123  0.00  0.00    -0.192 N 
ATOM     18  C   UNL     1      -0.794   3.460  -0.055  0.00  0.00    +0.248 C 
ATOM     19  O   UNL     1      -1.556   4.402  -0.007  0.00  0.00    -0.273 OA
ENDROOT
BRANCH  17  20
ATOM     20  C   UNL     1      -2.437   1.671  -0.169  0.00  0.00    +0.049 A 
ATOM     21  C   UNL     1      -3.498   2.560  -0.274  0.00  0.00    +0.028 A 
ATOM     22  C   UNL     1      -4.795   2.086  -0.317  0.00  0.00    +0.051 A 
ATOM     23  C   UNL     1      -5.041   0.722  -0.256  0.00  0.00    +0.162 A 
ATOM     24  C   UNL     1      -3.980  -0.170  -0.154  0.00  0.00    +0.164 A 
ATOM     25  C   UNL     1      -2.678   0.306  -0.115  0.00  0.00    +0.073 A 
ATOM     26  O   UNL     1      -4.201  -1.512  -0.100  0.00  0.00    -0.485 OA
ATOM     27  C   UNL     1      -5.528  -1.933   0.233  0.00  0.00    +0.270 C 
ATOM     28  C   UNL     1      -6.517  -1.110  -0.605  0.00  0.00    +0.270 C 
ATOM     29  O   UNL     1      -6.326   0.274  -0.293  0.00  0.00    -0.485 OA
ENDBRANCH  17  20
BRANCH   1  33
ATOM     30  C   UNL     1       4.377   1.923  -3.790  0.00  0.00    -0.045 A 
ATOM     31  C   UNL     1       4.423   0.731  -3.091  0.00  0.00    +0.004 A 
ATOM     32  C   UNL     1       3.812   0.631  -1.855  0.00  0.00    +0.006 A 
ATOM     33  C   UNL     1       3.155   1.723  -1.319  0.00  0.00    -0.021 A 
ATOM     34  C   UNL     1       3.104   2.913  -2.020  0.00  0.00    +0.006 A 
ATOM     35  C   UNL     1       3.720   3.014  -3.254  0.00  0.00    +0.004 A 
BRANCH  30  37
ATOM     36  C   UNL     1       3.998   2.391  -6.196  0.00  0.00    +0.012 C 
ATOM     37  C   UNL     1       5.043   2.032  -5.138  0.00  0.00    +0.013 C 
ATOM     38  C   UNL     1       6.116   3.122  -5.090  0.00  0.00    +0.012 C 
ENDBRANCH  30  37
ENDBRANCH   1  33
TORSDOF 3
