REMARK  Name = ZINC04531978
REMARK  9 active torsions:
REMARK  status: ('A' for Active; 'I' for Inactive)
REMARK    1  A    between atoms: C_1  and  C_2
REMARK    2  A    between atoms: C_2  and  C_4
REMARK    3  A    between atoms: C_2  and  C_32
REMARK    4  A    between atoms: C_10  and  C_31
REMARK    5  A    between atoms: C_11  and  O_30
REMARK    6  A    between atoms: C_22  and  C_29
REMARK    7  A    between atoms: C_25  and  O_28
REMARK    8  A    between atoms: C_32  and  O_34
REMARK    9  A    between atoms: O_34  and  C_35
REMARK                            x       y       z     vdW  Elec       q    Type
REMARK                         _______ _______ _______ _____ _____    ______ ____
ROOT
ATOM      1  C   UNL     1      -0.657  -7.929   0.837  0.00  0.00    +0.011 C 
ATOM      2  C   UNL     1      -1.742  -8.206  -0.237  0.00  0.00    +0.005 C 
ATOM      3  C   UNL     1      -1.869  -6.908  -1.078  0.00  0.00    +0.005 C 
ATOM      4  C   UNL     1      -0.631  -6.092  -0.673  0.00  0.00    +0.001 C 
ATOM      5  C   UNL     1      -0.536  -6.393   0.837  0.00  0.00    +0.001 C 
ATOM      6  C   UNL     1       0.712  -5.815   1.443  0.00  0.00    +0.121 C 
ATOM      7  C   UNL     1       1.039  -4.437   0.846  0.00  0.00    +0.036 C 
ATOM      8  C   UNL     1      -0.175  -3.786   0.200  0.00  0.00    +0.001 C 
ATOM      9  C   UNL     1      -0.672  -4.623  -0.973  0.00  0.00    -0.004 C 
ATOM     10  C   UNL     1      -2.026  -4.134  -1.471  0.00  0.00    +0.004 C 
ATOM     11  C   UNL     1      -2.003  -2.600  -1.575  0.00  0.00    +0.004 C 
ATOM     12  C   UNL     1      -0.553  -2.146  -1.630  0.00  0.00    -0.002 C 
ATOM     13  C   UNL     1       0.141  -2.370  -0.286  0.00  0.00    -0.026 C 
ATOM     14  C   UNL     1       1.635  -2.128  -0.462  0.00  0.00    +0.010 C 
ATOM     15  C   UNL     1       1.869  -0.693  -0.945  0.00  0.00    +0.032 C 
ATOM     16  C   UNL     1       1.108  -0.409  -2.237  0.00  0.00    +0.115 C 
ATOM     17  C   UNL     1      -0.389  -0.700  -2.073  0.00  0.00    +0.035 C 
ATOM     18  C   UNL     1      -0.408  -1.401   0.763  0.00  0.00    +0.012 C 
ATOM     19  C   UNL     1      -1.775  -5.884   1.594  0.00  0.00    +0.014 C 
ENDROOT
BRANCH   1  21
ATOM     20  C   UNL     1       0.394 -10.105   0.223  0.00  0.00    +0.019 C 
ATOM     21  C   UNL     1       0.647  -8.613   0.450  0.00  0.00    +0.098 C 
BRANCH  21  22
ATOM     22  C   UNL     1       1.654  -8.438   1.558  0.00  0.00    +0.310 C 
ATOM     23  O   UNL     1       1.286  -8.122   2.665  0.00  0.00    -0.251 OA
BRANCH  22  24
ATOM     24  O   UNL     1       2.960  -8.634   1.315  0.00  0.00    -0.468 OA
ATOM     25  C   UNL     1       3.873  -8.447   2.429  0.00  0.00    +0.280 C 
ENDBRANCH  22  24
ENDBRANCH  21  22
ENDBRANCH   1  21
BRANCH  16  26
ATOM     26  O   UNL     1       1.282   0.965  -2.594  0.00  0.00    -0.392 OA
ATOM     27  H   UNL     1       2.206   1.225  -2.715  0.00  0.00    +0.210 HD
ENDBRANCH  16  26
BRANCH   6  28
ATOM     28  O   UNL     1       0.538  -5.679   2.864  0.00  0.00    -0.391 OA
ATOM     29  H   UNL     1       1.307  -5.311   3.320  0.00  0.00    +0.210 HD
ENDBRANCH   6  28
TORSDOF 5
