REMARK  Name = ZINC35268911
REMARK  17 active torsions:
REMARK  status: ('A' for Active; 'I' for Inactive)
REMARK    1  A    between atoms: C_1  and  C_2
REMARK    2  A    between atoms: C_2  and  C_4
REMARK    3  A    between atoms: C_2  and  C_12
REMARK    4  A    between atoms: C_4  and  C_5
REMARK    5  A    between atoms: C_5  and  C_6
REMARK    6  A    between atoms: C_6  and  C_9
REMARK    7  A    between atoms: N_7  and  O_8
REMARK    8  A    between atoms: C_9  and  C_10
REMARK    9  A    between atoms: C_9  and  C_11
REMARK   10  A    between atoms: C_16  and  C_40
REMARK   11  A    between atoms: C_17  and  C_39
REMARK   12  A    between atoms: C_26  and  C_38
REMARK   13  A    between atoms: C_29  and  O_34
REMARK   14  A    between atoms: C_31  and  C_32
REMARK   15  A    between atoms: C_31  and  C_33
REMARK   16  A    between atoms: O_34  and  C_35
REMARK   17  A    between atoms: C_35  and  C_37
REMARK                            x       y       z     vdW  Elec       q    Type
REMARK                         _______ _______ _______ _____ _____    ______ ____
ROOT
ATOM      1  C   UNL     1       0.723   0.148   1.349  0.00  0.00    -0.001 C 
ATOM      2  C   UNL     1       0.668  -1.386   1.097  0.00  0.00    +0.005 C 
ATOM      3  C   UNL     1       2.101  -1.927   1.342  0.00  0.00    +0.012 C 
ATOM      4  C   UNL     1       2.861  -0.734   1.918  0.00  0.00    -0.005 C 
ATOM      5  C   UNL     1       2.217   0.463   1.185  0.00  0.00    -0.020 C 
ATOM      6  C   UNL     1       2.728   1.724   1.847  0.00  0.00    +0.012 C 
ATOM      7  C   UNL     1       4.242   1.787   1.661  0.00  0.00    +0.032 C 
ATOM      8  C   UNL     1       4.942   0.453   1.591  0.00  0.00    -0.064 C 
ATOM      9  C   UNL     1       4.344  -0.707   1.698  0.00  0.00    -0.063 C 
ATOM     10  C   UNL     1       5.037  -2.043   1.630  0.00  0.00    +0.031 C 
ATOM     11  C   UNL     1       6.485  -1.938   1.154  0.00  0.00    +0.009 C 
ATOM     12  C   UNL     1       7.099  -0.733   1.868  0.00  0.00    +0.008 C 
ATOM     13  C   UNL     1       6.443   0.525   1.344  0.00  0.00    -0.007 C 
ATOM     14  C   UNL     1       7.022   1.757   2.035  0.00  0.00    +0.015 C 
ATOM     15  C   UNL     1       8.535   1.794   1.818  0.00  0.00    +0.046 C 
ATOM     16  C   UNL     1       9.189   0.560   2.424  0.00  0.00    +0.182 C 
ATOM     17  C   UNL     1       8.611  -0.741   1.865  0.00  0.00    +0.006 C 
ATOM     18  C   UNL     1       9.197  -1.024   0.483  0.00  0.00    +0.015 C 
ATOM     19  C   UNL     1       9.087  -1.877   2.804  0.00  0.00    +0.015 C 
ATOM     20  C   UNL     1       6.626   0.684  -0.167  0.00  0.00    +0.016 C 
ATOM     21  C   UNL     1       2.571   0.461  -0.313  0.00  0.00    +0.012 C 
ATOM     22  C   UNL     1       2.585  -0.676   3.422  0.00  0.00    +0.016 C 
ENDROOT
BRANCH   1  24
ATOM     23  C   UNL     1       0.102   2.398   0.452  0.00  0.00    +0.008 C 
ATOM     24  C   UNL     1      -0.096   0.890   0.287  0.00  0.00    -0.010 C 
BRANCH  24  25
ATOM     25  C   UNL     1      -1.578   0.549   0.455  0.00  0.00    +0.009 C 
BRANCH  25  26
ATOM     26  C   UNL     1      -2.380   1.189  -0.679  0.00  0.00    +0.055 C 
BRANCH  26  27
ATOM     27  C   UNL     1      -3.840   0.853  -0.514  0.00  0.00    +0.060 C 
ATOM     28  N   UNL     1      -4.223   0.132   0.471  0.00  0.00    -0.096 NA
BRANCH  27  29
ATOM     29  C   UNL     1      -4.849   1.368  -1.508  0.00  0.00    +0.031 C 
ATOM     30  C   UNL     1      -4.894   2.896  -1.446  0.00  0.00    +0.013 C 
ATOM     31  C   UNL     1      -4.448   0.926  -2.917  0.00  0.00    +0.013 C 
ENDBRANCH  27  29
BRANCH  28  32
ATOM     32  O   UNL     1      -5.575  -0.277   0.566  0.00  0.00    -0.409 OA
ATOM     33  H   UNL     1      -5.769  -0.819   1.343  0.00  0.00    +0.328 HD
ENDBRANCH  28  32
ENDBRANCH  26  27
ENDBRANCH  25  26
ENDBRANCH  24  25
ENDBRANCH   1  24
BRANCH  16  34
ATOM     34  O   UNL     1      10.597   0.595   2.160  0.00  0.00    -0.461 OA
BRANCH  34  35
ATOM     35  C   UNL     1      11.373   1.206   3.069  0.00  0.00    +0.304 C 
ATOM     36  O   UNL     1      10.876   1.695   4.056  0.00  0.00    -0.251 OA
ATOM     37  C   UNL     1      12.863   1.283   2.859  0.00  0.00    +0.136 C 
ENDBRANCH  34  35
ENDBRANCH  16  34
TORSDOF 8
