REMARK  Name = ZINC49644804
REMARK  8 active torsions:
REMARK  status: ('A' for Active; 'I' for Inactive)
REMARK    1  A    between atoms: C_1  and  C_2
REMARK    2  A    between atoms: C_2  and  C_3
REMARK    3  A    between atoms: C_3  and  C_30
REMARK    4  A    between atoms: N_6  and  C_10
REMARK    5  A    between atoms: C_10  and  C_11
REMARK    6  A    between atoms: C_11  and  N_13
REMARK    7  A    between atoms: N_20  and  C_23
REMARK    8  A    between atoms: C_23  and  C_24
REMARK                            x       y       z     vdW  Elec       q    Type
REMARK                         _______ _______ _______ _____ _____    ______ ____
ROOT
ATOM      1  C   UNL     1      -5.368   0.431  -1.812  0.00  0.00    +0.256 C 
ATOM      2  O   UNL     1      -5.362  -0.687  -1.333  0.00  0.00    -0.272 OA
ENDROOT
BRANCH   1   3
ATOM      3  N   UNL     1      -6.394   0.830  -2.553  0.00  0.00    -0.155 NA
ATOM      4  C   UNL     1      -7.420   0.005  -2.772  0.00  0.00    +0.163 A 
ATOM      5  N   UNL     1      -7.593  -1.266  -2.321  0.00  0.00    -0.339 N 
ATOM      6  C   UNL     1      -8.725  -1.954  -2.659  0.00  0.00    +0.024 A 
ATOM      7  C   UNL     1      -9.593  -1.285  -3.436  0.00  0.00    -0.004 A 
ATOM      8  S   UNL     1      -8.817   0.288  -3.669  0.00  0.00    -0.059 S 
ATOM      9  C   UNL     1     -10.898  -1.788  -3.958  0.00  0.00    -0.033 C 
ATOM     10  N   UNL     1     -10.926  -3.255  -3.804  0.00  0.00    +0.386 N 
ATOM     11  C   UNL     1     -10.546  -3.610  -2.430  0.00  0.00    -0.072 C 
ATOM     12  C   UNL     1      -9.046  -3.377  -2.219  0.00  0.00    +0.035 C 
ATOM     13  H   UNL     1      -6.917  -1.682  -1.763  0.00  0.00    +0.167 HD
ATOM     14  H   UNL     1     -10.276  -3.673  -4.452  0.00  0.00    -0.081 HD
BRANCH  10  15
ATOM     15  C   UNL     1     -12.281  -3.750  -4.081  0.00  0.00    -0.043 C 
BRANCH  15  16
ATOM     16  C   UNL     1     -12.624  -3.494  -5.526  0.00  0.00    -0.064 A 
ATOM     17  C   UNL     1     -13.228  -2.306  -5.892  0.00  0.00    +0.002 A 
ATOM     18  C   UNL     1     -13.543  -2.071  -7.218  0.00  0.00    +0.000 A 
ATOM     19  C   UNL     1     -13.254  -3.024  -8.176  0.00  0.00    +0.000 A 
ATOM     20  C   UNL     1     -12.649  -4.212  -7.810  0.00  0.00    +0.000 A 
ATOM     21  C   UNL     1     -12.330  -4.445  -6.485  0.00  0.00    +0.002 A 
ENDBRANCH  15  16
ENDBRANCH  10  15
ENDBRANCH   1   3
BRANCH   1  22
ATOM     22  C   UNL     1      -4.210   1.363  -1.565  0.00  0.00    +0.215 C 
BRANCH  22  26
ATOM     23  C   UNL     1      -1.433  -0.534   0.013  0.00  0.00    +0.138 C 
ATOM     24  C   UNL     1      -2.192  -0.043  -1.205  0.00  0.00    +0.251 C 
ATOM     25  O   UNL     1      -1.933  -0.267  -2.368  0.00  0.00    -0.272 OA
ATOM     26  N   UNL     1      -3.214   0.692  -0.725  0.00  0.00    -0.215 N 
ATOM     27  C   UNL     1      -3.207   0.734   0.612  0.00  0.00    +0.310 C 
ATOM     28  O   UNL     1      -4.031   1.335   1.273  0.00  0.00    -0.252 OA
ATOM     29  N   UNL     1      -2.187   0.036   1.143  0.00  0.00    -0.281 N 
ATOM     30  H   UNL     1      -1.987  -0.072   2.086  0.00  0.00    +0.152 HD
BRANCH  23  31
ATOM     31  C   UNL     1      -1.441  -2.039   0.076  0.00  0.00    -0.015 A 
ATOM     32  C   UNL     1      -0.400  -2.759  -0.480  0.00  0.00    +0.006 A 
ATOM     33  C   UNL     1      -0.407  -4.141  -0.423  0.00  0.00    +0.000 A 
ATOM     34  C   UNL     1      -1.454  -4.802   0.191  0.00  0.00    +0.000 A 
ATOM     35  C   UNL     1      -2.495  -4.082   0.748  0.00  0.00    +0.000 A 
ATOM     36  C   UNL     1      -2.486  -2.700   0.694  0.00  0.00    +0.006 A 
ENDBRANCH  23  31
BRANCH  23  38
ATOM     37  C   UNL     1      -0.019   1.526   0.010  0.00  0.00    +0.007 C 
ATOM     38  C   UNL     1       0.002  -0.004   0.002  0.00  0.00    +0.037 C 
ENDBRANCH  23  38
ENDBRANCH  22  26
ENDBRANCH   1  22
TORSDOF 7
