REMARK  Name = ZINC58510628
REMARK  7 active torsions:
REMARK  status: ('A' for Active; 'I' for Inactive)
REMARK    1  A    between atoms: C_1  and  C_2
REMARK    2  A    between atoms: C_3  and  C_12
REMARK    3  A    between atoms: C_8  and  S_10
REMARK    4  A    between atoms: S_10  and  C_11
REMARK    5  A    between atoms: C_12  and  C_13
REMARK    6  A    between atoms: C_13  and  C_14
REMARK    7  A    between atoms: C_19  and  C_22
REMARK                            x       y       z     vdW  Elec       q    Type
REMARK                         _______ _______ _______ _____ _____    ______ ____
ROOT
ATOM      1  C   UNL     1      -4.329   0.892  -1.407  0.00  0.00    +0.219 C 
ATOM      2  O   UNL     1      -4.811   1.258  -0.356  0.00  0.00    -0.275 OA
ATOM      3  N   UNL     1      -4.975   1.134  -2.565  0.00  0.00    -0.265 N 
ATOM      4  C   UNL     1      -6.193   1.802  -2.555  0.00  0.00    +0.165 A 
ATOM      5  N   UNL     1      -6.976   2.127  -3.567  0.00  0.00    -0.225 NA
ATOM      6  C   UNL     1      -8.117   2.771  -3.374  0.00  0.00    +0.080 A 
ATOM      7  C   UNL     1      -8.492   3.106  -2.103  0.00  0.00    +0.076 A 
ATOM      8  S   UNL     1      -7.120   2.443  -1.167  0.00  0.00    -0.060 S 
ATOM      9  H   UNL     1      -4.589   0.842  -3.406  0.00  0.00    +0.157 HD
ENDROOT
BRANCH   6  10
ATOM     10  C   UNL     1      -8.980   3.126  -4.527  0.00  0.00    +0.001 A 
ATOM     11  C   UNL     1     -10.178   3.809  -4.323  0.00  0.00    +0.010 A 
ATOM     12  C   UNL     1     -10.971   4.130  -5.402  0.00  0.00    +0.004 A 
ATOM     13  C   UNL     1     -10.589   3.781  -6.693  0.00  0.00    -0.044 A 
ATOM     14  C   UNL     1      -9.404   3.110  -6.900  0.00  0.00    -0.044 A 
ATOM     15  C   UNL     1      -8.598   2.785  -5.820  0.00  0.00    +0.014 A 
ATOM     16  C   UNL     1      -8.924   2.718  -8.274  0.00  0.00    +0.035 C 
ATOM     17  C   UNL     1     -10.076   2.755  -9.276  0.00  0.00    +0.005 C 
ATOM     18  C   UNL     1     -10.777   4.113  -9.158  0.00  0.00    +0.005 C 
ATOM     19  C   UNL     1     -11.514   4.160  -7.821  0.00  0.00    +0.035 C 
ENDBRANCH   6  10
BRANCH   1  20
ATOM     20  C   UNL     1      -3.008   0.167  -1.419  0.00  0.00    +0.101 C 
BRANCH  20  21
ATOM     21  C   UNL     1      -2.493   0.023   0.015  0.00  0.00    +0.051 C 
BRANCH  21  24
ATOM     22  C   UNL     1      -0.018   1.503   0.010  0.00  0.00    +0.066 C 
ATOM     23  C   UNL     1       0.002  -0.004   0.002  0.00  0.00    +0.049 A 
ATOM     24  C   UNL     1      -1.171  -0.701   0.004  0.00  0.00    +0.038 A 
ATOM     25  C   UNL     1      -1.128  -2.107  -0.004  0.00  0.00    +0.256 A 
ATOM     26  O   UNL     1      -2.158  -2.761  -0.004  0.00  0.00    -0.267 OA
ATOM     27  N   UNL     1       0.076  -2.718  -0.014  0.00  0.00    -0.302 N 
ATOM     28  H   UNL     1       0.130  -3.687  -0.020  0.00  0.00    +0.171 HD
ATOM     29  C   UNL     1       1.214  -1.970  -0.015  0.00  0.00    +0.169 A 
ATOM     30  N   UNL     1       1.164  -0.652  -0.013  0.00  0.00    -0.228 NA
BRANCH  29  31
ATOM     31  S   UNL     1       2.781  -2.777  -0.027  0.00  0.00    -0.091 S 
ATOM     32  C   UNL     1       3.977  -1.414  -0.025  0.00  0.00    +0.093 C 
ENDBRANCH  29  31
ENDBRANCH  21  24
ENDBRANCH  20  21
ENDBRANCH   1  20
TORSDOF 5
