REMARK  Name = ZINC24228173
REMARK  12 active torsions:
REMARK  status: ('A' for Active; 'I' for Inactive)
REMARK    1  A    between atoms: C_1  and  C_2
REMARK    2  A    between atoms: C_2  and  C_4
REMARK    3  A    between atoms: C_2  and  N_35
REMARK    4  A    between atoms: C_7  and  S_16
REMARK    5  A    between atoms: N_8  and  C_9
REMARK    6  A    between atoms: S_16  and  C_17
REMARK    7  A    between atoms: C_17  and  C_19
REMARK    8  A    between atoms: C_17  and  C_20
REMARK    9  A    between atoms: C_32  and  C_33
REMARK   10  A    between atoms: C_32  and  C_34
REMARK   11  A    between atoms: N_35  and  C_36
REMARK   12  A    between atoms: N_35  and  C_37
REMARK                            x       y       z     vdW  Elec       q    Type
REMARK                         _______ _______ _______ _____ _____    ______ ____
ROOT
ATOM      1  S   UNL     1      -3.955   2.394  -3.036  0.00  0.00    -0.073 S 
ENDROOT
BRANCH   1   5
ATOM      2  C   UNL     1      -3.396  -0.562  -5.525  0.00  0.00    +0.125 A 
ATOM      3  N   UNL     1      -2.453  -0.749  -4.646  0.00  0.00    -0.135 NA
ATOM      4  N   UNL     1      -2.501   0.165  -3.743  0.00  0.00    -0.122 NA
ATOM      5  C   UNL     1      -3.493   0.989  -3.994  0.00  0.00    +0.197 A 
ATOM      6  N   UNL     1      -4.094   0.552  -5.142  0.00  0.00    -0.275 N 
BRANCH   6   7
ATOM      7  C   UNL     1      -5.197   1.127  -5.792  0.00  0.00    +0.050 A 
ATOM      8  C   UNL     1      -6.391   0.426  -5.888  0.00  0.00    +0.029 A 
ATOM      9  C   UNL     1      -7.476   0.995  -6.524  0.00  0.00    +0.040 A 
ATOM     10  C   UNL     1      -7.371   2.261  -7.076  0.00  0.00    +0.124 A 
ATOM     11  C   UNL     1      -6.179   2.960  -6.986  0.00  0.00    +0.040 A 
ATOM     12  C   UNL     1      -5.093   2.396  -6.346  0.00  0.00    +0.029 A 
ATOM     13  F   UNL     1      -8.433   2.814  -7.702  0.00  0.00    -0.205 F 
ENDBRANCH   6   7
BRANCH   2  15
ATOM     14  C   UNL     1      -2.615  -1.127  -7.809  0.00  0.00    -0.005 C 
ATOM     15  C   UNL     1      -3.669  -1.414  -6.737  0.00  0.00    -0.003 C 
BRANCH  15  16
ATOM     16  N   UNL     1      -3.611  -2.833  -6.362  0.00  0.00    +0.382 N 
ATOM     17  C   UNL     1      -4.546  -3.126  -5.267  0.00  0.00    -0.096 C 
ATOM     18  C   UNL     1      -3.873  -3.696  -7.522  0.00  0.00    -0.096 C 
ATOM     19  H   UNL     1      -2.593  -3.047  -6.004  0.00  0.00    -0.082 HD
ENDBRANCH  15  16
ENDBRANCH   2  15
ENDBRANCH   1   5
BRANCH   1  20
ATOM     20  C   UNL     1      -2.716   2.299  -1.721  0.00  0.00    +0.137 C 
ATOM     21  C   UNL     1      -2.937   1.026  -0.901  0.00  0.00    +0.029 C 
BRANCH  20  22
ATOM     22  C   UNL     1      -2.844   3.503  -0.823  0.00  0.00    +0.234 C 
ATOM     23  O   UNL     1      -3.942   3.928  -0.531  0.00  0.00    -0.274 OA
ATOM     24  N   UNL     1      -1.738   4.107  -0.344  0.00  0.00    -0.255 N 
ATOM     25  C   UNL     1      -0.457   3.637  -0.671  0.00  0.00    +0.059 A 
ATOM     26  C   UNL     1      -0.236   2.300  -0.950  0.00  0.00    +0.025 A 
ATOM     27  C   UNL     1       1.041   1.865  -1.257  0.00  0.00    +0.002 A 
ATOM     28  C   UNL     1       2.091   2.763  -1.296  0.00  0.00    +0.002 A 
ATOM     29  C   UNL     1       1.876   4.102  -1.026  0.00  0.00    +0.025 A 
ATOM     30  C   UNL     1       0.602   4.546  -0.712  0.00  0.00    +0.055 A 
ATOM     31  N   UNL     1       0.361   5.898  -0.441  0.00  0.00    -0.282 N 
ATOM     32  C   UNL     1      -0.794   6.290   0.128  0.00  0.00    +0.241 C 
ATOM     33  O   UNL     1      -1.000   7.471   0.314  0.00  0.00    -0.273 OA
ATOM     34  C   UNL     1      -1.836   5.280   0.537  0.00  0.00    +0.113 C 
ATOM     35  C   UNL     1      -1.593   4.853   1.986  0.00  0.00    +0.042 C 
ATOM     36  C   UNL     1      -3.228   5.901   0.411  0.00  0.00    +0.042 C 
ATOM     37  H   UNL     1       1.120   6.653  -0.692  0.00  0.00    +0.155 HD
ENDBRANCH  20  22
ENDBRANCH   1  20
TORSDOF 6
