REMARK  Name = ZINC38732208
REMARK  5 active torsions:
REMARK  status: ('A' for Active; 'I' for Inactive)
REMARK    1  A    between atoms: C_4  and  C_7
REMARK    2  A    between atoms: C_7  and  C_9
REMARK    3  A    between atoms: C_7  and  N_16
REMARK    4  A    between atoms: C_17  and  C_19
REMARK    5  A    between atoms: C_25  and  C_27
REMARK                            x       y       z     vdW  Elec       q    Type
REMARK                         _______ _______ _______ _____ _____    ______ ____
ROOT
ATOM      1  C   UNL     1       3.897  -3.222   3.214  0.00  0.00    +0.087 C 
ATOM      2  C   UNL     1       2.482  -3.803   3.182  0.00  0.00    +0.013 C 
ATOM      3  C   UNL     1       1.462  -2.668   3.308  0.00  0.00    +0.001 C 
ATOM      4  C   UNL     1       1.682  -1.930   4.630  0.00  0.00    +0.001 C 
ATOM      5  C   UNL     1       3.097  -1.349   4.661  0.00  0.00    +0.013 C 
ATOM      6  C   UNL     1       4.116  -2.484   4.536  0.00  0.00    +0.087 C 
ENDROOT
BRANCH   6   7
ATOM      7  C   UNL     1       5.510  -1.912   4.567  0.00  0.00    +0.219 C 
ATOM      8  O   UNL     1       5.694  -0.747   4.282  0.00  0.00    -0.275 OA
ATOM      9  N   UNL     1       6.552  -2.695   4.911  0.00  0.00    -0.298 N 
ATOM     10  C   UNL     1       6.361  -4.132   5.147  0.00  0.00    +0.126 C 
ATOM     11  C   UNL     1       7.322  -4.910   4.239  0.00  0.00    +0.125 C 
ATOM     12  N   UNL     1       8.669  -4.341   4.384  0.00  0.00    -0.314 N 
ATOM     13  C   UNL     1       8.860  -2.903   4.147  0.00  0.00    +0.125 C 
ATOM     14  C   UNL     1       7.900  -2.127   5.050  0.00  0.00    +0.126 C 
ATOM     15  C   UNL     1       9.744  -5.148   4.739  0.00  0.00    +0.099 A 
ATOM     16  C   UNL     1       9.572  -6.527   4.824  0.00  0.00    +0.042 A 
ATOM     17  C   UNL     1      10.650  -7.318   5.178  0.00  0.00    +0.005 A 
ATOM     18  C   UNL     1      11.868  -6.702   5.436  0.00  0.00    +0.018 A 
ATOM     19  C   UNL     1      11.967  -5.329   5.332  0.00  0.00    +0.084 A 
ATOM     20  N   UNL     1      10.923  -4.599   4.987  0.00  0.00    -0.350 N 
ATOM     21  H   UNL     1      11.020  -3.637   4.918  0.00  0.00    +0.166 HD
ENDBRANCH   6   7
BRANCH   1  23
ATOM     22  N   UNL     1       3.924  -2.692   0.798  0.00  0.00    -0.304 N 
ATOM     23  C   UNL     1       4.071  -2.261   2.066  0.00  0.00    +0.218 C 
ATOM     24  O   UNL     1       4.344  -1.099   2.284  0.00  0.00    -0.275 OA
ATOM     25  H   UNL     1       3.706  -3.620   0.623  0.00  0.00    +0.150 HD
BRANCH  22  26
ATOM     26  C   UNL     1       4.093  -1.757  -0.318  0.00  0.00    +0.134 C 
BRANCH  26  27
ATOM     27  C   UNL     1       4.489  -2.519  -1.556  0.00  0.00    -0.023 A 
ATOM     28  C   UNL     1       3.896  -3.736  -1.837  0.00  0.00    +0.007 A 
ATOM     29  C   UNL     1       4.257  -4.436  -2.973  0.00  0.00    +0.020 A 
ATOM     30  C   UNL     1       5.213  -3.918  -3.829  0.00  0.00    +0.041 A 
ATOM     31  C   UNL     1       5.806  -2.700  -3.547  0.00  0.00    +0.020 A 
ATOM     32  C   UNL     1       5.439  -1.999  -2.414  0.00  0.00    +0.007 A 
ATOM     33 CL   UNL     1       5.668  -4.796  -5.255  0.00  0.00    -0.084 Cl
ENDBRANCH  26  27
BRANCH  26  37
ATOM     34  C   UNL     1       0.416   0.299  -1.025  0.00  0.00    +0.000 A 
ATOM     35  C   UNL     1       1.616   0.981  -1.103  0.00  0.00    +0.000 A 
ATOM     36  C   UNL     1       2.806   0.316  -0.874  0.00  0.00    +0.006 A 
ATOM     37  C   UNL     1       2.796  -1.032  -0.567  0.00  0.00    -0.023 A 
ATOM     38  C   UNL     1       1.597  -1.714  -0.488  0.00  0.00    +0.006 A 
ATOM     39  C   UNL     1       0.407  -1.049  -0.718  0.00  0.00    +0.000 A 
ENDBRANCH  26  37
ENDBRANCH  22  26
ENDBRANCH   1  23
TORSDOF 5
