REMARK  Name = ZINC35070780
REMARK  5 active torsions:
REMARK  status: ('A' for Active; 'I' for Inactive)
REMARK    1  A    between atoms: C_1  and  C_2
REMARK    2  A    between atoms: C_2  and  C_4
REMARK    3  A    between atoms: C_2  and  N_16
REMARK    4  A    between atoms: N_19  and  S_22
REMARK    5  A    between atoms: S_22  and  C_25
REMARK                            x       y       z     vdW  Elec       q    Type
REMARK                         _______ _______ _______ _____ _____    ______ ____
ROOT
ATOM      1  N   UNL     1       0.599  -0.452   1.268  0.00  0.00    -0.290 NA
ATOM      2  C   UNL     1       0.853  -1.898   1.247  0.00  0.00    +0.102 C 
ATOM      3  C   UNL     1       1.637  -2.294   2.503  0.00  0.00    +0.125 C 
ATOM      4  N   UNL     1       0.905  -1.808   3.683  0.00  0.00    -0.174 NA
ATOM      5  C   UNL     1       0.494  -0.396   3.713  0.00  0.00    +0.125 C 
ATOM      6  C   UNL     1      -0.244  -0.075   2.410  0.00  0.00    +0.102 C 
ENDROOT
BRANCH   4   7
ATOM      7  S   UNL     1       0.553  -2.823   4.943  0.00  0.00    +0.061 S 
ATOM      8  O   UNL     1      -0.574  -2.270   5.608  0.00  0.00    -0.153 OA
ATOM      9  O   UNL     1       0.554  -4.142   4.414  0.00  0.00    -0.153 OA
BRANCH   7  10
ATOM     10  C   UNL     1       1.900  -2.734   6.075  0.00  0.00    +0.106 A 
ATOM     11  C   UNL     1       2.973  -3.595   5.942  0.00  0.00    +0.029 A 
ATOM     12  C   UNL     1       4.030  -3.525   6.830  0.00  0.00    +0.017 A 
ATOM     13  C   UNL     1       4.014  -2.593   7.852  0.00  0.00    +0.018 A 
ATOM     14  C   UNL     1       2.940  -1.732   7.985  0.00  0.00    +0.017 A 
ATOM     15  C   UNL     1       1.886  -1.799   7.093  0.00  0.00    +0.029 A 
ATOM     16 BR   UNL     1       5.460  -2.498   9.067  0.00  0.00    -0.050 Br
ENDBRANCH   7  10
ENDBRANCH   4   7
BRANCH   1  18
ATOM     17  C   UNL     1      -1.464  -0.439  -0.053  0.00  0.00    +0.032 C 
ATOM     18  C   UNL     1       0.002  -0.004   0.002  0.00  0.00    +0.120 C 
BRANCH  18  19
ATOM     19  C   UNL     1       0.084   1.498  -0.088  0.00  0.00    +0.128 A 
ATOM     20  N   UNL     1       0.736   2.139   0.841  0.00  0.00    -0.194 NA
ATOM     21  C   UNL     1       0.854   3.480   0.830  0.00  0.00    +0.281 A 
ATOM     22  O   UNL     1       1.467   4.064   1.706  0.00  0.00    -0.265 OA
ATOM     23  C   UNL     1       0.219   4.222  -0.274  0.00  0.00    +0.065 A 
ATOM     24  C   UNL     1       0.288   5.610  -0.369  0.00  0.00    +0.017 A 
ATOM     25  C   UNL     1      -0.320   6.246  -1.416  0.00  0.00    +0.021 A 
ATOM     26  C   UNL     1      -1.005   5.521  -2.383  0.00  0.00    +0.043 A 
ATOM     27  C   UNL     1      -1.085   4.144  -2.306  0.00  0.00    +0.046 A 
ATOM     28  C   UNL     1      -0.473   3.482  -1.251  0.00  0.00    +0.054 A 
ATOM     29  N   UNL     1      -0.516   2.107  -1.126  0.00  0.00    -0.341 N 
ATOM     30 CL   UNL     1      -1.769   6.353  -3.701  0.00  0.00    -0.083 Cl
ATOM     31  H   UNL     1      -0.984   1.578  -1.790  0.00  0.00    +0.167 HD
ENDBRANCH  18  19
ENDBRANCH   1  18
TORSDOF 4
