REMARK  Name = ZINC67295501
REMARK  5 active torsions:
REMARK  status: ('A' for Active; 'I' for Inactive)
REMARK    1  A    between atoms: C_8  and  C_22
REMARK    2  A    between atoms: N_10  and  C_11
REMARK    3  A    between atoms: C_16  and  C_17
REMARK    4  A    between atoms: N_24  and  C_25
REMARK    5  A    between atoms: C_25  and  C_26
REMARK                            x       y       z     vdW  Elec       q    Type
REMARK                         _______ _______ _______ _____ _____    ______ ____
ROOT
ATOM      1  C   UNL     1      -0.050   0.886   1.988  0.00  0.00    +0.001 A 
ATOM      2  C   UNL     1       1.113   1.642   1.984  0.00  0.00    +0.004 A 
ATOM      3  C   UNL     1       2.299   1.109   1.518  0.00  0.00    +0.047 A 
ATOM      4  C   UNL     1       2.330  -0.196   1.050  0.00  0.00    +0.137 A 
ATOM      5  C   UNL     1       1.150  -0.964   1.058  0.00  0.00    +0.018 A 
ATOM      6  C   UNL     1      -0.042  -0.403   1.533  0.00  0.00    +0.011 A 
ATOM      7  C   UNL     1       1.187  -2.345   0.572  0.00  0.00    +0.030 A 
ATOM      8  C   UNL     1       2.437  -2.920   0.379  0.00  0.00    +0.097 A 
ATOM      9  C   UNL     1       3.615  -2.084   0.682  0.00  0.00    +0.212 A 
ATOM     10  N   UNL     1       4.760  -2.628   1.036  0.00  0.00    -0.325 N 
ATOM     11  O   UNL     1       3.482  -0.736   0.584  0.00  0.00    -0.439 OA
ATOM     12  H   UNL     1       4.833  -3.591   1.120  0.00  0.00    +0.169 HD
ENDROOT
BRANCH  10  13
ATOM     13  C   UNL     1       5.846  -1.835   1.284  0.00  0.00    +0.054 A 
ATOM     14  C   UNL     1       6.233  -0.864   0.357  0.00  0.00    +0.026 A 
ATOM     15  C   UNL     1       7.329  -0.068   0.614  0.00  0.00    +0.002 A 
ATOM     16  C   UNL     1       8.046  -0.230   1.787  0.00  0.00    +0.001 A 
ATOM     17  C   UNL     1       7.668  -1.189   2.709  0.00  0.00    +0.014 A 
ATOM     18  C   UNL     1       6.571  -1.989   2.468  0.00  0.00    +0.078 A 
BRANCH  18  19
ATOM     19  C   UNL     1       6.157  -3.029   3.477  0.00  0.00    +0.419 C 
ATOM     20  F   UNL     1       7.030  -2.991   4.570  0.00  0.00    -0.166 F 
ATOM     21  F   UNL     1       4.854  -2.765   3.911  0.00  0.00    -0.166 F 
ATOM     22  F   UNL     1       6.205  -4.296   2.887  0.00  0.00    -0.166 F 
ENDBRANCH  18  19
ENDBRANCH  10  13
BRANCH   8  23
ATOM     23  C   UNL     1       2.580  -4.303  -0.106  0.00  0.00    +0.250 C 
ATOM     24  O   UNL     1       3.682  -4.743  -0.371  0.00  0.00    -0.270 OA
ATOM     25  N   UNL     1       1.489  -5.080  -0.256  0.00  0.00    -0.304 N 
ATOM     26  H   UNL     1       0.619  -4.753   0.020  0.00  0.00    +0.149 HD
BRANCH  25  27
ATOM     27  C   UNL     1       1.619  -6.419  -0.837  0.00  0.00    +0.179 C 
BRANCH  27  28
ATOM     28  C   UNL     1       0.263  -7.075  -0.894  0.00  0.00    +0.122 A 
ATOM     29  C   UNL     1      -0.602  -7.005  -1.921  0.00  0.00    +0.046 A 
ATOM     30  C   UNL     1      -1.738  -7.761  -1.552  0.00  0.00    +0.041 A 
ATOM     31  C   UNL     1      -1.500  -8.247  -0.321  0.00  0.00    +0.195 A 
ATOM     32  O   UNL     1      -0.284  -7.833   0.071  0.00  0.00    -0.466 OA
ENDBRANCH  27  28
ENDBRANCH  25  27
ENDBRANCH   8  23
TORSDOF 5
