REMARK  Name = ZINC18212889
REMARK  3 active torsions:
REMARK  status: ('A' for Active; 'I' for Inactive)
REMARK    1  A    between atoms: C_6  and  C_7
REMARK    2  A    between atoms: C_7  and  C_8
REMARK    3  A    between atoms: C_7  and  C_16
REMARK                            x       y       z     vdW  Elec       q    Type
REMARK                         _______ _______ _______ _____ _____    ______ ____
ROOT
ATOM      1  C   UNL     1      -1.293  -0.775   0.010  0.00  0.00    +0.100 C 
ENDROOT
BRANCH   1   2
ATOM      2  C   UNL     1      -1.604  -1.575  -1.228  0.00  0.00    +0.095 A 
ATOM      3  C   UNL     1      -0.621  -1.799  -2.205  0.00  0.00    +0.259 A 
ATOM      4  N   UNL     1      -0.945  -2.521  -3.297  0.00  0.00    -0.313 N 
ATOM      5  C   UNL     1      -2.191  -3.014  -3.440  0.00  0.00    +0.203 A 
ATOM      6  N   UNL     1      -3.115  -2.813  -2.540  0.00  0.00    -0.199 NA
ATOM      7  C   UNL     1      -2.862  -2.111  -1.427  0.00  0.00    +0.281 A 
ATOM      8  O   UNL     1      -3.835  -1.923  -0.505  0.00  0.00    -0.265 OA
ATOM      9  O   UNL     1       0.506  -1.348  -2.068  0.00  0.00    -0.267 OA
ATOM     10  H   UNL     1      -0.279  -2.686  -3.983  0.00  0.00    +0.170 HD
ENDBRANCH   1   2
BRANCH   1  11
ATOM     11  C   UNL     1      -1.427  -1.657   1.225  0.00  0.00    +0.095 A 
ATOM     12  C   UNL     1      -1.750  -1.111   2.477  0.00  0.00    +0.259 A 
ATOM     13  N   UNL     1      -1.859  -1.939   3.537  0.00  0.00    -0.313 N 
ATOM     14  C   UNL     1      -1.660  -3.264   3.386  0.00  0.00    +0.203 A 
ATOM     15  N   UNL     1      -1.359  -3.784   2.228  0.00  0.00    -0.199 NA
ATOM     16  C   UNL     1      -1.240  -3.023   1.131  0.00  0.00    +0.281 A 
ATOM     17  O   UNL     1      -0.933  -3.588  -0.060  0.00  0.00    -0.265 OA
ATOM     18  O   UNL     1      -1.928   0.090   2.605  0.00  0.00    -0.267 OA
ATOM     19  H   UNL     1      -2.081  -1.580   4.410  0.00  0.00    +0.170 HD
ENDBRANCH   1  11
BRANCH   1  25
ATOM     20  C   UNL     1       0.344   1.047  -0.506  0.00  0.00    +0.005 A 
ATOM     21  C   UNL     1       1.636   1.532  -0.583  0.00  0.00    +0.015 A 
ATOM     22  C   UNL     1       2.701   0.724  -0.228  0.00  0.00    +0.018 A 
ATOM     23  C   UNL     1       2.472  -0.570   0.204  0.00  0.00    +0.015 A 
ATOM     24  C   UNL     1       1.180  -1.055   0.281  0.00  0.00    +0.005 A 
ATOM     25  C   UNL     1       0.116  -0.246  -0.074  0.00  0.00    -0.035 A 
ATOM     26 BR   UNL     1       4.468   1.387  -0.334  0.00  0.00    -0.050 Br
ENDBRANCH   1  25
TORSDOF 3
