REMARK  Name = ZINC63821822
REMARK  9 active torsions:
REMARK  status: ('A' for Active; 'I' for Inactive)
REMARK    1  A    between atoms: C_1  and  C_2
REMARK    2  A    between atoms: C_2  and  C_4
REMARK    3  A    between atoms: C_2  and  N_8
REMARK    4  A    between atoms: C_4  and  O_6
REMARK    5  A    between atoms: O_6  and  C_7
REMARK    6  A    between atoms: C_9  and  C_11
REMARK    7  A    between atoms: N_19  and  C_22
REMARK    8  A    between atoms: C_22  and  C_23
REMARK    9  A    between atoms: C_23  and  C_24
REMARK                            x       y       z     vdW  Elec       q    Type
REMARK                         _______ _______ _______ _____ _____    ______ ____
ROOT
ATOM      1  C   UNL     1       2.724  -1.064  -2.433  0.00  0.00    +0.037 A 
ATOM      2  C   UNL     1       1.986  -1.394  -3.569  0.00  0.00    +0.014 A 
ATOM      3  C   UNL     1       2.625  -1.841  -4.712  0.00  0.00    +0.014 A 
ATOM      4  C   UNL     1       4.006  -1.962  -4.729  0.00  0.00    +0.049 A 
ATOM      5  C   UNL     1       4.758  -1.631  -3.583  0.00  0.00    +0.050 A 
ATOM      6  C   UNL     1       4.117  -1.178  -2.443  0.00  0.00    +0.027 A 
ATOM      7  C   UNL     1       6.171  -1.873  -3.943  0.00  0.00    +0.254 C 
ATOM      8  O   UNL     1       7.127  -1.702  -3.214  0.00  0.00    -0.270 OA
ATOM      9  N   UNL     1       6.222  -2.314  -5.213  0.00  0.00    -0.234 N 
ATOM     10  C   UNL     1       4.990  -2.395  -5.747  0.00  0.00    +0.254 C 
ATOM     11  O   UNL     1       4.729  -2.762  -6.875  0.00  0.00    -0.270 OA
ENDROOT
BRANCH   1  13
ATOM     12  N   UNL     1       0.688  -0.476  -1.203  0.00  0.00    -0.299 N 
ATOM     13  C   UNL     1       2.031  -0.587  -1.215  0.00  0.00    +0.245 C 
ATOM     14  O   UNL     1       2.673  -0.295  -0.226  0.00  0.00    -0.270 OA
ATOM     15  H   UNL     1       0.175  -0.710  -1.993  0.00  0.00    +0.150 HD
BRANCH  12  17
ATOM     16  C   UNL     1      -0.019   1.526   0.010  0.00  0.00    +0.040 C 
ATOM     17  C   UNL     1       0.002  -0.004   0.002  0.00  0.00    +0.179 C 
BRANCH  17  18
ATOM     18  C   UNL     1      -1.412  -0.526   0.013  0.00  0.00    +0.327 C 
ATOM     19  O   UNL     1      -1.806  -1.221  -0.893  0.00  0.00    -0.249 OA
BRANCH  18  20
ATOM     20  O   UNL     1      -2.233  -0.218   1.029  0.00  0.00    -0.467 OA
ATOM     21  C   UNL     1      -3.559  -0.747   0.974  0.00  0.00    +0.280 C 
ENDBRANCH  18  20
ENDBRANCH  17  18
ENDBRANCH  12  17
ENDBRANCH   1  13
BRANCH   9  22
ATOM     22  C   UNL     1       7.457  -2.662  -5.920  0.00  0.00    +0.121 C 
BRANCH  22  23
ATOM     23  C   UNL     1       7.772  -4.142  -5.699  0.00  0.00    +0.052 C 
BRANCH  23  24
ATOM     24  C   UNL     1       9.042  -4.500  -6.427  0.00  0.00    -0.040 C 
ATOM     25  C   UNL     1      10.293  -4.533  -5.912  0.00  0.00    -0.001 A 
ATOM     26  C   UNL     1      10.824  -4.257  -4.572  0.00  0.00    +0.010 A 
ATOM     27  C   UNL     1      12.154  -4.377  -4.356  0.00  0.00    +0.001 A 
ATOM     28  C   UNL     1      13.035  -4.759  -5.377  0.00  0.00    +0.002 A 
ATOM     29  C   UNL     1      12.621  -5.030  -6.633  0.00  0.00    +0.026 A 
ATOM     30  C   UNL     1      11.244  -4.935  -6.973  0.00  0.00    +0.043 A 
ATOM     31  N   UNL     1      10.606  -5.141  -8.100  0.00  0.00    -0.380 N 
ATOM     32  C   UNL     1       9.176  -4.900  -7.879  0.00  0.00    +0.144 C 
ATOM     33  H   UNL     1      11.012  -5.413  -8.938  0.00  0.00    +0.160 HD
ENDBRANCH  23  24
ENDBRANCH  22  23
ENDBRANCH   9  22
TORSDOF 7
