REMARK  Name = ZINC04110457
REMARK  2 active torsions:
REMARK  status: ('A' for Active; 'I' for Inactive)
REMARK    1  A    between atoms: C_9  and  C_18
REMARK    2  A    between atoms: C_21  and  N_24
REMARK                            x       y       z     vdW  Elec       q    Type
REMARK                         _______ _______ _______ _____ _____    ______ ____
ROOT
ATOM      1  C   UNL     1      -1.222   1.745   0.017  0.00  0.00    +0.003 A 
ATOM      2  C   UNL     1      -0.013   1.076   0.008  0.00  0.00    +0.006 A 
ATOM      3  C   UNL     1       1.175   1.776   0.000  0.00  0.00    -0.017 A 
ATOM      4  C   UNL     1       1.175   3.173  -0.006  0.00  0.00    +0.067 A 
ATOM      5  C   UNL     1      -0.055   3.836   0.017  0.00  0.00    +0.144 A 
ATOM      6  C   UNL     1      -1.238   3.128   0.031  0.00  0.00    +0.040 A 
ATOM      7  F   UNL     1      -0.086   5.187   0.025  0.00  0.00    -0.204 F 
ATOM      8  N   UNL     1       2.329   3.955  -0.057  0.00  0.00    -0.334 N 
ATOM      9  C   UNL     1       3.615   3.243   0.016  0.00  0.00    +0.105 C 
ATOM     10  C   UNL     1       3.469   1.977  -0.802  0.00  0.00    +0.029 C 
ATOM     11  C   UNL     1       2.485   1.087   0.019  0.00  0.00    +0.049 C 
ATOM     12  C   UNL     1       2.684  -0.262  -0.567  0.00  0.00    -0.023 C 
ATOM     13  C   UNL     1       3.925  -0.339  -1.037  0.00  0.00    -0.030 C 
ATOM     14  C   UNL     1       4.646   0.995  -0.827  0.00  0.00    +0.033 C 
ATOM     15  H   UNL     1       2.307   4.581  -0.848  0.00  0.00    +0.147 HD
ENDROOT
BRANCH   9  16
ATOM     16  C   UNL     1       4.712   4.103  -0.556  0.00  0.00    -0.027 A 
ATOM     17  C   UNL     1       4.479   4.854  -1.693  0.00  0.00    +0.008 A 
ATOM     18  C   UNL     1       5.484   5.648  -2.214  0.00  0.00    +0.033 A 
ATOM     19  C   UNL     1       6.725   5.681  -1.605  0.00  0.00    +0.126 A 
ATOM     20  C   UNL     1       6.959   4.926  -0.472  0.00  0.00    +0.033 A 
ATOM     21  C   UNL     1       5.952   4.137   0.053  0.00  0.00    +0.008 A 
BRANCH  19  22
ATOM     22  N   UNL     1       7.802   6.527  -2.167  0.00  0.00    +0.056 N 
ATOM     23  O   UNL     1       8.895   6.557  -1.630  0.00  0.00    -0.126 OA
ATOM     24  O   UNL     1       7.596   7.193  -3.165  0.00  0.00    -0.126 OA
ENDBRANCH  19  22
ENDBRANCH   9  16
TORSDOF 2
