REMARK  Name = ZINC39940798
REMARK  9 active torsions:
REMARK  status: ('A' for Active; 'I' for Inactive)
REMARK    1  A    between atoms: C_1  and  C_2
REMARK    2  A    between atoms: C_5  and  N_9
REMARK    3  A    between atoms: C_7  and  C_8
REMARK    4  A    between atoms: C_10  and  C_34
REMARK    5  A    between atoms: C_13  and  S_14
REMARK    6  A    between atoms: S_14  and  C_15
REMARK    7  A    between atoms: C_15  and  C_17
REMARK    8  A    between atoms: C_15  and  C_23
REMARK    9  A    between atoms: C_23  and  C_25
REMARK                            x       y       z     vdW  Elec       q    Type
REMARK                         _______ _______ _______ _____ _____    ______ ____
ROOT
ATOM      1  S   UNL     1       2.587  -4.476   1.139  0.00  0.00    -0.070 S 
ENDROOT
BRANCH   1   6
ATOM      2  N   UNL     1       0.057  -4.172  -0.021  0.00  0.00    -0.270 N 
ATOM      3  C   UNL     1      -0.927  -5.016  -0.489  0.00  0.00    +0.169 A 
ATOM      4  N   UNL     1      -0.500  -6.244  -0.305  0.00  0.00    -0.128 NA
ATOM      5  N   UNL     1       0.664  -6.228   0.237  0.00  0.00    -0.122 NA
ATOM      6  C   UNL     1       1.058  -4.989   0.429  0.00  0.00    +0.197 A 
BRANCH   2  11
ATOM      7  C   UNL     1      -0.018   1.503   0.010  0.00  0.00    +0.044 C 
ATOM      8  C   UNL     1       0.002  -0.004   0.002  0.00  0.00    -0.047 A 
ATOM      9  C   UNL     1       0.006  -0.688  -1.200  0.00  0.00    +0.005 A 
ATOM     10  C   UNL     1       0.024  -2.068  -1.211  0.00  0.00    +0.026 A 
ATOM     11  C   UNL     1       0.039  -2.771  -0.013  0.00  0.00    +0.051 A 
ATOM     12  C   UNL     1       0.036  -2.082   1.192  0.00  0.00    +0.030 A 
ATOM     13  C   UNL     1       0.023  -0.700   1.196  0.00  0.00    -0.046 A 
ATOM     14  C   UNL     1       0.025   0.048   2.504  0.00  0.00    +0.044 C 
ENDBRANCH   2  11
BRANCH   3  15
ATOM     15  C   UNL     1      -2.218  -4.614  -1.086  0.00  0.00    +0.020 A 
ATOM     16  C   UNL     1      -2.677  -3.303  -0.945  0.00  0.00    +0.011 A 
ATOM     17  C   UNL     1      -3.883  -2.934  -1.504  0.00  0.00    +0.001 A 
ATOM     18  C   UNL     1      -4.638  -3.861  -2.203  0.00  0.00    +0.000 A 
ATOM     19  C   UNL     1      -4.188  -5.161  -2.346  0.00  0.00    +0.001 A 
ATOM     20  C   UNL     1      -2.981  -5.542  -1.797  0.00  0.00    +0.011 A 
ENDBRANCH   3  15
ENDBRANCH   1   6
BRANCH   1  21
ATOM     21  C   UNL     1       3.441  -6.032   1.513  0.00  0.00    +0.155 C 
BRANCH  21  22
ATOM     22  C   UNL     1       2.674  -6.785   2.568  0.00  0.00    -0.027 A 
ATOM     23  C   UNL     1       2.457  -6.211   3.807  0.00  0.00    +0.005 A 
ATOM     24  C   UNL     1       1.752  -6.902   4.775  0.00  0.00    +0.000 A 
ATOM     25  C   UNL     1       1.264  -8.167   4.505  0.00  0.00    +0.000 A 
ATOM     26  C   UNL     1       1.480  -8.740   3.266  0.00  0.00    +0.000 A 
ATOM     27  C   UNL     1       2.181  -8.047   2.296  0.00  0.00    +0.005 A 
ENDBRANCH  21  22
BRANCH  21  28
ATOM     28  C   UNL     1       4.829  -5.734   2.018  0.00  0.00    +0.179 C 
ATOM     29  O   UNL     1       5.068  -4.665   2.543  0.00  0.00    -0.291 OA
BRANCH  28  30
ATOM     30  C   UNL     1       5.852  -6.697   1.883  0.00  0.00    +0.025 C 
ATOM     31  C   UNL     1       7.167  -6.584   2.295  0.00  0.00    +0.006 A 
ATOM     32  C   UNL     1       7.888  -5.552   2.941  0.00  0.00    +0.010 A 
ATOM     33  C   UNL     1       9.198  -5.716   3.232  0.00  0.00    +0.001 A 
ATOM     34  C   UNL     1       9.900  -6.890   2.916  0.00  0.00    +0.002 A 
ATOM     35  C   UNL     1       9.305  -7.934   2.299  0.00  0.00    +0.026 A 
ATOM     36  C   UNL     1       7.878  -7.839   1.947  0.00  0.00    +0.043 A 
ATOM     37  N   UNL     1       7.070  -8.675   1.361  0.00  0.00    -0.380 N 
ATOM     38  C   UNL     1       5.737  -8.071   1.261  0.00  0.00    +0.152 C 
ATOM     39  H   UNL     1       7.310  -9.559   1.043  0.00  0.00    +0.160 HD
ENDBRANCH  28  30
ENDBRANCH  21  28
ENDBRANCH   1  21
TORSDOF 7
