REMARK  Name = ZINC06595634
REMARK  10 active torsions:
REMARK  status: ('A' for Active; 'I' for Inactive)
REMARK    1  A    between atoms: C_1  and  C_2
REMARK    2  A    between atoms: C_2  and  O_3
REMARK    3  A    between atoms: O_3  and  C_4
REMARK    4  A    between atoms: C_6  and  C_19
REMARK    5  A    between atoms: C_9  and  O_10
REMARK    6  A    between atoms: O_10  and  C_11
REMARK    7  A    between atoms: C_11  and  C_12
REMARK    8  A    between atoms: C_17  and  C_18
REMARK    9  A    between atoms: C_21  and  C_30
REMARK   10  A    between atoms: C_22  and  C_29
REMARK                            x       y       z     vdW  Elec       q    Type
REMARK                         _______ _______ _______ _____ _____    ______ ____
ROOT
ATOM      1  C   UNL     1       0.502  -1.579   0.832  0.00  0.00    +0.162 A 
ATOM      2  C   UNL     1      -0.029  -2.545  -0.007  0.00  0.00    +0.055 A 
ATOM      3  C   UNL     1       0.222  -3.883   0.234  0.00  0.00    -0.018 A 
ATOM      4  C   UNL     1       1.002  -4.260   1.310  0.00  0.00    +0.009 A 
ATOM      5  C   UNL     1       1.536  -3.301   2.151  0.00  0.00    +0.050 A 
ATOM      6  C   UNL     1       1.293  -1.958   1.912  0.00  0.00    +0.162 A 
ENDROOT
BRANCH   3   7
ATOM      7  C   UNL     1      -0.357  -4.933  -0.680  0.00  0.00    +0.158 C 
ATOM      8  C   UNL     1      -1.252  -5.884   0.125  0.00  0.00    +0.148 C 
ATOM      9  C   UNL     1      -0.429  -6.864   0.912  0.00  0.00    +0.034 C 
ATOM     10  N   UNL     1       0.709  -7.316   0.496  0.00  0.00    -0.220 NA
ATOM     11  C   UNL     1       1.209  -6.852  -0.687  0.00  0.00    +0.249 A 
ATOM     12  N   UNL     1       0.722  -5.722  -1.273  0.00  0.00    -0.221 N 
ATOM     13  N   UNL     1       1.441  -5.537  -2.449  0.00  0.00    -0.156 NA
ATOM     14  C   UNL     1       2.315  -6.514  -2.514  0.00  0.00    +0.247 A 
ATOM     15  N   UNL     1       2.176  -7.302  -1.443  0.00  0.00    -0.198 NA
ATOM     16  C   UNL     1      -0.953  -7.341   2.242  0.00  0.00    +0.062 C 
BRANCH   8  17
ATOM     17  C   UNL     1      -2.103  -5.079   1.073  0.00  0.00    +0.221 C 
ATOM     18  O   UNL     1      -1.604  -4.577   2.058  0.00  0.00    -0.275 OA
ATOM     19  N   UNL     1      -3.418  -4.916   0.826  0.00  0.00    -0.329 N 
ATOM     20  H   UNL     1      -3.816  -5.318   0.038  0.00  0.00    +0.145 HD
ATOM     21  H   UNL     1      -3.965  -4.398   1.436  0.00  0.00    +0.145 HD
ENDBRANCH   8  17
ENDBRANCH   3   7
BRANCH   1  22
ATOM     22  O   UNL     1       0.257  -0.262   0.596  0.00  0.00    -0.489 OA
BRANCH  22  24
ATOM     23  C   UNL     1      -0.727   1.571  -0.634  0.00  0.00    +0.048 C 
ATOM     24  C   UNL     1      -0.563   0.053  -0.531  0.00  0.00    +0.226 C 
ENDBRANCH  22  24
ENDBRANCH   1  22
BRANCH   6  25
ATOM     25  O   UNL     1       1.821  -1.013   2.735  0.00  0.00    -0.484 OA
BRANCH  25  26
ATOM     26  C   UNL     1       2.623  -1.476   3.824  0.00  0.00    +0.265 C 
BRANCH  26  27
ATOM     27  C   UNL     1       3.118  -0.296   4.620  0.00  0.00    -0.007 A 
ATOM     28  C   UNL     1       2.768   0.988   4.244  0.00  0.00    +0.007 A 
ATOM     29  C   UNL     1       3.222   2.070   4.974  0.00  0.00    +0.000 A 
ATOM     30  C   UNL     1       4.027   1.869   6.080  0.00  0.00    +0.000 A 
ATOM     31  C   UNL     1       4.377   0.585   6.456  0.00  0.00    +0.004 A 
ATOM     32  C   UNL     1       3.918  -0.497   5.729  0.00  0.00    -0.044 A 
ATOM     33  C   UNL     1       4.295  -1.897   6.142  0.00  0.00    +0.044 C 
ENDBRANCH  26  27
ENDBRANCH  25  26
ENDBRANCH   6  25
TORSDOF 7
