REMARK  Name = ZINC03318244
REMARK  8 active torsions:
REMARK  status: ('A' for Active; 'I' for Inactive)
REMARK    1  A    between atoms: C_3  and  N_10
REMARK    2  A    between atoms: C_5  and  N_7
REMARK    3  A    between atoms: C_11  and  C_13
REMARK    4  A    between atoms: C_13  and  C_14
REMARK    5  A    between atoms: N_18  and  C_29
REMARK    6  A    between atoms: N_20  and  C_21
REMARK    7  A    between atoms: C_29  and  C_30
REMARK    8  A    between atoms: C_30  and  C_31
REMARK                            x       y       z     vdW  Elec       q    Type
REMARK                         _______ _______ _______ _____ _____    ______ ____
ROOT
ATOM      1  C   UNL     1      -0.118  -2.564   5.430  0.00  0.00    +0.149 C 
ATOM      2  C   UNL     1      -0.380  -1.907   4.084  0.00  0.00    +0.235 C 
ATOM      3  O   UNL     1       0.330  -2.107   3.121  0.00  0.00    -0.274 OA
ATOM      4  N   UNL     1      -1.426  -1.101   4.030  0.00  0.00    -0.249 N 
ATOM      5  C   UNL     1      -2.240  -0.875   5.121  0.00  0.00    +0.164 C 
ATOM      6  N   UNL     1      -3.302  -0.108   5.194  0.00  0.00    -0.226 NA
ATOM      7  S   UNL     1      -1.507  -1.870   6.411  0.00  0.00    -0.077 S 
ENDROOT
BRANCH   6   8
ATOM      8  C   UNL     1      -3.992  -0.004   6.373  0.00  0.00    +0.067 A 
ATOM      9  C   UNL     1      -4.292  -1.149   7.113  0.00  0.00    +0.030 A 
ATOM     10  C   UNL     1      -4.983  -1.038   8.301  0.00  0.00    +0.040 A 
ATOM     11  C   UNL     1      -5.388   0.206   8.757  0.00  0.00    +0.124 A 
ATOM     12  C   UNL     1      -5.098   1.345   8.024  0.00  0.00    +0.040 A 
ATOM     13  C   UNL     1      -4.403   1.247   6.837  0.00  0.00    +0.030 A 
ATOM     14  F   UNL     1      -6.069   0.308   9.919  0.00  0.00    -0.205 F 
ENDBRANCH   6   8
BRANCH   1  15
ATOM     15  C   UNL     1      -0.218  -4.087   5.327  0.00  0.00    +0.120 C 
BRANCH  15  17
ATOM     16  N   UNL     1      -0.065  -6.035   6.844  0.00  0.00    -0.285 N 
ATOM     17  C   UNL     1      -0.018  -4.697   6.691  0.00  0.00    +0.219 C 
ATOM     18  O   UNL     1       0.184  -3.983   7.650  0.00  0.00    -0.275 OA
ATOM     19  H   UNL     1      -0.335  -6.677   5.993  0.00  0.00    +0.155 HD
BRANCH  16  22
ATOM     20  C   UNL     1      -0.128  -8.329   9.717  0.00  0.00    +0.004 A 
ATOM     21  C   UNL     1      -0.421  -7.766   8.490  0.00  0.00    +0.023 A 
ATOM     22  C   UNL     1       0.229  -6.607   8.086  0.00  0.00    +0.036 A 
ATOM     23  C   UNL     1       1.176  -6.021   8.916  0.00  0.00    +0.056 A 
ATOM     24  C   UNL     1       1.460  -6.585  10.144  0.00  0.00    +0.128 A 
ATOM     25  C   UNL     1       0.811  -7.739  10.543  0.00  0.00    +0.033 A 
BRANCH  24  26
ATOM     26  N   UNL     1       2.465  -5.958  11.031  0.00  0.00    +0.056 N 
ATOM     27  O   UNL     1       2.720  -6.458  12.113  0.00  0.00    -0.126 OA
ATOM     28  O   UNL     1       3.038  -4.942  10.680  0.00  0.00    -0.126 OA
ENDBRANCH  24  26
ENDBRANCH  16  22
ENDBRANCH  15  17
ENDBRANCH   1  15
BRANCH   4  29
ATOM     29  C   UNL     1      -1.737  -0.430   2.766  0.00  0.00    +0.120 C 
BRANCH  29  30
ATOM     30  C   UNL     1      -1.014   0.918   2.713  0.00  0.00    +0.050 C 
BRANCH  30  31
ATOM     31  C   UNL     1      -1.333   1.608   1.412  0.00  0.00    -0.072 C 
ATOM     32  C   UNL     1      -2.301   2.465   1.406  0.00  0.00    -0.028 C 
ATOM     33  C   UNL     1      -2.745   3.221   0.188  0.00  0.00    +0.027 C 
ATOM     34  C   UNL     1      -1.660   3.169  -0.889  0.00  0.00    +0.004 C 
ATOM     35  C   UNL     1      -1.222   1.709  -1.067  0.00  0.00    +0.005 C 
ATOM     36  C   UNL     1      -0.506   1.260   0.209  0.00  0.00    +0.030 C 
ENDBRANCH  30  31
ENDBRANCH  29  30
ENDBRANCH   4  29
TORSDOF 8
