REMARK  Name = ZINC39665644
REMARK  9 active torsions:
REMARK  status: ('A' for Active; 'I' for Inactive)
REMARK    1  A    between atoms: C_1  and  C_2
REMARK    2  A    between atoms: C_2  and  C_4
REMARK    3  A    between atoms: C_2  and  O_27
REMARK    4  A    between atoms: C_4  and  N_5
REMARK    5  A    between atoms: C_6  and  C_8
REMARK    6  A    between atoms: C_19  and  C_21
REMARK    7  A    between atoms: O_27  and  C_28
REMARK    8  A    between atoms: C_31  and  O_34
REMARK    9  A    between atoms: O_34  and  C_35
REMARK                            x       y       z     vdW  Elec       q    Type
REMARK                         _______ _______ _______ _____ _____    ______ ____
ROOT
ATOM      1  C   UNL     1       2.245  -3.038   2.654  0.00  0.00    +0.100 C 
ATOM      2  C   UNL     1       0.842  -3.685   2.663  0.00  0.00    +0.121 C 
ATOM      3  N   UNL     1       0.943  -4.784   3.652  0.00  0.00    -0.296 N 
ATOM      4  C   UNL     1       1.773  -4.221   4.745  0.00  0.00    +0.115 C 
ATOM      5  C   UNL     1       2.853  -3.391   4.021  0.00  0.00    -0.004 C 
ATOM      6  C   UNL     1       4.120  -4.220   3.838  0.00  0.00    -0.010 C 
ATOM      7  C   UNL     1       4.737  -4.511   5.209  0.00  0.00    -0.082 C 
ATOM      8  N   UNL     1       5.049  -3.247   5.886  0.00  0.00    +0.379 N 
ATOM      9  C   UNL     1       3.813  -2.497   6.141  0.00  0.00    -0.082 C 
ATOM     10  C   UNL     1       3.157  -2.121   4.809  0.00  0.00    -0.010 C 
ATOM     11  C   UNL     1       0.403  -6.016   3.576  0.00  0.00    +0.247 C 
ATOM     12  O   UNL     1      -0.166  -6.369   2.562  0.00  0.00    -0.270 OA
ATOM     13  H   UNL     1       5.510  -3.440   6.762  0.00  0.00    -0.086 HD
ATOM     14  H   UNL     1       5.660  -2.696   5.301  0.00  0.00    -0.086 HD
ENDROOT
BRANCH  11  15
ATOM     15  C   UNL     1       0.502  -6.939   4.727  0.00  0.00    +0.037 A 
ATOM     16  C   UNL     1       0.698  -6.436   6.014  0.00  0.00    +0.013 A 
ATOM     17  C   UNL     1       0.789  -7.303   7.083  0.00  0.00    +0.001 A 
ATOM     18  C   UNL     1       0.687  -8.668   6.882  0.00  0.00    +0.000 A 
ATOM     19  C   UNL     1       0.493  -9.173   5.609  0.00  0.00    +0.001 A 
ATOM     20  C   UNL     1       0.394  -8.317   4.532  0.00  0.00    +0.013 A 
ENDBRANCH  11  15
BRANCH   1  22
ATOM     21  N   UNL     1       3.109  -0.853   1.879  0.00  0.00    -0.312 N 
ATOM     22  C   UNL     1       2.132  -1.542   2.501  0.00  0.00    +0.218 C 
ATOM     23  O   UNL     1       1.162  -0.960   2.937  0.00  0.00    -0.275 OA
ATOM     24  H   UNL     1       3.885  -1.319   1.530  0.00  0.00    +0.149 HD
BRANCH  21  25
ATOM     25  C   UNL     1       2.999   0.600   1.730  0.00  0.00    +0.148 C 
BRANCH  25  27
ATOM     26  C   UNL     1       4.117   2.650   0.840  0.00  0.00    +0.053 C 
ATOM     27  C   UNL     1       4.231   1.132   0.995  0.00  0.00    +0.187 C 
BRANCH  27  28
ATOM     28  O   UNL     1       5.406   0.817   1.745  0.00  0.00    -0.488 OA
BRANCH  28  29
ATOM     29  C   UNL     1       6.540   0.562   1.038  0.00  0.00    +0.121 A 
ATOM     30  C   UNL     1       7.678   0.113   1.691  0.00  0.00    +0.049 A 
ATOM     31  C   UNL     1       8.829  -0.146   0.973  0.00  0.00    +0.049 A 
ATOM     32  C   UNL     1       8.847   0.042  -0.401  0.00  0.00    +0.120 A 
ATOM     33  C   UNL     1       7.708   0.490  -1.054  0.00  0.00    +0.049 A 
ATOM     34  C   UNL     1       6.555   0.745  -0.337  0.00  0.00    +0.049 A 
BRANCH  32  35
ATOM     35  O   UNL     1       9.980  -0.213  -1.108  0.00  0.00    -0.495 OA
ATOM     36  C   UNL     1       9.927   0.003  -2.519  0.00  0.00    +0.277 C 
ENDBRANCH  32  35
ENDBRANCH  28  29
ENDBRANCH  27  28
ENDBRANCH  25  27
ENDBRANCH  21  25
ENDBRANCH   1  22
TORSDOF 7
