REMARK  Name = ZINC32698978
REMARK  5 active torsions:
REMARK  status: ('A' for Active; 'I' for Inactive)
REMARK    1  A    between atoms: C_3  and  N_24
REMARK    2  A    between atoms: C_6  and  C_7
REMARK    3  A    between atoms: C_10  and  S_12
REMARK    4  A    between atoms: S_12  and  C_13
REMARK    5  A    between atoms: C_13  and  C_14
REMARK                            x       y       z     vdW  Elec       q    Type
REMARK                         _______ _______ _______ _____ _____    ______ ____
ROOT
ATOM      1  C   UNL     1       1.020   0.367   4.631  0.00  0.00    +0.249 A 
ATOM      2  N   UNL     1       1.745  -0.129   3.658  0.00  0.00    -0.106 NA
ATOM      3  N   UNL     1       1.239   0.219   2.528  0.00  0.00    -0.101 NA
ATOM      4  C   UNL     1       0.170   0.953   2.735  0.00  0.00    +0.278 A 
ATOM      5  O   UNL     1       0.011   1.067   4.067  0.00  0.00    -0.411 OA
ENDROOT
BRANCH   1  11
ATOM      6  C   UNL     1       0.410   0.791   7.009  0.00  0.00    +0.015 A 
ATOM      7  C   UNL     1       0.642   0.624   8.358  0.00  0.00    +0.033 A 
ATOM      8  C   UNL     1       1.725  -0.121   8.791  0.00  0.00    +0.126 A 
ATOM      9  C   UNL     1       2.580  -0.707   7.874  0.00  0.00    +0.033 A 
ATOM     10  C   UNL     1       2.357  -0.552   6.522  0.00  0.00    +0.015 A 
ATOM     11  C   UNL     1       1.265   0.197   6.079  0.00  0.00    +0.039 A 
BRANCH   8  12
ATOM     12  N   UNL     1       1.970  -0.291  10.241  0.00  0.00    +0.056 N 
ATOM     13  O   UNL     1       2.923  -0.945  10.625  0.00  0.00    -0.126 OA
ATOM     14  O   UNL     1       1.220   0.224  11.050  0.00  0.00    -0.126 OA
ENDBRANCH   8  12
ENDBRANCH   1  11
BRANCH   4  15
ATOM     15  S   UNL     1      -0.863   1.664   1.497  0.00  0.00    -0.056 S 
BRANCH  15  16
ATOM     16  C   UNL     1      -0.015   1.082   0.008  0.00  0.00    +0.175 C 
BRANCH  16  17
ATOM     17  C   UNL     1      -0.743   1.583  -1.213  0.00  0.00    +0.229 C 
ATOM     18  O   UNL     1      -1.737   2.266  -1.088  0.00  0.00    -0.275 OA
ATOM     19  N   UNL     1      -0.288   1.272  -2.443  0.00  0.00    -0.270 N 
ATOM     20  C   UNL     1      -1.019   1.645  -3.571  0.00  0.00    +0.125 A 
ATOM     21  C   UNL     1      -0.601   1.230  -4.830  0.00  0.00    +0.045 A 
ATOM     22  C   UNL     1      -1.338   1.602  -5.940  0.00  0.00    +0.019 A 
ATOM     23  C   UNL     1      -2.467   2.390  -5.753  0.00  0.00    +0.032 A 
ATOM     24  C   UNL     1      -2.820   2.770  -4.473  0.00  0.00    +0.127 A 
ATOM     25  N   UNL     1      -2.100   2.395  -3.433  0.00  0.00    -0.239 NA
ATOM     26  I   UNL     1      -3.621   2.993  -7.394  0.00  0.00    -0.042 I 
ATOM     27  H   UNL     1       0.659   0.725  -2.558  0.00  0.00    +0.156 HD
ENDBRANCH  16  17
ENDBRANCH  15  16
ENDBRANCH   4  15
TORSDOF 5
