REMARK  Name = ZINC12792294
REMARK  7 active torsions:
REMARK  status: ('A' for Active; 'I' for Inactive)
REMARK    1  A    between atoms: C_4  and  N_23
REMARK    2  A    between atoms: C_5  and  N_7
REMARK    3  A    between atoms: C_8  and  C_10
REMARK    4  A    between atoms: C_10  and  C_11
REMARK    5  A    between atoms: C_11  and  N_12
REMARK    6  A    between atoms: N_12  and  S_13
REMARK    7  A    between atoms: S_13  and  C_16
REMARK                            x       y       z     vdW  Elec       q    Type
REMARK                         _______ _______ _______ _____ _____    ______ ____
ROOT
ATOM      1  N   UNL     1       0.029   5.013   1.533  0.00  0.00    -0.284 N 
ATOM      2  C   UNL     1       0.737   6.119   1.838  0.00  0.00    +0.219 C 
ATOM      3  O   UNL     1       0.253   6.970   2.554  0.00  0.00    -0.275 OA
ATOM      4  H   UNL     1       0.439   4.303   1.015  0.00  0.00    +0.155 HD
ENDROOT
BRANCH   1   9
ATOM      5  C   UNL     1      -2.992   5.293   3.613  0.00  0.00    +0.002 A 
ATOM      6  C   UNL     1      -3.922   4.645   2.820  0.00  0.00    +0.002 A 
ATOM      7  C   UNL     1      -3.548   4.122   1.597  0.00  0.00    +0.025 A 
ATOM      8  C   UNL     1      -2.235   4.236   1.166  0.00  0.00    +0.057 A 
ATOM      9  C   UNL     1      -1.297   4.889   1.965  0.00  0.00    +0.055 A 
ATOM     10  C   UNL     1      -1.683   5.416   3.189  0.00  0.00    +0.025 A 
BRANCH   8  11
ATOM     11  N   UNL     1      -1.852   3.701  -0.071  0.00  0.00    -0.270 N 
ATOM     12  C   UNL     1      -1.352   2.335  -0.264  0.00  0.00    +0.114 C 
ATOM     13  C   UNL     1      -0.665   2.339  -1.648  0.00  0.00    +0.029 C 
ATOM     14  C   UNL     1      -1.402   3.496  -2.362  0.00  0.00    +0.098 C 
ATOM     15  C   UNL     1      -1.896   4.374  -1.234  0.00  0.00    +0.220 C 
ATOM     16  O   UNL     1      -2.276   5.519  -1.360  0.00  0.00    -0.275 OA
ENDBRANCH   8  11
ENDBRANCH   1   9
BRANCH   2  17
ATOM     17  C   UNL     1       2.129   6.298   1.290  0.00  0.00    +0.113 C 
BRANCH  17  18
ATOM     18  C   UNL     1       2.705   7.626   1.784  0.00  0.00    +0.115 C 
BRANCH  18  19
ATOM     19  N   UNL     1       4.059   7.800   1.251  0.00  0.00    -0.189 NA
ATOM     20  H   UNL     1       4.529   7.044   0.867  0.00  0.00    +0.148 HD
BRANCH  19  21
ATOM     21  S   UNL     1       4.785   9.287   1.304  0.00  0.00    +0.061 S 
ATOM     22  O   UNL     1       6.081   9.127   0.744  0.00  0.00    -0.153 OA
ATOM     23  O   UNL     1       3.842  10.218   0.789  0.00  0.00    -0.153 OA
BRANCH  21  24
ATOM     24  C   UNL     1       5.017   9.693   3.003  0.00  0.00    +0.140 A 
ATOM     25  C   UNL     1       6.294   9.811   3.518  0.00  0.00    +0.031 A 
ATOM     26  C   UNL     1       6.476  10.135   4.849  0.00  0.00    +0.002 A 
ATOM     27  C   UNL     1       5.381  10.331   5.670  0.00  0.00    +0.003 A 
ATOM     28  C   UNL     1       4.104  10.208   5.159  0.00  0.00    +0.040 A 
ATOM     29  C   UNL     1       3.920   9.889   3.824  0.00  0.00    +0.150 A 
ATOM     30  F   UNL     1       2.670   9.768   3.324  0.00  0.00    -0.203 F 
ENDBRANCH  21  24
ENDBRANCH  19  21
ENDBRANCH  18  19
ENDBRANCH  17  18
ENDBRANCH   2  17
TORSDOF 7
