REMARK  Name = ZINC04587387
REMARK  6 active torsions:
REMARK  status: ('A' for Active; 'I' for Inactive)
REMARK    1  A    between atoms: C_1  and  O_2
REMARK    2  A    between atoms: O_2  and  C_3
REMARK    3  A    between atoms: C_5  and  C_11
REMARK    4  A    between atoms: C_8  and  O_9
REMARK    5  A    between atoms: N_12  and  N_13
REMARK    6  A    between atoms: C_14  and  C_16
REMARK                            x       y       z     vdW  Elec       q    Type
REMARK                         _______ _______ _______ _____ _____    ______ ____
ROOT
ATOM      1  N   UNL     1       3.633   0.473   6.202  0.00  0.00    -0.207 N 
ATOM      2  C   UNL     1       4.251  -0.141   7.231  0.00  0.00    +0.238 C 
ATOM      3  O   UNL     1       4.301  -1.352   7.272  0.00  0.00    -0.273 OA
ATOM      4  H   UNL     1       3.593   1.442   6.168  0.00  0.00    +0.177 HD
ENDROOT
BRANCH   2   5
ATOM      5  C   UNL     1       4.879   0.678   8.329  0.00  0.00    +0.049 C 
ATOM      6  C   UNL     1       5.960   1.584   7.736  0.00  0.00    +0.019 C 
ATOM      7  C   UNL     1       6.598   2.415   8.851  0.00  0.00    -0.009 C 
ATOM      8  C   UNL     1       7.226   1.481   9.887  0.00  0.00    +0.007 C 
ATOM      9  C   UNL     1       6.145   0.576  10.481  0.00  0.00    -0.009 C 
ATOM     10  C   UNL     1       5.507  -0.256   9.365  0.00  0.00    +0.019 C 
ATOM     11  C   UNL     1       5.072   1.435  11.153  0.00  0.00    +0.007 C 
ATOM     12  C   UNL     1       4.444   2.369  10.117  0.00  0.00    -0.009 C 
ATOM     13  C   UNL     1       5.525   3.274   9.523  0.00  0.00    +0.007 C 
ATOM     14  C   UNL     1       3.806   1.538   9.001  0.00  0.00    +0.019 C 
ENDBRANCH   2   5
BRANCH   1  16
ATOM     15  C   UNL     1       2.455   0.303   4.190  0.00  0.00    +0.138 C 
ATOM     16  N   UNL     1       3.050  -0.288   5.181  0.00  0.00    -0.188 NA
BRANCH  15  19
ATOM     17  C   UNL     1       0.626  -0.619   1.042  0.00  0.00    +0.163 A 
ATOM     18  C   UNL     1       1.200   0.137   2.048  0.00  0.00    +0.059 A 
ATOM     19  C   UNL     1       1.841  -0.498   3.115  0.00  0.00    -0.001 A 
ATOM     20  C   UNL     1       1.898  -1.893   3.161  0.00  0.00    +0.028 A 
ATOM     21  C   UNL     1       1.323  -2.640   2.154  0.00  0.00    +0.063 A 
ATOM     22  C   UNL     1       0.682  -2.009   1.097  0.00  0.00    +0.173 A 
ATOM     23 BR   UNL     1       1.402  -4.529   2.218  0.00  0.00    -0.046 Br
BRANCH  17  25
ATOM     24  C   UNL     1      -0.017   1.425   0.010  0.00  0.00    +0.277 C 
ATOM     25  O   UNL     1       0.002  -0.004   0.002  0.00  0.00    -0.491 OA
ENDBRANCH  17  25
BRANCH  22  26
ATOM     26  O   UNL     1       0.112  -2.751   0.110  0.00  0.00    -0.503 OA
ATOM     27  H   UNL     1       0.708  -2.952  -0.624  0.00  0.00    +0.292 HD
ENDBRANCH  22  26
ENDBRANCH  15  19
ENDBRANCH   1  16
TORSDOF 5
