REMARK  Name = ZINC08120846
REMARK  9 active torsions:
REMARK  status: ('A' for Active; 'I' for Inactive)
REMARK    1  A    between atoms: C_1  and  C_2
REMARK    2  A    between atoms: C_2  and  C_3
REMARK    3  A    between atoms: C_3  and  N_4
REMARK    4  A    between atoms: C_8  and  C_10
REMARK    5  A    between atoms: C_10  and  N_44
REMARK    6  A    between atoms: C_11  and  N_44
REMARK    7  A    between atoms: C_12  and  C_13
REMARK    8  A    between atoms: C_12  and  N_44
REMARK    9  A    between atoms: N_15  and  C_16
REMARK                            x       y       z     vdW  Elec       q    Type
REMARK                         _______ _______ _______ _____ _____    ______ ____
ROOT
ATOM      1  C   UNL     1       2.461   0.264   1.254  0.00  0.00    -0.095 C 
ATOM      2  N   UNL     1       2.405   1.021  -0.015  0.00  0.00    +0.389 N 
ATOM      3  H   UNL     1       2.261   0.363  -0.790  0.00  0.00    -0.081 HD
ENDROOT
BRANCH   2   4
ATOM      4  C   UNL     1       3.678   1.742  -0.228  0.00  0.00    +0.019 C 
BRANCH   4   9
ATOM      5  N   UNL     1       8.266   0.673  -1.183  0.00  0.00    -0.299 N 
ATOM      6  C   UNL     1       7.008   0.255  -0.941  0.00  0.00    +0.306 C 
ATOM      7  O   UNL     1       6.755  -0.934  -0.924  0.00  0.00    -0.252 OA
ATOM      8  N   UNL     1       6.030   1.155  -0.719  0.00  0.00    -0.242 N 
ATOM      9  C   UNL     1       4.771   0.736  -0.477  0.00  0.00    +0.204 C 
ATOM     10  O   UNL     1       4.520  -0.450  -0.460  0.00  0.00    -0.277 OA
ATOM     11  H   UNL     1       8.468   1.622  -1.196  0.00  0.00    +0.150 HD
ATOM     12  H   UNL     1       6.231   2.103  -0.732  0.00  0.00    +0.159 HD
BRANCH   5  13
ATOM     13  C   UNL     1       9.329  -0.305  -1.425  0.00  0.00    +0.105 C 
BRANCH  13  15
ATOM     14  C   UNL     1      11.761  -0.595  -1.923  0.00  0.00    +0.005 C 
ATOM     15  C   UNL     1      10.650   0.427  -1.670  0.00  0.00    +0.015 C 
ENDBRANCH  13  15
ENDBRANCH   5  13
ENDBRANCH   4   9
ENDBRANCH   2   4
BRANCH   2  16
ATOM     16  C   UNL     1       1.280   1.979   0.018  0.00  0.00    +0.019 C 
BRANCH  16  17
ATOM     17  C   UNL     1      -0.015   1.208   0.015  0.00  0.00    +0.201 C 
ATOM     18  O   UNL     1       0.001  -0.004   0.004  0.00  0.00    -0.278 OA
ATOM     19  N   UNL     1      -1.191   1.867   0.018  0.00  0.00    -0.286 N 
ATOM     20  H   UNL     1      -1.205   2.834   0.092  0.00  0.00    +0.155 HD
BRANCH  19  21
ATOM     21  C   UNL     1      -2.391   1.155  -0.086  0.00  0.00    +0.047 A 
ATOM     22  C   UNL     1      -2.510  -0.099   0.499  0.00  0.00    +0.024 A 
ATOM     23  C   UNL     1      -3.698  -0.796   0.399  0.00  0.00    +0.002 A 
ATOM     24  C   UNL     1      -4.765  -0.252  -0.291  0.00  0.00    +0.001 A 
ATOM     25  C   UNL     1      -4.649   0.994  -0.880  0.00  0.00    +0.017 A 
ATOM     26  C   UNL     1      -3.465   1.699  -0.779  0.00  0.00    +0.039 A 
ATOM     27 BR   UNL     1      -3.307   3.402  -1.585  0.00  0.00    -0.048 Br
ENDBRANCH  19  21
ENDBRANCH  16  17
ENDBRANCH   2  16
TORSDOF 7
