REMARK  Name = ZINC20385591
REMARK  13 active torsions:
REMARK  status: ('A' for Active; 'I' for Inactive)
REMARK    1  A    between atoms: C_1  and  C_2
REMARK    2  A    between atoms: C_7  and  C_21
REMARK    3  A    between atoms: C_9  and  C_13
REMARK    4  A    between atoms: C_10  and  C_12
REMARK    5  A    between atoms: C_13  and  O_15
REMARK    6  A    between atoms: O_15  and  C_16
REMARK    7  A    between atoms: C_26  and  O_27
REMARK    8  A    between atoms: O_27  and  C_28
REMARK    9  A    between atoms: C_28  and  C_29
REMARK   10  A    between atoms: C_28  and  C_30
REMARK   11  A    between atoms: C_33  and  C_35
REMARK   12  A    between atoms: C_35  and  O_37
REMARK   13  A    between atoms: O_37  and  C_38
REMARK                            x       y       z     vdW  Elec       q    Type
REMARK                         _______ _______ _______ _____ _____    ______ ____
ROOT
ATOM      1  C   UNL     1      -5.706   1.817  -3.017  0.00  0.00    +0.009 C 
ATOM      2  C   UNL     1      -5.002   3.163  -3.198  0.00  0.00    +0.013 C 
ATOM      3  C   UNL     1      -5.013   3.931  -1.874  0.00  0.00    +0.055 C 
ATOM      4  C   UNL     1      -4.262   3.147  -0.827  0.00  0.00    +0.016 C 
ATOM      5  C   UNL     1      -3.231   2.345  -1.165  0.00  0.00    +0.025 C 
ATOM      6  C   UNL     1      -2.477   1.573  -0.112  0.00  0.00    +0.096 C 
ATOM      7  C   UNL     1      -3.269   1.485   1.160  0.00  0.00    +0.065 C 
ATOM      8  C   UNL     1      -4.297   2.317   1.400  0.00  0.00    +0.016 C 
ATOM      9  N   UNL     1      -4.651   3.264   0.481  0.00  0.00    -0.321 N 
ATOM     10  C   UNL     1      -5.065   2.204   2.692  0.00  0.00    +0.061 C 
ATOM     11  C   UNL     1      -2.831   2.203  -2.506  0.00  0.00    +0.176 C 
ATOM     12  O   UNL     1      -1.892   1.481  -2.776  0.00  0.00    -0.291 OA
ATOM     13  C   UNL     1      -3.545   2.931  -3.612  0.00  0.00    +0.171 C 
ATOM     14  H   UNL     1      -5.255   4.126   0.800  0.00  0.00    +0.152 HD
ENDROOT
BRANCH   6  15
ATOM     15  C   UNL     1      -1.168   2.266   0.167  0.00  0.00    +0.006 A 
ATOM     16  C   UNL     1      -1.160   3.551   0.673  0.00  0.00    +0.008 A 
ATOM     17  C   UNL     1       0.040   4.189   0.924  0.00  0.00    +0.001 A 
ATOM     18  C   UNL     1       1.236   3.541   0.675  0.00  0.00    +0.004 A 
ATOM     19  C   UNL     1       1.234   2.253   0.174  0.00  0.00    +0.046 A 
ATOM     20  C   UNL     1       0.030   1.611  -0.079  0.00  0.00    +0.125 A 
BRANCH  20  21
ATOM     21  O   UNL     1       0.025   0.345  -0.572  0.00  0.00    -0.489 OA
BRANCH  21  22
ATOM     22  C   UNL     1       1.291  -0.226  -0.907  0.00  0.00    +0.167 C 
ATOM     23  C   UNL     1       1.921  -0.841   0.344  0.00  0.00    +0.051 C 
ATOM     24  C   UNL     1       1.096  -1.313  -1.967  0.00  0.00    +0.051 C 
ENDBRANCH  21  22
ENDBRANCH  20  21
ENDBRANCH   6  15
BRANCH   7  25
ATOM     25  C   UNL     1      -2.926   0.508   2.124  0.00  0.00    +0.338 C 
ATOM     26  O   UNL     1      -3.623   0.357   3.110  0.00  0.00    -0.245 OA
BRANCH  25  27
ATOM     27  O   UNL     1      -1.827  -0.255   1.950  0.00  0.00    -0.458 OA
BRANCH  27  28
ATOM     28  C   UNL     1      -1.577  -1.265   2.930  0.00  0.00    +0.177 C 
ATOM     29  C   UNL     1      -0.735  -0.683   4.085  0.00  0.00    +0.044 C 
ATOM     30  C   UNL     1       0.217  -1.841   4.480  0.00  0.00    +0.004 C 
ATOM     31  C   UNL     1       0.568  -2.478   3.113  0.00  0.00    +0.004 C 
ATOM     32  C   UNL     1      -0.750  -2.405   2.313  0.00  0.00    +0.044 C 
ENDBRANCH  27  28
ENDBRANCH  25  27
ENDBRANCH   7  25
BRANCH  13  33
ATOM     33  C   UNL     1      -3.502   2.102  -4.870  0.00  0.00    +0.318 C 
ATOM     34  O   UNL     1      -4.531   1.740  -5.390  0.00  0.00    -0.250 OA
BRANCH  33  35
ATOM     35  O   UNL     1      -2.322   1.767  -5.414  0.00  0.00    -0.467 OA
ATOM     36  C   UNL     1      -2.357   0.967  -6.625  0.00  0.00    +0.280 C 
ENDBRANCH  33  35
ENDBRANCH  13  33
TORSDOF 8
