REMARK  Name = ZINC33085171
REMARK  9 active torsions:
REMARK  status: ('A' for Active; 'I' for Inactive)
REMARK    1  A    between atoms: C_1  and  C_2
REMARK    2  A    between atoms: C_2  and  O_3
REMARK    3  A    between atoms: O_3  and  C_4
REMARK    4  A    between atoms: C_9  and  N_10
REMARK    5  A    between atoms: N_16  and  C_19
REMARK    6  A    between atoms: C_19  and  C_20
REMARK    7  A    between atoms: C_21  and  C_32
REMARK    8  A    between atoms: C_23  and  C_25
REMARK    9  A    between atoms: C_28  and  C_31
REMARK                            x       y       z     vdW  Elec       q    Type
REMARK                         _______ _______ _______ _____ _____    ______ ____
ROOT
ATOM      1  N   UNL     1      -8.182   3.550  -4.994  0.00  0.00    -0.266 N 
ATOM      2  C   UNL     1      -8.648   2.340  -4.627  0.00  0.00    +0.307 C 
ATOM      3  O   UNL     1      -9.745   1.972  -5.000  0.00  0.00    -0.252 OA
ATOM      4  N   UNL     1      -7.899   1.538  -3.845  0.00  0.00    -0.283 N 
ATOM      5  C   UNL     1      -8.430   0.262  -3.343  0.00  0.00    +0.124 C 
ATOM      6  C   UNL     1      -8.214   0.207  -1.827  0.00  0.00    +0.104 C 
ATOM      7  N   UNL     1      -6.796   0.450  -1.529  0.00  0.00    -0.294 NA
ATOM      8  C   UNL     1      -6.385   1.795  -1.952  0.00  0.00    +0.104 C 
ATOM      9  C   UNL     1      -6.527   1.915  -3.473  0.00  0.00    +0.124 C 
ATOM     10  H   UNL     1      -7.156   3.847  -4.732  0.00  0.00    +0.156 HD
ENDROOT
BRANCH   1  16
ATOM     11  C   UNL     1      -8.442   5.481  -6.433  0.00  0.00    +0.142 A 
ATOM     12  C   UNL     1      -9.260   6.347  -7.140  0.00  0.00    +0.047 A 
ATOM     13  C   UNL     1     -10.630   6.168  -7.129  0.00  0.00    +0.004 A 
ATOM     14  C   UNL     1     -11.189   5.125  -6.413  0.00  0.00    +0.002 A 
ATOM     15  C   UNL     1     -10.380   4.254  -5.709  0.00  0.00    +0.027 A 
ATOM     16  C   UNL     1      -9.004   4.430  -5.711  0.00  0.00    +0.077 A 
BRANCH  11  17
ATOM     17  O   UNL     1      -7.093   5.655  -6.443  0.00  0.00    -0.490 OA
BRANCH  17  19
ATOM     18  C   UNL     1      -5.061   6.788  -7.097  0.00  0.00    +0.048 C 
ATOM     19  C   UNL     1      -6.587   6.753  -7.205  0.00  0.00    +0.226 C 
ENDBRANCH  17  19
ENDBRANCH  11  17
ENDBRANCH   1  16
BRANCH   7  20
ATOM     20  C   UNL     1      -6.514   0.237  -0.103  0.00  0.00    +0.143 C 
BRANCH  20  21
ATOM     21  C   UNL     1      -5.024   0.252   0.122  0.00  0.00    +0.097 A 
ATOM     22  C   UNL     1      -4.204  -0.814   0.072  0.00  0.00    +0.127 A 
ATOM     23  O   UNL     1      -2.957  -0.372   0.325  0.00  0.00    -0.440 OA
ATOM     24  C   UNL     1      -3.028   0.954   0.534  0.00  0.00    +0.228 A 
ATOM     25  N   UNL     1      -4.279   1.330   0.407  0.00  0.00    -0.212 NA
ATOM     26  C   UNL     1      -4.606  -2.238  -0.218  0.00  0.00    +0.088 C 
BRANCH  24  27
ATOM     27  C   UNL     1      -1.887   1.841   0.847  0.00  0.00    +0.037 A 
ATOM     28  C   UNL     1      -0.599   1.315   0.955  0.00  0.00    +0.013 A 
ATOM     29  C   UNL     1       0.462   2.149   1.242  0.00  0.00    +0.004 A 
ATOM     30  C   UNL     1       0.250   3.504   1.428  0.00  0.00    -0.050 A 
ATOM     31  C   UNL     1      -1.026   4.031   1.328  0.00  0.00    +0.004 A 
ATOM     32  C   UNL     1      -2.095   3.208   1.041  0.00  0.00    +0.013 A 
ATOM     33  C   UNL     1       1.413   4.409   1.741  0.00  0.00    +0.044 C 
ENDBRANCH  24  27
ENDBRANCH  20  21
ENDBRANCH   7  20
TORSDOF 6
