REMARK  Name = ZINC35711440
REMARK  11 active torsions:
REMARK  status: ('A' for Active; 'I' for Inactive)
REMARK    1  A    between atoms: C_1  and  C_2
REMARK    2  A    between atoms: C_2  and  C_4
REMARK    3  A    between atoms: C_2  and  N_10
REMARK    4  A    between atoms: N_10  and  C_11
REMARK    5  A    between atoms: N_10  and  C_20
REMARK    6  A    between atoms: C_11  and  C_12
REMARK    7  A    between atoms: C_20  and  C_21
REMARK    8  A    between atoms: C_23  and  C_26
REMARK    9  A    between atoms: N_28  and  C_29
REMARK   10  A    between atoms: N_28  and  C_30
REMARK   11  A    between atoms: C_30  and  C_31
REMARK                            x       y       z     vdW  Elec       q    Type
REMARK                         _______ _______ _______ _____ _____    ______ ____
ROOT
ATOM      1  N   UNL     1       1.439  -0.646  -1.818  0.00  0.00    +0.393 N 
ATOM      2  H   UNL     1       2.333  -0.781  -2.265  0.00  0.00    -0.080 HD
ENDROOT
BRANCH   1   4
ATOM      3  C   UNL     1       1.466   1.789  -1.565  0.00  0.00    -0.008 C 
ATOM      4  C   UNL     1       1.540   0.445  -0.839  0.00  0.00    -0.040 C 
BRANCH   4   5
ATOM      5  C   UNL     1       2.851   0.341  -0.105  0.00  0.00    -0.061 A 
ATOM      6  C   UNL     1       4.041   0.516  -0.787  0.00  0.00    +0.002 A 
ATOM      7  C   UNL     1       5.244   0.421  -0.113  0.00  0.00    +0.000 A 
ATOM      8  C   UNL     1       5.258   0.151   1.243  0.00  0.00    +0.000 A 
ATOM      9  C   UNL     1       4.068  -0.023   1.925  0.00  0.00    +0.000 A 
ATOM     10  C   UNL     1       2.865   0.076   1.252  0.00  0.00    +0.002 A 
ENDBRANCH   4   5
ENDBRANCH   1   4
BRANCH   1  11
ATOM     11  C   UNL     1       0.432  -0.304  -2.831  0.00  0.00    -0.040 C 
BRANCH  11  12
ATOM     12  C   UNL     1       1.033   0.646  -3.835  0.00  0.00    -0.045 A 
ATOM     13  C   UNL     1       0.391   1.834  -4.133  0.00  0.00    +0.004 A 
ATOM     14  C   UNL     1       0.942   2.706  -5.053  0.00  0.00    +0.020 A 
ATOM     15  C   UNL     1       2.135   2.390  -5.678  0.00  0.00    +0.042 A 
ATOM     16  C   UNL     1       2.778   1.202  -5.380  0.00  0.00    +0.040 A 
ATOM     17  C   UNL     1       2.229   0.332  -4.455  0.00  0.00    +0.044 A 
ATOM     18 CL   UNL     1       3.037  -1.157  -4.077  0.00  0.00    -0.083 Cl
ATOM     19 CL   UNL     1       2.826   3.484  -6.835  0.00  0.00    -0.083 Cl
ENDBRANCH  11  12
ENDBRANCH   1  11
BRANCH   1  20
ATOM     20  C   UNL     1       1.043  -1.884  -1.133  0.00  0.00    +0.020 C 
BRANCH  20  21
ATOM     21  C   UNL     1       2.271  -2.585  -0.612  0.00  0.00    +0.179 A 
ATOM     22  N   UNL     1       3.239  -3.050  -1.344  0.00  0.00    -0.210 NA
ATOM     23  C   UNL     1       4.168  -3.612  -0.523  0.00  0.00    +0.164 A 
ATOM     24  C   UNL     1       3.716  -3.466   0.752  0.00  0.00    +0.230 A 
ATOM     25  O   UNL     1       2.540  -2.822   0.680  0.00  0.00    -0.449 OA
BRANCH  23  26
ATOM     26  C   UNL     1       5.426  -4.258  -0.938  0.00  0.00    +0.268 C 
ATOM     27  O   UNL     1       6.147  -4.776  -0.106  0.00  0.00    -0.268 OA
ATOM     28  N   UNL     1       5.778  -4.275  -2.239  0.00  0.00    -0.295 N 
ATOM     29  C   UNL     1       4.970  -3.554  -3.226  0.00  0.00    +0.132 C 
BRANCH  28  30
ATOM     30  C   UNL     1       6.968  -5.014  -2.666  0.00  0.00    +0.142 C 
BRANCH  30  31
ATOM     31  C   UNL     1       6.583  -6.429  -3.012  0.00  0.00    -0.030 A 
ATOM     32  C   UNL     1       6.602  -7.409  -2.037  0.00  0.00    +0.005 A 
ATOM     33  C   UNL     1       6.248  -8.707  -2.355  0.00  0.00    +0.000 A 
ATOM     34  C   UNL     1       5.876  -9.026  -3.647  0.00  0.00    +0.000 A 
ATOM     35  C   UNL     1       5.857  -8.046  -4.622  0.00  0.00    +0.000 A 
ATOM     36  C   UNL     1       6.206  -6.747  -4.304  0.00  0.00    +0.005 A 
ENDBRANCH  30  31
ENDBRANCH  28  30
ENDBRANCH  23  26
ENDBRANCH  20  21
ENDBRANCH   1  20
TORSDOF 9
