REMARK  Name = ZINC15947659
REMARK  4 active torsions:
REMARK  status: ('A' for Active; 'I' for Inactive)
REMARK    1  A    between atoms: C_1  and  C_2
REMARK    2  A    between atoms: C_11  and  O_25
REMARK    3  A    between atoms: C_13  and  C_16
REMARK    4  A    between atoms: C_21  and  O_22
REMARK                            x       y       z     vdW  Elec       q    Type
REMARK                         _______ _______ _______ _____ _____    ______ ____
ROOT
ATOM      1  C   UNL     1      -0.019   1.526   0.010  0.00  0.00    +0.008 C 
ATOM      2  C   UNL     1       0.002  -0.004   0.002  0.00  0.00    -0.009 C 
ATOM      3  C   UNL     1      -1.434  -0.537   0.019  0.00  0.00    +0.008 C 
ATOM      4  C   UNL     1      -1.433  -2.045  -0.237  0.00  0.00    +0.037 C 
ATOM      5  C   UNL     1      -0.467  -2.706   0.737  0.00  0.00    -0.023 A 
ATOM      6  C   UNL     1       0.483  -1.985   1.377  0.00  0.00    -0.004 A 
ATOM      7  S   UNL     1       1.344  -3.164   2.381  0.00  0.00    -0.078 S 
ATOM      8  C   UNL     1       0.503  -4.535   1.978  0.00  0.00    +0.080 A 
ATOM      9  C   UNL     1      -0.471  -4.120   1.062  0.00  0.00    +0.068 A 
ATOM     10  C   UNL     1      -1.397  -5.154   0.532  0.00  0.00    +0.220 C 
ATOM     11  N   UNL     1      -1.097  -6.406   0.750  0.00  0.00    -0.223 NA
ATOM     12  C   UNL     1       0.114  -6.860   1.422  0.00  0.00    +0.227 C 
ATOM     13  N   UNL     1       0.623  -5.850   2.368  0.00  0.00    -0.313 N 
ATOM     14  C   UNL     1       0.739  -0.515   1.249  0.00  0.00    +0.046 C 
ATOM     15  H   UNL     1       1.020  -6.098   3.217  0.00  0.00    +0.149 HD
ENDROOT
BRANCH  12  16
ATOM     16  C   UNL     1       1.174  -7.140   0.388  0.00  0.00    +0.038 A 
ATOM     17  C   UNL     1       2.502  -6.885   0.672  0.00  0.00    +0.031 A 
ATOM     18  C   UNL     1       3.475  -7.143  -0.277  0.00  0.00    +0.043 A 
ATOM     19  C   UNL     1       3.122  -7.656  -1.512  0.00  0.00    +0.039 A 
ATOM     20  C   UNL     1       1.795  -7.913  -1.800  0.00  0.00    +0.061 A 
ATOM     21  C   UNL     1       0.818  -7.660  -0.848  0.00  0.00    +0.138 A 
ATOM     22 BR   UNL     1       1.312  -8.614  -3.489  0.00  0.00    -0.046 Br
ATOM     23 CL   UNL     1       5.143  -6.821   0.083  0.00  0.00    -0.083 Cl
BRANCH  21  24
ATOM     24  O   UNL     1      -0.488  -7.917  -1.127  0.00  0.00    -0.505 OA
ATOM     25  H   UNL     1      -0.959  -7.172  -1.526  0.00  0.00    +0.292 HD
ENDBRANCH  21  24
ENDBRANCH  12  16
BRANCH  10  26
ATOM     26  O   UNL     1      -2.512  -4.810  -0.154  0.00  0.00    -0.492 OA
ATOM     27  H   UNL     1      -3.039  -5.565  -0.450  0.00  0.00    +0.294 HD
ENDBRANCH  10  26
TORSDOF 3
