REMARK  Name = ZINC13128264
REMARK  8 active torsions:
REMARK  status: ('A' for Active; 'I' for Inactive)
REMARK    1  A    between atoms: C_1  and  C_2
REMARK    2  A    between atoms: C_4  and  C_16
REMARK    3  A    between atoms: C_5  and  C_15
REMARK    4  A    between atoms: N_6  and  C_7
REMARK    5  A    between atoms: C_7  and  C_8
REMARK    6  A    between atoms: C_8  and  C_9
REMARK    7  A    between atoms: C_16  and  C_18
REMARK    8  A    between atoms: C_18  and  N_19
REMARK                            x       y       z     vdW  Elec       q    Type
REMARK                         _______ _______ _______ _____ _____    ______ ____
ROOT
ATOM      1  C   UNL     1       9.954  -3.086  -1.555  0.00  0.00    +0.197 C 
ENDROOT
BRANCH   1   2
ATOM      2  N   UNL     1      11.350  -2.643  -1.567  0.00  0.00    -0.216 N 
ATOM      3  C   UNL     1      12.063  -2.412  -2.688  0.00  0.00    +0.251 C 
ATOM      4  O   UNL     1      11.686  -2.529  -3.834  0.00  0.00    -0.272 OA
ATOM      5  C   UNL     1      13.432  -1.975  -2.215  0.00  0.00    +0.138 C 
ATOM      6  C   UNL     1      13.729  -0.556  -2.684  0.00  0.00    +0.040 C 
ATOM      7  C   UNL     1      13.991  -0.593  -4.196  0.00  0.00    +0.008 C 
ATOM      8  C   UNL     1      15.314  -1.314  -4.441  0.00  0.00    +0.035 C 
ATOM      9  C   UNL     1      15.339  -2.640  -3.727  0.00  0.00    -0.042 A 
ATOM     10  C   UNL     1      14.475  -2.943  -2.697  0.00  0.00    -0.012 A 
ATOM     11  C   UNL     1      14.558  -4.179  -2.071  0.00  0.00    +0.006 A 
ATOM     12  C   UNL     1      15.495  -5.109  -2.476  0.00  0.00    +0.000 A 
ATOM     13  C   UNL     1      16.357  -4.808  -3.513  0.00  0.00    +0.000 A 
ATOM     14  C   UNL     1      16.278  -3.578  -4.135  0.00  0.00    +0.004 A 
ATOM     15  N   UNL     1      13.331  -2.020  -0.750  0.00  0.00    -0.281 N 
ATOM     16  C   UNL     1      12.078  -2.421  -0.465  0.00  0.00    +0.310 C 
ATOM     17  O   UNL     1      11.655  -2.567   0.665  0.00  0.00    -0.252 OA
ATOM     18  H   UNL     1      14.030  -1.803  -0.113  0.00  0.00    +0.152 HD
ENDBRANCH   1   2
BRANCH   1  19
ATOM     19  C   UNL     1       9.045  -1.884  -1.540  0.00  0.00    +0.183 C 
ATOM     20  O   UNL     1       9.517  -0.767  -1.539  0.00  0.00    -0.290 OA
BRANCH  19  24
ATOM     21  C   UNL     1       4.415  -4.010  -1.508  0.00  0.00    +0.063 C 
ATOM     22  C   UNL     1       5.552  -3.022  -1.513  0.00  0.00    +0.017 A 
ATOM     23  C   UNL     1       6.858  -3.338  -1.527  0.00  0.00    +0.034 A 
ATOM     24  C   UNL     1       7.592  -2.065  -1.527  0.00  0.00    +0.040 A 
ATOM     25  C   UNL     1       6.629  -1.074  -1.518  0.00  0.00    +0.026 A 
ATOM     26  N   UNL     1       5.420  -1.663  -1.504  0.00  0.00    -0.347 N 
ATOM     27  C   UNL     1       6.888   0.411  -1.519  0.00  0.00    +0.064 C 
BRANCH  26  28
ATOM     28  C   UNL     1       4.142  -0.948  -1.487  0.00  0.00    +0.126 C 
BRANCH  28  29
ATOM     29  C   UNL     1       3.711  -0.707  -0.039  0.00  0.00    +0.056 C 
BRANCH  29  30
ATOM     30  C   UNL     1       2.396   0.029  -0.022  0.00  0.00    -0.046 A 
ATOM     31  C   UNL     1       1.208  -0.679  -0.014  0.00  0.00    +0.004 A 
ATOM     32  C   UNL     1       0.002  -0.004   0.002  0.00  0.00    +0.000 A 
ATOM     33  C   UNL     1      -0.017   1.378   0.010  0.00  0.00    +0.000 A 
ATOM     34  C   UNL     1       1.171   2.086   0.002  0.00  0.00    +0.000 A 
ATOM     35  C   UNL     1       2.377   1.411  -0.014  0.00  0.00    +0.004 A 
ENDBRANCH  29  30
ENDBRANCH  28  29
ENDBRANCH  26  28
ENDBRANCH  19  24
ENDBRANCH   1  19
TORSDOF 6
