REMARK  Name = ZINC66783316
REMARK  7 active torsions:
REMARK  status: ('A' for Active; 'I' for Inactive)
REMARK    1  A    between atoms: C_1  and  C_2
REMARK    2  A    between atoms: C_6  and  C_7
REMARK    3  A    between atoms: N_9  and  N_10
REMARK    4  A    between atoms: C_11  and  C_13
REMARK    5  A    between atoms: C_16  and  S_18
REMARK    6  A    between atoms: S_18  and  N_21
REMARK    7  A    between atoms: N_21  and  C_22
REMARK                            x       y       z     vdW  Elec       q    Type
REMARK                         _______ _______ _______ _____ _____    ______ ____
ROOT
ATOM      1  N   UNL     1       0.060  -0.732   4.900  0.00  0.00    -0.228 N 
ATOM      2  C   UNL     1       0.081  -1.625   5.909  0.00  0.00    +0.295 C 
ATOM      3  O   UNL     1       0.094  -2.817   5.666  0.00  0.00    -0.265 OA
ATOM      4  H   UNL     1       0.049   0.219   5.094  0.00  0.00    +0.173 HD
ENDROOT
BRANCH   2   5
ATOM      5  C   UNL     1       0.089  -1.160   7.300  0.00  0.00    +0.193 A 
ATOM      6  C   UNL     1       0.115  -1.953   8.411  0.00  0.00    +0.057 A 
ATOM      7  C   UNL     1       0.113  -1.093   9.521  0.00  0.00    +0.072 A 
ATOM      8  C   UNL     1       0.085   0.171   9.044  0.00  0.00    +0.258 A 
ATOM      9  O   UNL     1       0.076   0.127   7.706  0.00  0.00    -0.432 OA
BRANCH   8  10
ATOM     10  S   UNL     1       0.070   1.636  10.023  0.00  0.00    +0.092 S 
ATOM     11  O   UNL     1      -0.508   2.655   9.219  0.00  0.00    -0.150 OA
ATOM     12  O   UNL     1      -0.460   1.273  11.290  0.00  0.00    -0.150 OA
BRANCH  10  13
ATOM     13  N   UNL     1       1.647   2.071  10.277  0.00  0.00    -0.184 NA
ATOM     14  H   UNL     1       2.016   2.057  11.174  0.00  0.00    +0.148 HD
BRANCH  13  15
ATOM     15  C   UNL     1       2.486   2.479   9.147  0.00  0.00    +0.077 C 
ATOM     16  C   UNL     1       3.973   2.124   9.206  0.00  0.00    +0.022 C 
ATOM     17  C   UNL     1       3.525   3.574   9.397  0.00  0.00    +0.022 C 
ENDBRANCH  13  15
ENDBRANCH  10  13
ENDBRANCH   8  10
ENDBRANCH   2   5
BRANCH   1  20
ATOM     18  C   UNL     1       0.031  -0.283   2.562  0.00  0.00    +0.267 C 
ATOM     19  O   UNL     1       0.018   0.910   2.805  0.00  0.00    -0.268 OA
ATOM     20  N   UNL     1       0.052  -1.176   3.571  0.00  0.00    -0.230 N 
ATOM     21  H   UNL     1       0.063  -2.126   3.378  0.00  0.00    +0.173 HD
BRANCH  18  27
ATOM     22  C   UNL     1      -0.018   1.503   0.010  0.00  0.00    +0.045 C 
ATOM     23  C   UNL     1       0.002  -0.004   0.002  0.00  0.00    -0.031 A 
ATOM     24  C   UNL     1       0.007  -0.729  -1.166  0.00  0.00    +0.011 A 
ATOM     25  C   UNL     1       0.025  -2.083  -1.101  0.00  0.00    +0.046 A 
ATOM     26  S   UNL     1       0.037  -2.416   0.545  0.00  0.00    -0.092 S 
ATOM     27  C   UNL     1       0.023  -0.748   1.172  0.00  0.00    +0.078 A 
ENDBRANCH  18  27
ENDBRANCH   1  20
TORSDOF 6
