REMARK  Name = ZINC09168936
REMARK  4 active torsions:
REMARK  status: ('A' for Active; 'I' for Inactive)
REMARK    1  A    between atoms: C_8  and  C_26
REMARK    2  A    between atoms: C_10  and  C_17
REMARK    3  A    between atoms: C_21  and  N_23
REMARK    4  A    between atoms: C_26  and  C_28
REMARK                            x       y       z     vdW  Elec       q    Type
REMARK                         _______ _______ _______ _____ _____    ______ ____
ROOT
ATOM      1  C   UNL     1      -3.098  -1.889  -2.438  0.00  0.00    +0.000 A 
ATOM      2  C   UNL     1      -3.523  -1.587  -3.719  0.00  0.00    +0.002 A 
ATOM      3  C   UNL     1      -4.339  -0.497  -3.943  0.00  0.00    +0.023 A 
ATOM      4  C   UNL     1      -4.742   0.307  -2.878  0.00  0.00    +0.036 A 
ATOM      5  C   UNL     1      -4.307  -0.007  -1.595  0.00  0.00    -0.027 A 
ATOM      6  C   UNL     1      -3.492  -1.095  -1.376  0.00  0.00    +0.004 A 
ATOM      7  C   UNL     1      -4.904   1.035  -0.686  0.00  0.00    +0.051 C 
ATOM      8  C   UNL     1      -3.806   1.827   0.030  0.00  0.00    +0.069 C 
ATOM      9  C   UNL     1      -4.327   1.986   1.476  0.00  0.00    +0.016 C 
ATOM     10  C   UNL     1      -5.250   0.772   1.665  0.00  0.00    -0.059 C 
ATOM     11  C   UNL     1      -7.126   1.026   0.236  0.00  0.00    -0.076 C 
ATOM     12  C   UNL     1      -7.691   0.898   1.671  0.00  0.00    -0.020 C 
ATOM     13  C   UNL     1      -6.445   1.141   2.554  0.00  0.00    -0.016 C 
ATOM     14  C   UNL     1      -5.697   1.932  -1.604  0.00  0.00    +0.212 C 
ATOM     15  O   UNL     1      -6.342   2.907  -1.281  0.00  0.00    -0.277 OA
ATOM     16  N   UNL     1      -5.551   1.444  -2.849  0.00  0.00    -0.286 N 
ATOM     17  H   UNL     1      -5.962   1.836  -3.635  0.00  0.00    +0.155 HD
ATOM     18  N   UNL     1      -5.776   0.446   0.344  0.00  0.00    +0.395 N 
ATOM     19  H   UNL     1      -5.819  -0.573   0.223  0.00  0.00    -0.079 HD
ENDROOT
BRANCH   9  20
ATOM     20  C   UNL     1      -3.186   1.943   2.459  0.00  0.00    -0.043 A 
ATOM     21  C   UNL     1      -2.362   0.834   2.513  0.00  0.00    +0.004 A 
ATOM     22  C   UNL     1      -1.315   0.794   3.414  0.00  0.00    +0.002 A 
ATOM     23  C   UNL     1      -1.092   1.864   4.262  0.00  0.00    +0.033 A 
ATOM     24  C   UNL     1      -1.915   2.973   4.207  0.00  0.00    +0.126 A 
ATOM     25  C   UNL     1      -2.960   3.014   3.302  0.00  0.00    +0.036 A 
BRANCH  24  26
ATOM     26  N   UNL     1      -1.676   4.118   5.114  0.00  0.00    +0.056 N 
ATOM     27  O   UNL     1      -0.753   4.082   5.909  0.00  0.00    -0.126 OA
ATOM     28  O   UNL     1      -2.401   5.095   5.066  0.00  0.00    -0.126 OA
ENDBRANCH  24  26
ENDBRANCH   9  20
BRANCH   8  29
ATOM     29  C   UNL     1      -2.510   1.058   0.020  0.00  0.00    +0.168 C 
ATOM     30  O   UNL     1      -2.502  -0.121   0.302  0.00  0.00    -0.292 OA
BRANCH  29  31
ATOM     31  C   UNL     1      -1.253   1.739  -0.332  0.00  0.00    +0.036 A 
ATOM     32  C   UNL     1      -0.040   1.035  -0.346  0.00  0.00    +0.014 A 
ATOM     33  C   UNL     1       1.111   1.721  -0.689  0.00  0.00    +0.020 A 
ATOM     34  C   UNL     1       1.031   3.067  -1.000  0.00  0.00    +0.111 A 
ATOM     35  N   UNL     1      -0.123   3.706  -0.975  0.00  0.00    -0.263 NA
ATOM     36  C   UNL     1      -1.247   3.099  -0.655  0.00  0.00    +0.122 A 
ENDBRANCH  29  31
ENDBRANCH   8  29
TORSDOF 4
