REMARK  Name = ZINC09716488
REMARK  10 active torsions:
REMARK  status: ('A' for Active; 'I' for Inactive)
REMARK    1  A    between atoms: C_1  and  C_2
REMARK    2  A    between atoms: C_2  and  C_4
REMARK    3  A    between atoms: C_2  and  N_58
REMARK    4  A    between atoms: C_7  and  S_16
REMARK    5  A    between atoms: N_8  and  C_9
REMARK    6  A    between atoms: S_16  and  C_17
REMARK    7  A    between atoms: C_17  and  C_18
REMARK    8  A    between atoms: C_21  and  C_23
REMARK    9  A    between atoms: C_32  and  N_58
REMARK   10  A    between atoms: C_33  and  N_58
REMARK                            x       y       z     vdW  Elec       q    Type
REMARK                         _______ _______ _______ _____ _____    ______ ____
ROOT
ATOM      1  C   UNL     1       8.044   1.097   1.603  0.00  0.00    +0.125 A 
ATOM      2  N   UNL     1       7.737   1.086   0.337  0.00  0.00    -0.135 NA
ATOM      3  N   UNL     1       6.463   1.006   0.190  0.00  0.00    -0.122 NA
ATOM      4  C   UNL     1       5.879   0.970   1.365  0.00  0.00    +0.197 A 
ATOM      5  N   UNL     1       6.871   1.023   2.306  0.00  0.00    -0.275 N 
ENDROOT
BRANCH   5   6
ATOM      6  C   UNL     1       6.718   1.005   3.701  0.00  0.00    +0.050 A 
ATOM      7  C   UNL     1       7.087   2.111   4.455  0.00  0.00    +0.029 A 
ATOM      8  C   UNL     1       6.931   2.094   5.827  0.00  0.00    +0.040 A 
ATOM      9  C   UNL     1       6.417   0.970   6.452  0.00  0.00    +0.124 A 
ATOM     10  C   UNL     1       6.053  -0.136   5.702  0.00  0.00    +0.040 A 
ATOM     11  C   UNL     1       6.203  -0.120   4.329  0.00  0.00    +0.029 A 
ATOM     12  F   UNL     1       6.269   0.953   7.795  0.00  0.00    -0.205 F 
ENDBRANCH   5   6
BRANCH   1  14
ATOM     13  C   UNL     1       9.962   2.604   2.047  0.00  0.00    -0.005 C 
ATOM     14  C   UNL     1       9.431   1.176   2.186  0.00  0.00    -0.003 C 
BRANCH  14  17
ATOM     15  C   UNL     1      10.500   0.676   0.072  0.00  0.00    -0.096 C 
ATOM     16  C   UNL     1      11.611   0.124   2.151  0.00  0.00    -0.096 C 
ATOM     17  N   UNL     1      10.306   0.226   1.466  0.00  0.00    +0.382 N 
ATOM     18  H   UNL     1       9.859  -0.699   1.460  0.00  0.00    -0.082 HD
ENDBRANCH  14  17
ENDBRANCH   1  14
BRANCH   4  19
ATOM     19  S   UNL     1       4.148   0.864   1.672  0.00  0.00    -0.076 S 
BRANCH  19  20
ATOM     20  C   UNL     1       3.528   0.837  -0.028  0.00  0.00    +0.175 C 
BRANCH  20  21
ATOM     21  C   UNL     1       2.024   0.747  -0.013  0.00  0.00    +0.228 A 
ATOM     22  N   UNL     1       1.193   1.751   0.000  0.00  0.00    -0.111 NA
ATOM     23  N   UNL     1      -0.016   1.311   0.009  0.00  0.00    -0.107 NA
ATOM     24  C   UNL     1       0.002  -0.004   0.002  0.00  0.00    +0.255 A 
ATOM     25  O   UNL     1       1.296  -0.385  -0.012  0.00  0.00    -0.419 OA
BRANCH  24  26
ATOM     26  C   UNL     1      -1.169  -0.893   0.009  0.00  0.00    +0.076 A 
ATOM     27  C   UNL     1      -2.509  -0.566   0.023  0.00  0.00    +0.024 A 
ATOM     28  C   UNL     1      -3.460  -1.579   0.027  0.00  0.00    -0.036 A 
ATOM     29  C   UNL     1      -2.993  -2.861   0.016  0.00  0.00    -0.006 A 
ATOM     30  S   UNL     1      -1.229  -2.678  -0.007  0.00  0.00    -0.088 S 
ATOM     31  C   UNL     1      -3.796  -4.121   0.018  0.00  0.00    +0.043 C 
ATOM     32  C   UNL     1      -5.241  -3.772   0.406  0.00  0.00    +0.005 C 
ATOM     33  C   UNL     1      -5.694  -2.566  -0.422  0.00  0.00    +0.005 C 
ATOM     34  C   UNL     1      -4.962  -1.307   0.042  0.00  0.00    +0.036 C 
ENDBRANCH  24  26
ENDBRANCH  20  21
ENDBRANCH  19  20
ENDBRANCH   4  19
TORSDOF 7
