REMARK  Name = ZINC09211343
REMARK  8 active torsions:
REMARK  status: ('A' for Active; 'I' for Inactive)
REMARK    1  A    between atoms: C_1  and  C_2
REMARK    2  A    between atoms: C_2  and  C_3
REMARK    3  A    between atoms: C_9  and  C_10
REMARK    4  A    between atoms: C_9  and  N_62
REMARK    5  A    between atoms: C_13  and  C_15
REMARK    6  A    between atoms: C_15  and  N_16
REMARK    7  A    between atoms: C_17  and  C_19
REMARK    8  A    between atoms: C_19  and  N_20
REMARK                            x       y       z     vdW  Elec       q    Type
REMARK                         _______ _______ _______ _____ _____    ______ ____
ROOT
ATOM      1  N   UNL     1       1.523  -4.063  -0.746  0.00  0.00    -0.307 N 
ATOM      2  C   UNL     1       2.256  -5.194  -0.710  0.00  0.00    +0.235 C 
ATOM      3  O   UNL     1       2.335  -5.834   0.317  0.00  0.00    -0.274 OA
ATOM      4  H   UNL     1       1.460  -3.551  -1.567  0.00  0.00    +0.149 HD
ENDROOT
BRANCH   1   5
ATOM      5  C   UNL     1       0.821  -3.608   0.457  0.00  0.00    +0.178 C 
BRANCH   5   9
ATOM      6  C   UNL     1      -0.366  -0.196  -0.074  0.00  0.00    +0.089 A 
ATOM      7  C   UNL     1      -1.473  -0.867  -0.440  0.00  0.00    +0.043 A 
ATOM      8  C   UNL     1      -1.184  -2.243  -0.299  0.00  0.00    +0.046 A 
ATOM      9  C   UNL     1       0.080  -2.331   0.153  0.00  0.00    +0.122 A 
ATOM     10  O   UNL     1       0.571  -1.088   0.288  0.00  0.00    -0.465 OA
BRANCH   6  11
ATOM     11  C   UNL     1      -0.206   1.302  -0.065  0.00  0.00    -0.003 C 
BRANCH  11  17
ATOM     12  C   UNL     1      -1.825   1.444   1.730  0.00  0.00    -0.068 C 
ATOM     13  C   UNL     1      -2.123   2.115   3.073  0.00  0.00    -0.015 C 
ATOM     14  C   UNL     1      -1.084   1.665   4.104  0.00  0.00    -0.003 C 
ATOM     15  C   UNL     1       0.316   2.020   3.595  0.00  0.00    -0.019 C 
ATOM     16  C   UNL     1       0.543   1.352   2.237  0.00  0.00    -0.078 C 
ATOM     17  N   UNL     1      -0.474   1.845   1.283  0.00  0.00    +0.386 N 
ATOM     18  H   UNL     1      -0.426   2.870   1.246  0.00  0.00    -0.081 HD
BRANCH  12  20
ATOM     19  C   UNL     1      -4.240   1.412   1.092  0.00  0.00    +0.002 C 
ATOM     20  C   UNL     1      -2.848   1.906   0.691  0.00  0.00    -0.019 C 
ENDBRANCH  12  20
ENDBRANCH  11  17
ENDBRANCH   6  11
ENDBRANCH   5   9
ENDBRANCH   1   5
BRANCH   2  21
ATOM     21  C   UNL     1       2.979  -5.662  -1.947  0.00  0.00    +0.243 C 
BRANCH  21  22
ATOM     22  N   UNL     1       3.699  -6.903  -1.652  0.00  0.00    -0.219 N 
ATOM     23  C   UNL     1       3.083  -8.088  -1.834  0.00  0.00    +0.292 A 
ATOM     24  O   UNL     1       1.933  -8.129  -2.241  0.00  0.00    -0.264 OA
ATOM     25  C   UNL     1       3.783  -9.284  -1.547  0.00  0.00    +0.116 A 
ATOM     26  C   UNL     1       5.095  -9.194  -1.084  0.00  0.00    +0.032 A 
ATOM     27  C   UNL     1       5.688  -7.925  -0.913  0.00  0.00    +0.143 A 
ATOM     28  N   UNL     1       5.017  -6.843  -1.191  0.00  0.00    -0.175 NA
ATOM     29  C   UNL     1       5.560 -10.572  -0.875  0.00  0.00    +0.009 A 
ATOM     30  C   UNL     1       6.760 -11.128  -0.432  0.00  0.00    +0.010 A 
ATOM     31  C   UNL     1       6.890 -12.485  -0.343  0.00  0.00    +0.001 A 
ATOM     32  C   UNL     1       5.836 -13.318  -0.691  0.00  0.00    +0.002 A 
ATOM     33  C   UNL     1       4.643 -12.790  -1.131  0.00  0.00    +0.026 A 
ATOM     34  C   UNL     1       4.488 -11.409  -1.230  0.00  0.00    +0.048 A 
ATOM     35  N   UNL     1       3.435 -10.615  -1.629  0.00  0.00    -0.350 N 
ATOM     36  H   UNL     1       2.572 -10.945  -1.925  0.00  0.00    +0.166 HD
ENDBRANCH  21  22
ENDBRANCH   2  21
TORSDOF 7
