REMARK  Name = ZINC00825843
REMARK  5 active torsions:
REMARK  status: ('A' for Active; 'I' for Inactive)
REMARK    1  A    between atoms: C_1  and  C_2
REMARK    2  A    between atoms: C_3  and  C_17
REMARK    3  A    between atoms: C_4  and  C_10
REMARK    4  A    between atoms: C_17  and  O_19
REMARK    5  A    between atoms: O_19  and  C_20
REMARK                            x       y       z     vdW  Elec       q    Type
REMARK                         _______ _______ _______ _____ _____    ______ ____
ROOT
ATOM      1  C   UNL     1       0.737   1.325  -0.068  0.00  0.00    +0.061 C 
ATOM      2  C   UNL     1       0.478  -0.160  -0.060  0.00  0.00    +0.021 C 
ATOM      3  C   UNL     1      -0.785  -0.614  -0.213  0.00  0.00    +0.078 C 
ATOM      4  C   UNL     1      -1.001  -2.114  -0.200  0.00  0.00    +0.145 C 
ATOM      5  N   UNL     1       0.192  -2.958  -0.019  0.00  0.00    -0.288 N 
ATOM      6  C   UNL     1       1.389  -2.356   0.121  0.00  0.00    +0.304 C 
ATOM      7  O   UNL     1       2.380  -3.044   0.270  0.00  0.00    -0.252 OA
ATOM      8  N   UNL     1       1.524  -1.024   0.095  0.00  0.00    -0.273 N 
ATOM      9  H   UNL     1       0.117  -3.925  -0.002  0.00  0.00    +0.151 HD
ATOM     10  H   UNL     1       2.413  -0.652   0.198  0.00  0.00    +0.156 HD
ENDROOT
BRANCH   4  11
ATOM     11  C   UNL     1      -1.651  -2.501  -1.503  0.00  0.00    -0.009 A 
ATOM     12  C   UNL     1      -0.871  -2.869  -2.583  0.00  0.00    +0.007 A 
ATOM     13  C   UNL     1      -1.467  -3.224  -3.778  0.00  0.00    +0.000 A 
ATOM     14  C   UNL     1      -2.845  -3.213  -3.894  0.00  0.00    +0.001 A 
ATOM     15  C   UNL     1      -3.626  -2.846  -2.815  0.00  0.00    +0.015 A 
ATOM     16  C   UNL     1      -3.030  -2.495  -1.617  0.00  0.00    +0.023 A 
ATOM     17 BR   UNL     1      -4.099  -1.999  -0.138  0.00  0.00    -0.050 Br
ENDBRANCH   4  11
BRANCH   3  18
ATOM     18  C   UNL     1      -1.869   0.280  -0.380  0.00  0.00    +0.339 C 
ATOM     19  O   UNL     1      -2.314   0.495  -1.492  0.00  0.00    -0.245 OA
BRANCH  18  20
ATOM     20  O   UNL     1      -2.409   0.893   0.694  0.00  0.00    -0.458 OA
BRANCH  20  21
ATOM     21  C   UNL     1      -3.573   1.690   0.468  0.00  0.00    +0.177 C 
ATOM     22  C   UNL     1      -3.152   3.118   0.113  0.00  0.00    +0.044 C 
ATOM     23  C   UNL     1      -4.399   3.972  -0.128  0.00  0.00    +0.004 C 
ATOM     24  C   UNL     1      -5.256   3.993   1.139  0.00  0.00    +0.000 C 
ATOM     25  C   UNL     1      -5.676   2.565   1.494  0.00  0.00    +0.004 C 
ATOM     26  C   UNL     1      -4.430   1.712   1.736  0.00  0.00    +0.044 C 
ENDBRANCH  20  21
ENDBRANCH  18  20
ENDBRANCH   3  18
TORSDOF 4
