REMARK  Name = ZINC34829810
REMARK  8 active torsions:
REMARK  status: ('A' for Active; 'I' for Inactive)
REMARK    1  A    between atoms: C_1  and  C_2
REMARK    2  A    between atoms: C_7  and  C_8
REMARK    3  A    between atoms: N_17  and  C_18
REMARK    4  A    between atoms: C_18  and  C_19
REMARK    5  A    between atoms: C_25  and  C_28
REMARK    6  A    between atoms: C_29  and  C_31
REMARK    7  A    between atoms: C_31  and  C_32
REMARK    8  A    between atoms: C_32  and  C_33
REMARK                            x       y       z     vdW  Elec       q    Type
REMARK                         _______ _______ _______ _____ _____    ______ ____
ROOT
ATOM      1  C   UNL     1      -1.369  -1.368   3.551  0.00  0.00    +0.020 C 
ENDROOT
BRANCH   1   2
ATOM      2  C   UNL     1      -1.577  -2.406   4.623  0.00  0.00    +0.199 C 
ATOM      3  O   UNL     1      -0.664  -2.703   5.365  0.00  0.00    -0.278 OA
ATOM      4  N   UNL     1      -2.777  -3.005   4.759  0.00  0.00    -0.300 N 
ATOM      5  C   UNL     1      -3.890  -2.659   3.864  0.00  0.00    +0.126 C 
ATOM      6  C   UNL     1      -5.090  -2.230   4.718  0.00  0.00    +0.127 C 
ATOM      7  N   UNL     1      -5.308  -3.240   5.762  0.00  0.00    -0.296 N 
ATOM      8  C   UNL     1      -4.195  -3.586   6.657  0.00  0.00    +0.090 C 
ATOM      9  C   UNL     1      -2.994  -4.019   5.800  0.00  0.00    +0.130 C 
ATOM     10  C   UNL     1      -3.818  -2.367   7.503  0.00  0.00    +0.029 C 
ATOM     11  C   UNL     1      -6.508  -3.838   5.898  0.00  0.00    +0.216 C 
ATOM     12  O   UNL     1      -6.677  -4.671   6.764  0.00  0.00    -0.276 OA
BRANCH  11  13
ATOM     13  C   UNL     1      -7.641  -3.473   4.973  0.00  0.00    +0.096 C 
BRANCH  13  14
ATOM     14  C   UNL     1      -8.881  -4.291   5.338  0.00  0.00    +0.013 C 
BRANCH  14  15
ATOM     15  C   UNL     1     -10.031  -3.921   4.400  0.00  0.00    -0.011 C 
ATOM     16  C   UNL     1     -10.488  -2.472   4.670  0.00  0.00    +0.003 C 
ATOM     17  C   UNL     1     -12.025  -2.519   4.489  0.00  0.00    +0.000 C 
ATOM     18  C   UNL     1     -12.400  -3.892   5.100  0.00  0.00    +0.000 C 
ATOM     19  C   UNL     1     -11.247  -4.823   4.673  0.00  0.00    +0.003 C 
ENDBRANCH  14  15
ENDBRANCH  13  14
ENDBRANCH  11  13
ENDBRANCH   1   2
BRANCH   1  28
ATOM     20  C   UNL     1       0.243   0.050   2.492  0.00  0.00    -0.005 C 
ATOM     21  C   UNL     1       1.644   0.640   2.620  0.00  0.00    -0.047 A 
ATOM     22  C   UNL     1       2.341   1.229   1.568  0.00  0.00    +0.010 A 
ATOM     23  C   UNL     1       3.583   1.725   1.772  0.00  0.00    +0.045 A 
ATOM     24  S   UNL     1       3.839   1.376   3.506  0.00  0.00    -0.101 S 
ATOM     25  C   UNL     1       2.280   0.602   3.825  0.00  0.00    -0.010 A 
ATOM     26  C   UNL     1       1.740   0.030   5.095  0.00  0.00    +0.024 C 
ATOM     27  C   UNL     1       0.230  -0.194   4.897  0.00  0.00    -0.072 C 
ATOM     28  N   UNL     1       0.012  -0.871   3.611  0.00  0.00    +0.393 N 
ATOM     29  H   UNL     1       0.648  -1.651   3.536  0.00  0.00    -0.080 HD
BRANCH  20  36
ATOM     30  C   UNL     1      -0.648   1.422   0.111  0.00  0.00    +0.044 C 
ATOM     31  C   UNL     1      -0.299  -0.043   0.050  0.00  0.00    -0.049 A 
ATOM     32  C   UNL     1      -0.400  -0.728  -1.146  0.00  0.00    +0.003 A 
ATOM     33  C   UNL     1      -0.080  -2.072  -1.202  0.00  0.00    +0.000 A 
ATOM     34  C   UNL     1       0.341  -2.730  -0.061  0.00  0.00    +0.000 A 
ATOM     35  C   UNL     1       0.443  -2.044   1.134  0.00  0.00    +0.002 A 
ATOM     36  C   UNL     1       0.127  -0.699   1.189  0.00  0.00    -0.054 A 
ENDBRANCH  20  36
ENDBRANCH   1  28
TORSDOF 6
