REMARK  Name = ZINC24085743
REMARK  10 active torsions:
REMARK  status: ('A' for Active; 'I' for Inactive)
REMARK    1  A    between atoms: C_1  and  C_2
REMARK    2  A    between atoms: C_6  and  C_33
REMARK    3  A    between atoms: C_7  and  O_8
REMARK    4  A    between atoms: O_8  and  C_9
REMARK    5  A    between atoms: C_9  and  C_10
REMARK    6  A    between atoms: C_10  and  C_12
REMARK    7  A    between atoms: C_10  and  O_32
REMARK    8  A    between atoms: C_12  and  N_13
REMARK    9  A    between atoms: C_16  and  C_20
REMARK   10  A    between atoms: C_16  and  C_21
REMARK                            x       y       z     vdW  Elec       q    Type
REMARK                         _______ _______ _______ _____ _____    ______ ____
ROOT
ATOM      1  N   UNL     1       2.870   7.484   2.968  0.00  0.00    -0.221 N 
ATOM      2  C   UNL     1       2.037   6.697   3.678  0.00  0.00    +0.251 C 
ATOM      3  O   UNL     1       2.290   6.096   4.699  0.00  0.00    -0.272 OA
ATOM      4  C   UNL     1       0.717   6.721   2.933  0.00  0.00    +0.135 C 
ATOM      5  N   UNL     1       0.981   7.601   1.781  0.00  0.00    -0.281 N 
ATOM      6  C   UNL     1       2.266   7.995   1.889  0.00  0.00    +0.310 C 
ATOM      7  O   UNL     1       2.814   8.735   1.095  0.00  0.00    -0.252 OA
ATOM      8  C   UNL     1      -0.389   7.304   3.814  0.00  0.00    +0.047 C 
ATOM      9  H   UNL     1       0.183   7.807   1.052  0.00  0.00    +0.152 HD
ENDROOT
BRANCH   4  10
ATOM     10  C   UNL     1       0.346   5.336   2.467  0.00  0.00    -0.012 A 
ATOM     11  C   UNL     1       0.716   4.235   3.217  0.00  0.00    +0.010 A 
ATOM     12  C   UNL     1       0.380   2.961   2.796  0.00  0.00    +0.050 A 
ATOM     13  C   UNL     1      -0.330   2.792   1.619  0.00  0.00    +0.162 A 
ATOM     14  C   UNL     1      -0.702   3.897   0.867  0.00  0.00    +0.162 A 
ATOM     15  C   UNL     1      -0.364   5.171   1.292  0.00  0.00    +0.055 A 
ATOM     16  O   UNL     1      -1.402   3.720  -0.291  0.00  0.00    -0.488 OA
ATOM     17  C   UNL     1      -0.690   3.098  -1.362  0.00  0.00    +0.232 C 
ATOM     18  C   UNL     1      -0.736   1.583  -1.234  0.00  0.00    +0.082 C 
ATOM     19  C   UNL     1      -0.013   1.086   0.008  0.00  0.00    +0.232 C 
ATOM     20  O   UNL     1      -0.670   1.541   1.193  0.00  0.00    -0.488 OA
ENDBRANCH   4  10
BRANCH   1  21
ATOM     21  C   UNL     1       4.264   7.745   3.332  0.00  0.00    +0.152 C 
BRANCH  21  22
ATOM     22  C   UNL     1       5.167   6.694   2.683  0.00  0.00    +0.170 C 
BRANCH  22  23
ATOM     23  O   UNL     1       5.114   6.834   1.261  0.00  0.00    -0.387 OA
ATOM     24  H   UNL     1       4.156   6.724   0.733  0.00  0.00    +0.210 HD
ENDBRANCH  22  23
BRANCH  22  25
ATOM     25  C   UNL     1       6.606   6.892   3.162  0.00  0.00    +0.262 C 
BRANCH  25  26
ATOM     26  O   UNL     1       7.428   5.841   2.648  0.00  0.00    -0.489 OA
BRANCH  26  33
ATOM     27  C   UNL     1       9.180   7.234   0.926  0.00  0.00    +0.047 C 
ATOM     28  C   UNL     1       9.653   6.537   2.175  0.00  0.00    -0.009 A 
ATOM     29  C   UNL     1      10.990   6.567   2.520  0.00  0.00    +0.007 A 
ATOM     30  C   UNL     1      11.425   5.923   3.664  0.00  0.00    +0.001 A 
ATOM     31  C   UNL     1      10.523   5.251   4.467  0.00  0.00    +0.007 A 
ATOM     32  C   UNL     1       9.184   5.222   4.129  0.00  0.00    -0.009 A 
ATOM     33  C   UNL     1       8.745   5.868   2.983  0.00  0.00    +0.126 A 
ATOM     34  C   UNL     1       8.201   4.489   5.005  0.00  0.00    +0.047 C 
ENDBRANCH  26  33
ENDBRANCH  25  26
ENDBRANCH  22  25
ENDBRANCH  21  22
ENDBRANCH   1  21
TORSDOF 7
