REMARK  Name = ZINC57641386
REMARK  13 active torsions:
REMARK  status: ('A' for Active; 'I' for Inactive)
REMARK    1  A    between atoms: C_1  and  C_2
REMARK    2  A    between atoms: C_2  and  C_3
REMARK    3  A    between atoms: C_3  and  C_5
REMARK    4  A    between atoms: C_3  and  N_16
REMARK    5  A    between atoms: N_9  and  C_10
REMARK    6  A    between atoms: N_16  and  C_17
REMARK    7  A    between atoms: N_16  and  C_23
REMARK    8  A    between atoms: C_17  and  C_18
REMARK    9  A    between atoms: C_23  and  C_24
REMARK   10  A    between atoms: C_28  and  O_38
REMARK   11  A    between atoms: C_29  and  O_36
REMARK   12  A    between atoms: O_36  and  C_37
REMARK   13  A    between atoms: O_38  and  C_39
REMARK                            x       y       z     vdW  Elec       q    Type
REMARK                         _______ _______ _______ _____ _____    ______ ____
ROOT
ATOM      1  N   UNL     1       0.543  -0.958  -2.674  0.00  0.00    -0.284 NA
ENDROOT
BRANCH   1   2
ATOM      2  C   UNL     1       1.514  -1.240  -1.608  0.00  0.00    +0.127 C 
BRANCH   2   3
ATOM      3  C   UNL     1       2.857  -0.672  -1.989  0.00  0.00    +0.169 A 
ATOM      4  N   UNL     1       3.382  -0.644  -3.189  0.00  0.00    -0.112 NA
ATOM      5  N   UNL     1       4.538  -0.080  -3.105  0.00  0.00    -0.023 NA
ATOM      6  N   UNL     1       4.762   0.253  -1.881  0.00  0.00    -0.044 NA
ATOM      7  N   UNL     1       3.747  -0.091  -1.164  0.00  0.00    -0.225 N 
BRANCH   7   8
ATOM      8  C   UNL     1       3.593   0.111   0.279  0.00  0.00    +0.111 C 
ATOM      9  C   UNL     1       3.873   1.575   0.622  0.00  0.00    +0.027 C 
ATOM     10  C   UNL     1       3.712   1.786   2.129  0.00  0.00    +0.002 C 
ATOM     11  C   UNL     1       4.700   0.889   2.878  0.00  0.00    +0.000 C 
ATOM     12  C   UNL     1       4.420  -0.576   2.535  0.00  0.00    +0.002 C 
ATOM     13  C   UNL     1       4.581  -0.786   1.028  0.00  0.00    +0.027 C 
ENDBRANCH   7   8
ENDBRANCH   2   3
BRANCH   2  15
ATOM     14  C   UNL     1       0.307  -3.309  -0.897  0.00  0.00    +0.006 C 
ATOM     15  C   UNL     1       1.635  -2.753  -1.415  0.00  0.00    +0.023 C 
ENDBRANCH   2  15
ENDBRANCH   1   2
BRANCH   1  16
ATOM     16  C   UNL     1       1.055  -1.393  -3.980  0.00  0.00    +0.127 C 
BRANCH  16  17
ATOM     17  C   UNL     1      -0.086  -1.492  -4.960  0.00  0.00    +0.004 A 
ATOM     18  C   UNL     1      -0.519  -0.577  -5.861  0.00  0.00    +0.012 A 
ATOM     19  C   UNL     1      -1.599  -0.889  -6.667  0.00  0.00    +0.008 A 
ATOM     20  C   UNL     1      -2.192  -2.100  -6.531  0.00  0.00    +0.045 A 
ATOM     21  S   UNL     1      -1.214  -2.848  -5.238  0.00  0.00    -0.100 S 
ENDBRANCH  16  17
ENDBRANCH   1  16
BRANCH   1  22
ATOM     22  C   UNL     1       0.184   0.466  -2.697  0.00  0.00    +0.126 C 
BRANCH  22  23
ATOM     23  C   UNL     1      -0.782   0.759  -1.578  0.00  0.00    +0.031 A 
ATOM     24  C   UNL     1      -0.323   1.252  -0.400  0.00  0.00    +0.020 A 
ATOM     25  C   UNL     1      -1.286   1.526   0.666  0.00  0.00    +0.003 A 
ATOM     26  C   UNL     1      -0.869   2.036   1.902  0.00  0.00    +0.059 A 
ATOM     27  C   UNL     1      -1.800   2.284   2.886  0.00  0.00    +0.162 A 
ATOM     28  C   UNL     1      -3.156   2.030   2.654  0.00  0.00    +0.163 A 
ATOM     29  C   UNL     1      -3.578   1.526   1.438  0.00  0.00    +0.075 A 
ATOM     30  C   UNL     1      -2.652   1.270   0.434  0.00  0.00    +0.053 A 
ATOM     31  N   UNL     1      -3.053   0.768  -0.787  0.00  0.00    -0.322 N 
ATOM     32  H   UNL     1      -3.994   0.593  -0.946  0.00  0.00    +0.169 HD
ATOM     33  C   UNL     1      -2.160   0.525  -1.762  0.00  0.00    +0.254 A 
ATOM     34  O   UNL     1      -2.551   0.087  -2.830  0.00  0.00    -0.268 OA
BRANCH  28  35
ATOM     35  O   UNL     1      -4.065   2.278   3.632  0.00  0.00    -0.491 OA
ATOM     36  C   UNL     1      -5.434   1.996   3.333  0.00  0.00    +0.277 C 
ENDBRANCH  28  35
BRANCH  27  37
ATOM     37  O   UNL     1      -1.400   2.779   4.088  0.00  0.00    -0.491 OA
ATOM     38  C   UNL     1      -0.002   3.017   4.259  0.00  0.00    +0.277 C 
ENDBRANCH  27  37
ENDBRANCH  22  23
ENDBRANCH   1  22
TORSDOF 10
