REMARK  Name = ZINC16429668
REMARK  15 active torsions:
REMARK  status: ('A' for Active; 'I' for Inactive)
REMARK    1  A    between atoms: C_1  and  C_2
REMARK    2  A    between atoms: C_2  and  N_3
REMARK    3  A    between atoms: N_3  and  C_4
REMARK    4  A    between atoms: N_3  and  S_27
REMARK    5  A    between atoms: C_4  and  C_6
REMARK    6  A    between atoms: C_4  and  C_7
REMARK    7  A    between atoms: N_17  and  C_18
REMARK    8  A    between atoms: C_23  and  O_24
REMARK    9  A    between atoms: O_24  and  C_25
REMARK   10  A    between atoms: C_25  and  C_26
REMARK   11  A    between atoms: S_27  and  C_30
REMARK   12  A    between atoms: C_33  and  C_36
REMARK   13  A    between atoms: C_36  and  C_37
REMARK   14  A    between atoms: C_36  and  C_38
REMARK   15  A    between atoms: C_36  and  C_39
REMARK                            x       y       z     vdW  Elec       q    Type
REMARK                         _______ _______ _______ _____ _____    ______ ____
ROOT
ATOM      1  C   UNL     1      -1.341  -1.498   1.523  0.00  0.00    +0.136 A 
ATOM      2  N   UNL     1      -1.533  -2.552   0.790  0.00  0.00    -0.231 NA
ATOM      3  C   UNL     1      -2.693  -3.253   0.843  0.00  0.00    +0.078 A 
ATOM      4  C   UNL     1      -2.898  -4.390   0.058  0.00  0.00    +0.028 A 
ATOM      5  C   UNL     1      -4.094  -5.068   0.139  0.00  0.00    +0.002 A 
ATOM      6  C   UNL     1      -5.100  -4.635   0.993  0.00  0.00    +0.001 A 
ATOM      7  C   UNL     1      -4.922  -3.517   1.777  0.00  0.00    +0.015 A 
ATOM      8  C   UNL     1      -3.719  -2.816   1.710  0.00  0.00    +0.065 A 
ATOM      9  C   UNL     1      -3.473  -1.616   2.522  0.00  0.00    +0.266 A 
ATOM     10  O   UNL     1      -4.315  -1.187   3.289  0.00  0.00    -0.267 OA
ATOM     11  N   UNL     1      -2.272  -1.006   2.384  0.00  0.00    -0.259 N 
ENDROOT
BRANCH  11  12
ATOM     12  C   UNL     1      -1.986   0.142   3.135  0.00  0.00    +0.093 A 
ATOM     13  C   UNL     1      -2.413   1.386   2.695  0.00  0.00    +0.030 A 
ATOM     14  C   UNL     1      -2.133   2.516   3.440  0.00  0.00    +0.002 A 
ATOM     15  C   UNL     1      -1.419   2.411   4.620  0.00  0.00    +0.004 A 
ATOM     16  C   UNL     1      -0.986   1.176   5.062  0.00  0.00    +0.048 A 
ATOM     17  C   UNL     1      -1.266   0.037   4.324  0.00  0.00    +0.144 A 
BRANCH  17  18
ATOM     18  O   UNL     1      -0.841  -1.179   4.758  0.00  0.00    -0.490 OA
BRANCH  18  19
ATOM     19  C   UNL     1      -0.109  -1.210   5.985  0.00  0.00    +0.226 C 
ATOM     20  C   UNL     1       0.283  -2.653   6.309  0.00  0.00    +0.048 C 
ENDBRANCH  18  19
ENDBRANCH  17  18
ENDBRANCH  11  12
BRANCH   1  21
ATOM     21  C   UNL     1      -0.022  -0.778   1.409  0.00  0.00    +0.143 C 
ATOM     22  C   UNL     1       1.120  -1.761   1.676  0.00  0.00    +0.034 C 
BRANCH  21  23
ATOM     23  N   UNL     1       0.117  -0.223   0.060  0.00  0.00    -0.167 NA
BRANCH  23  24
ATOM     24  S   UNL     1       0.264   1.413  -0.151  0.00  0.00    +0.061 S 
ATOM     25  O   UNL     1      -0.175   1.693  -1.473  0.00  0.00    -0.153 OA
ATOM     26  O   UNL     1      -0.320   2.024   0.992  0.00  0.00    -0.153 OA
BRANCH  24  27
ATOM     27  C   UNL     1       1.984   1.792  -0.101  0.00  0.00    +0.106 A 
ATOM     28  C   UNL     1       2.588   2.105   1.103  0.00  0.00    +0.029 A 
ATOM     29  C   UNL     1       3.938   2.399   1.143  0.00  0.00    +0.006 A 
ATOM     30  C   UNL     1       4.683   2.388  -0.022  0.00  0.00    -0.042 A 
ATOM     31  C   UNL     1       4.078   2.079  -1.226  0.00  0.00    +0.006 A 
ATOM     32  C   UNL     1       2.728   1.782  -1.266  0.00  0.00    +0.029 A 
BRANCH  30  33
ATOM     33  C   UNL     1       6.154   2.712   0.021  0.00  0.00    -0.013 C 
ATOM     34  C   UNL     1       6.433   3.934  -0.857  0.00  0.00    +0.015 C 
ATOM     35  C   UNL     1       6.568   3.014   1.462  0.00  0.00    +0.015 C 
ATOM     36  C   UNL     1       6.955   1.517  -0.500  0.00  0.00    +0.015 C 
ENDBRANCH  30  33
ENDBRANCH  24  27
ENDBRANCH  23  24
BRANCH  23  38
ATOM     37  C   UNL     1       1.551  -1.611  -1.353  0.00  0.00    +0.022 C 
ATOM     38  C   UNL     1       0.126  -1.115  -1.102  0.00  0.00    +0.107 C 
ENDBRANCH  23  38
ENDBRANCH  21  23
ENDBRANCH   1  21
TORSDOF 9
