REMARK  Name = ZINC08606533
REMARK  7 active torsions:
REMARK  status: ('A' for Active; 'I' for Inactive)
REMARK    1  A    between atoms: C_1  and  O_2
REMARK    2  A    between atoms: O_2  and  C_3
REMARK    3  A    between atoms: C_3  and  C_4
REMARK    4  A    between atoms: C_4  and  N_5
REMARK    5  A    between atoms: C_6  and  C_23
REMARK    6  A    between atoms: C_9  and  C_16
REMARK    7  A    between atoms: C_21  and  O_22
REMARK                            x       y       z     vdW  Elec       q    Type
REMARK                         _______ _______ _______ _____ _____    ______ ____
ROOT
ATOM      1  N   UNL     1       1.403  -2.352  -0.217  0.00  0.00    -0.283 N 
ATOM      2  C   UNL     1       0.926  -2.554  -1.591  0.00  0.00    +0.141 C 
ATOM      3  C   UNL     1       2.093  -3.108  -2.361  0.00  0.00    +0.035 A 
ATOM      4  C   UNL     1       2.586  -3.571  -3.586  0.00  0.00    +0.102 A 
ATOM      5  N   UNL     1       3.846  -3.912  -3.401  0.00  0.00    -0.173 NA
ATOM      6  N   UNL     1       4.198  -3.710  -2.181  0.00  0.00    -0.272 N 
ATOM      7  H   UNL     1       5.080  -3.889  -1.819  0.00  0.00    +0.189 HD
ATOM      8  C   UNL     1       3.146  -3.206  -1.471  0.00  0.00    +0.126 A 
ATOM      9  C   UNL     1       2.694  -2.729  -0.159  0.00  0.00    +0.266 C 
ATOM     10  O   UNL     1       3.386  -2.682   0.840  0.00  0.00    -0.268 OA
ENDROOT
BRANCH   2  11
ATOM     11  C   UNL     1      -0.218  -3.535  -1.604  0.00  0.00    -0.021 A 
ATOM     12  C   UNL     1      -0.132  -4.707  -0.875  0.00  0.00    +0.007 A 
ATOM     13  C   UNL     1      -1.180  -5.607  -0.886  0.00  0.00    +0.022 A 
ATOM     14  C   UNL     1      -2.317  -5.336  -1.627  0.00  0.00    +0.059 A 
ATOM     15  C   UNL     1      -2.404  -4.162  -2.356  0.00  0.00    +0.060 A 
ATOM     16  C   UNL     1      -1.355  -3.260  -2.339  0.00  0.00    +0.027 A 
ATOM     17 CL   UNL     1      -3.829  -3.821  -3.286  0.00  0.00    -0.082 Cl
ATOM     18 CL   UNL     1      -3.634  -6.467  -1.641  0.00  0.00    -0.082 Cl
ENDBRANCH   2  11
BRANCH   4  19
ATOM     19  C   UNL     1       1.829  -3.662  -4.859  0.00  0.00    +0.044 A 
ATOM     20  C   UNL     1       1.052  -2.589  -5.289  0.00  0.00    +0.014 A 
ATOM     21  C   UNL     1       0.350  -2.679  -6.474  0.00  0.00    +0.001 A 
ATOM     22  C   UNL     1       0.415  -3.831  -7.237  0.00  0.00    +0.004 A 
ATOM     23  C   UNL     1       1.182  -4.902  -6.819  0.00  0.00    +0.046 A 
ATOM     24  C   UNL     1       1.897  -4.823  -5.634  0.00  0.00    +0.126 A 
BRANCH  24  25
ATOM     25  O   UNL     1       2.656  -5.873  -5.225  0.00  0.00    -0.506 OA
ATOM     26  H   UNL     1       2.182  -6.508  -4.671  0.00  0.00    +0.292 HD
ENDBRANCH  24  25
ENDBRANCH   4  19
BRANCH   1  27
ATOM     27  C   UNL     1       0.612  -1.825   0.898  0.00  0.00    +0.137 C 
BRANCH  27  28
ATOM     28  C   UNL     1       0.744  -0.301   0.941  0.00  0.00    +0.178 C 
BRANCH  28  30
ATOM     29  C   UNL     1       0.231   1.687  -0.295  0.00  0.00    +0.194 C 
ATOM     30  O   UNL     1       0.161   0.261  -0.236  0.00  0.00    -0.381 OA
ENDBRANCH  28  30
ENDBRANCH  27  28
ENDBRANCH   1  27
TORSDOF 6
