REMARK  Name = ZINC38534892
REMARK  4 active torsions:
REMARK  status: ('A' for Active; 'I' for Inactive)
REMARK    1  A    between atoms: C_4  and  C_7
REMARK    2  A    between atoms: N_9  and  N_10
REMARK    3  A    between atoms: C_11  and  C_12
REMARK    4  A    between atoms: N_32  and  C_35
REMARK                            x       y       z     vdW  Elec       q    Type
REMARK                         _______ _______ _______ _____ _____    ______ ____
ROOT
ATOM      1  C   UNL     1       3.678  -4.754  -0.267  0.00  0.00    +0.070 C 
ATOM      2  C   UNL     1       3.483  -5.719  -1.435  0.00  0.00    -0.027 A 
ATOM      3  C   UNL     1       4.445  -5.929  -2.392  0.00  0.00    +0.005 A 
ATOM      4  C   UNL     1       4.166  -6.779  -3.451  0.00  0.00    +0.000 A 
ATOM      5  C   UNL     1       2.938  -7.407  -3.557  0.00  0.00    +0.000 A 
ATOM      6  C   UNL     1       1.970  -7.210  -2.576  0.00  0.00    +0.004 A 
ATOM      7  C   UNL     1       2.271  -6.397  -1.531  0.00  0.00    -0.035 A 
ATOM      8  C   UNL     1       1.357  -6.216  -0.283  0.00  0.00    +0.062 C 
ATOM      9  C   UNL     1       1.230  -4.692  -0.308  0.00  0.00    -0.035 A 
ATOM     10  C   UNL     1       2.382  -3.916  -0.371  0.00  0.00    -0.027 A 
ATOM     11  C   UNL     1       2.347  -2.565  -0.507  0.00  0.00    +0.005 A 
ATOM     12  C   UNL     1       1.107  -1.934  -0.516  0.00  0.00    +0.000 A 
ATOM     13  C   UNL     1      -0.048  -2.683  -0.382  0.00  0.00    +0.000 A 
ATOM     14  C   UNL     1       0.005  -4.067  -0.291  0.00  0.00    +0.004 A 
ATOM     15  C   UNL     1       2.425  -6.658   0.716  0.00  0.00    +0.101 C 
ATOM     16  C   UNL     1       3.321  -5.412   1.039  0.00  0.00    +0.109 C 
ATOM     17  C   UNL     1       4.174  -5.955   2.104  0.00  0.00    +0.232 C 
ATOM     18  O   UNL     1       5.349  -5.734   2.307  0.00  0.00    -0.274 OA
ATOM     19  N   UNL     1       3.328  -6.772   2.817  0.00  0.00    -0.210 N 
ATOM     20  C   UNL     1       2.142  -7.060   2.121  0.00  0.00    +0.231 C 
ATOM     21  O   UNL     1       1.113  -7.515   2.572  0.00  0.00    -0.274 OA
ENDROOT
BRANCH  19  22
ATOM     22  C   UNL     1       3.630  -7.276   4.090  0.00  0.00    +0.044 A 
ATOM     23  C   UNL     1       4.835  -6.950   4.699  0.00  0.00    +0.024 A 
ATOM     24  C   UNL     1       5.130  -7.448   5.953  0.00  0.00    +0.002 A 
ATOM     25  C   UNL     1       4.227  -8.269   6.603  0.00  0.00    +0.000 A 
ATOM     26  C   UNL     1       3.026  -8.595   5.999  0.00  0.00    +0.002 A 
ATOM     27  C   UNL     1       2.723  -8.096   4.748  0.00  0.00    +0.024 A 
ENDBRANCH  19  22
BRANCH   1  29
ATOM     28  N   UNL     1       6.090  -4.617  -0.277  0.00  0.00    -0.191 NA
ATOM     29  C   UNL     1       4.976  -3.988  -0.275  0.00  0.00    +0.120 C 
BRANCH  28  32
ATOM     30  C   UNL     1       7.282  -6.667  -0.056  0.00  0.00    +0.263 C 
ATOM     31  O   UNL     1       8.322  -6.041   0.015  0.00  0.00    -0.268 OA
ATOM     32  N   UNL     1       6.107  -6.013  -0.152  0.00  0.00    -0.203 N 
ATOM     33  H   UNL     1       5.273  -6.508  -0.135  0.00  0.00    +0.178 HD
BRANCH  30  37
ATOM     34  C   UNL     1       7.350 -10.913   0.001  0.00  0.00    +0.000 A 
ATOM     35  C   UNL     1       8.539 -10.205  -0.025  0.00  0.00    +0.001 A 
ATOM     36  C   UNL     1       8.524  -8.826  -0.044  0.00  0.00    +0.013 A 
ATOM     37  C   UNL     1       7.305  -8.144  -0.037  0.00  0.00    +0.038 A 
ATOM     38  C   UNL     1       6.110  -8.864  -0.011  0.00  0.00    +0.013 A 
ATOM     39  C   UNL     1       6.139 -10.243   0.008  0.00  0.00    +0.001 A 
ENDBRANCH  30  37
ENDBRANCH  28  32
ENDBRANCH   1  29
TORSDOF 4
