REMARK  Name = ZINC40035952
REMARK  11 active torsions:
REMARK  status: ('A' for Active; 'I' for Inactive)
REMARK    1  A    between atoms: C_1  and  C_2
REMARK    2  A    between atoms: C_2  and  C_3
REMARK    3  A    between atoms: C_3  and  C_4
REMARK    4  A    between atoms: C_4  and  C_38
REMARK    5  A    between atoms: N_16  and  C_32
REMARK    6  A    between atoms: N_19  and  N_20
REMARK    7  A    between atoms: C_21  and  C_22
REMARK    8  A    between atoms: C_25  and  C_28
REMARK    9  A    between atoms: C_28  and  C_29
REMARK   10  A    between atoms: C_28  and  C_30
REMARK   11  A    between atoms: C_28  and  C_31
REMARK                            x       y       z     vdW  Elec       q    Type
REMARK                         _______ _______ _______ _____ _____    ______ ____
ROOT
ATOM      1  C   UNL     1      -1.132  -1.277  -0.598  0.00  0.00    +0.004 C 
ATOM      2  C   UNL     1      -2.558  -1.391  -0.067  0.00  0.00    +0.047 C 
ATOM      3  C   UNL     1      -3.525  -1.627  -1.196  0.00  0.00    -0.037 A 
ATOM      4  C   UNL     1      -4.790  -1.076  -1.160  0.00  0.00    +0.004 A 
ATOM      5  C   UNL     1      -5.674  -1.301  -2.200  0.00  0.00    +0.000 A 
ATOM      6  C   UNL     1      -5.300  -2.080  -3.281  0.00  0.00    +0.001 A 
ATOM      7  C   UNL     1      -4.037  -2.637  -3.330  0.00  0.00    +0.010 A 
ATOM      8  C   UNL     1      -3.144  -2.410  -2.287  0.00  0.00    +0.004 A 
ATOM      9  C   UNL     1      -1.780  -2.986  -2.315  0.00  0.00    +0.084 A 
ATOM     10  C   UNL     1      -0.805  -2.439  -1.493  0.00  0.00    +0.050 A 
ATOM     11  C   UNL     1       0.482  -2.990  -1.514  0.00  0.00    +0.264 A 
ATOM     12  O   UNL     1       1.366  -2.538  -0.803  0.00  0.00    -0.267 OA
ATOM     13  N   UNL     1       0.726  -4.032  -2.338  0.00  0.00    -0.248 N 
ATOM     14  C   UNL     1      -0.267  -4.528  -3.130  0.00  0.00    +0.223 A 
ATOM     15  N   UNL     1      -1.480  -4.015  -3.114  0.00  0.00    -0.214 NA
ATOM     16  N   UNL     1       0.003  -5.584  -3.962  0.00  0.00    -0.206 N 
ATOM     17  C   UNL     1      -0.156  -1.257   0.580  0.00  0.00    +0.017 C 
ATOM     18  H   UNL     1       0.870  -6.018  -3.929  0.00  0.00    +0.177 HD
ENDROOT
BRANCH  13  19
ATOM     19  C   UNL     1       2.003  -4.606  -2.378  0.00  0.00    +0.053 A 
ATOM     20  C   UNL     1       2.953  -4.127  -3.271  0.00  0.00    +0.026 A 
ATOM     21  C   UNL     1       4.211  -4.694  -3.309  0.00  0.00    +0.002 A 
ATOM     22  C   UNL     1       4.526  -5.739  -2.459  0.00  0.00    +0.000 A 
ATOM     23  C   UNL     1       3.583  -6.218  -1.569  0.00  0.00    +0.002 A 
ATOM     24  C   UNL     1       2.324  -5.651  -1.522  0.00  0.00    +0.026 A 
ENDBRANCH  13  19
BRANCH  16  25
ATOM     25  N   UNL     1      -0.973  -6.036  -4.859  0.00  0.00    -0.188 NA
ATOM     26  C   UNL     1      -0.718  -7.036  -5.647  0.00  0.00    +0.138 C 
BRANCH  26  27
ATOM     27  C   UNL     1      -1.745  -7.511  -6.592  0.00  0.00    -0.005 A 
ATOM     28  C   UNL     1      -2.992  -6.885  -6.646  0.00  0.00    +0.010 A 
ATOM     29  C   UNL     1      -3.949  -7.336  -7.532  0.00  0.00    +0.005 A 
ATOM     30  C   UNL     1      -3.675  -8.406  -8.366  0.00  0.00    -0.042 A 
ATOM     31  C   UNL     1      -2.441  -9.031  -8.317  0.00  0.00    +0.005 A 
ATOM     32  C   UNL     1      -1.473  -8.587  -7.441  0.00  0.00    +0.010 A 
BRANCH  30  33
ATOM     33  C   UNL     1      -4.725  -8.892  -9.331  0.00  0.00    -0.013 C 
ATOM     34  C   UNL     1      -5.100  -7.760 -10.290  0.00  0.00    +0.015 C 
ATOM     35  C   UNL     1      -4.174 -10.075 -10.130  0.00  0.00    +0.015 C 
ATOM     36  C   UNL     1      -5.966  -9.335  -8.554  0.00  0.00    +0.015 C 
ENDBRANCH  30  33
ENDBRANCH  26  27
ENDBRANCH  16  25
BRANCH   1  37
ATOM     37  C   UNL     1      -0.992   0.025  -1.391  0.00  0.00    +0.011 C 
BRANCH  37  39
ATOM     38  C   UNL     1       0.585   1.460  -2.694  0.00  0.00    +0.004 C 
ATOM     39  C   UNL     1       0.445   0.158  -1.902  0.00  0.00    -0.003 C 
ENDBRANCH  37  39
ENDBRANCH   1  37
TORSDOF 6
