REMARK  Name = ZINC43199053
REMARK  23 active torsions:
REMARK  status: ('A' for Active; 'I' for Inactive)
REMARK    1  A    between atoms: C_1  and  C_2
REMARK    2  A    between atoms: C_2  and  C_33
REMARK    3  A    between atoms: C_4  and  C_26
REMARK    4  A    between atoms: C_6  and  C_8
REMARK    5  A    between atoms: C_6  and  C_15
REMARK    6  A    between atoms: C_8  and  O_10
REMARK    7  A    between atoms: O_10  and  C_11
REMARK    8  A    between atoms: C_11  and  C_12
REMARK    9  A    between atoms: C_11  and  C_13
REMARK   10  A    between atoms: C_11  and  C_14
REMARK   11  A    between atoms: C_15  and  C_16
REMARK   12  A    between atoms: C_15  and  C_18
REMARK   13  A    between atoms: C_15  and  O_25
REMARK   14  A    between atoms: C_18  and  O_20
REMARK   15  A    between atoms: O_20  and  C_21
REMARK   16  A    between atoms: C_21  and  C_22
REMARK   17  A    between atoms: C_21  and  C_23
REMARK   18  A    between atoms: C_21  and  C_24
REMARK   19  A    between atoms: C_26  and  O_28
REMARK   20  A    between atoms: O_28  and  C_29
REMARK   21  A    between atoms: C_29  and  C_30
REMARK   22  A    between atoms: C_29  and  C_31
REMARK   23  A    between atoms: C_29  and  C_32
REMARK                            x       y       z     vdW  Elec       q    Type
REMARK                         _______ _______ _______ _____ _____    ______ ____
ROOT
ATOM      1  C   UNL     1      -4.195   2.075   0.790  0.00  0.00    +0.074 C 
ATOM      2  C   UNL     1      -3.514   0.709   0.886  0.00  0.00    +0.167 C 
ATOM      3  O   UNL     1      -4.096  -0.061   1.960  0.00  0.00    -0.331 OA
ATOM      4  C   UNL     1      -3.066  -1.032   2.268  0.00  0.00    +0.276 C 
ATOM      5  C   UNL     1      -1.763  -0.225   2.077  0.00  0.00    +0.244 C 
ATOM      6  O   UNL     1      -2.124   0.871   1.217  0.00  0.00    -0.325 OA
ATOM      7  C   UNL     1      -3.655  -0.043  -0.439  0.00  0.00    +0.074 C 
ENDROOT
BRANCH   5   8
ATOM      8  C   UNL     1      -1.269   0.291   3.404  0.00  0.00    +0.347 C 
ATOM      9  O   UNL     1      -1.492  -0.331   4.415  0.00  0.00    -0.247 OA
BRANCH   8  10
ATOM     10  O   UNL     1      -0.581   1.442   3.462  0.00  0.00    -0.457 OA
BRANCH  10  11
ATOM     11  C   UNL     1      -0.088   1.840   4.743  0.00  0.00    +0.105 C 
ATOM     12  C   UNL     1       0.844   0.757   5.289  0.00  0.00    +0.055 C 
ATOM     13  C   UNL     1       0.682   3.155   4.607  0.00  0.00    +0.055 C 
ATOM     14  C   UNL     1      -1.263   2.033   5.704  0.00  0.00    +0.055 C 
ENDBRANCH  10  11
ENDBRANCH   8  10
ENDBRANCH   5   8
BRANCH   4  15
ATOM     15  C   UNL     1      -3.196  -1.515   3.689  0.00  0.00    +0.340 C 
ATOM     16  O   UNL     1      -3.735  -0.819   4.517  0.00  0.00    -0.248 OA
BRANCH  15  17
ATOM     17  O   UNL     1      -2.714  -2.719   4.036  0.00  0.00    -0.457 OA
BRANCH  17  18
ATOM     18  C   UNL     1      -2.995  -3.173   5.361  0.00  0.00    +0.105 C 
ATOM     19  C   UNL     1      -4.509  -3.253   5.563  0.00  0.00    +0.055 C 
ATOM     20  C   UNL     1      -2.380  -4.559   5.567  0.00  0.00    +0.055 C 
ATOM     21  C   UNL     1      -2.397  -2.194   6.374  0.00  0.00    +0.055 C 
ENDBRANCH  17  18
ENDBRANCH  15  17
ENDBRANCH   4  15
BRANCH   5  22
ATOM     22  C   UNL     1      -0.693  -1.093   1.411  0.00  0.00    +0.215 C 
BRANCH  22  23
ATOM     23  C   UNL     1       0.593  -0.281   1.248  0.00  0.00    +0.130 C 
ATOM     24 BR   UNL     1       0.278   1.202  -0.004  0.00  0.00    -0.088 Br
ENDBRANCH  22  23
BRANCH  22  25
ATOM     25  C   UNL     1      -0.420  -2.300   2.270  0.00  0.00    +0.344 C 
ATOM     26  O   UNL     1      -0.714  -2.288   3.442  0.00  0.00    -0.247 OA
BRANCH  25  27
ATOM     27  O   UNL     1       0.151  -3.390   1.733  0.00  0.00    -0.457 OA
BRANCH  27  28
ATOM     28  C   UNL     1       0.282  -4.536   2.577  0.00  0.00    +0.105 C 
ATOM     29  C   UNL     1      -1.107  -5.053   2.956  0.00  0.00    +0.055 C 
ATOM     30  C   UNL     1       1.049  -5.632   1.834  0.00  0.00    +0.055 C 
ATOM     31  C   UNL     1       1.046  -4.150   3.846  0.00  0.00    +0.055 C 
ENDBRANCH  27  28
ENDBRANCH  25  27
ENDBRANCH  22  25
BRANCH  22  32
ATOM     32  O   UNL     1      -1.155  -1.516   0.127  0.00  0.00    -0.374 OA
ATOM     33  H   UNL     1      -1.974  -2.030   0.153  0.00  0.00    +0.211 HD
ENDBRANCH  22  32
ENDBRANCH   5  22
TORSDOF 12
