REMARK  Name = ZINC13316275
REMARK  8 active torsions:
REMARK  status: ('A' for Active; 'I' for Inactive)
REMARK    1  A    between atoms: C_1  and  C_2
REMARK    2  A    between atoms: C_5  and  N_9
REMARK    3  A    between atoms: C_6  and  C_8
REMARK    4  A    between atoms: C_10  and  C_12
REMARK    5  A    between atoms: C_12  and  C_14
REMARK    6  A    between atoms: C_12  and  O_15
REMARK    7  A    between atoms: O_15  and  C_16
REMARK    8  A    between atoms: C_21  and  C_22
REMARK                            x       y       z     vdW  Elec       q    Type
REMARK                         _______ _______ _______ _____ _____    ______ ____
ROOT
ATOM      1  C   UNL     1       2.833   2.033  -2.987  0.00  0.00    +0.256 C 
ATOM      2  C   UNL     1       4.020   1.811  -3.926  0.00  0.00    +0.062 C 
ENDROOT
BRANCH   1   4
ATOM      3  N   UNL     1       1.830   3.809  -4.386  0.00  0.00    -0.282 N 
ATOM      4  C   UNL     1       1.683   2.624  -3.762  0.00  0.00    +0.258 C 
ATOM      5  O   UNL     1       0.626   2.033  -3.823  0.00  0.00    -0.271 OA
ATOM      6  H   UNL     1       2.647   4.320  -4.272  0.00  0.00    +0.155 HD
BRANCH   3  11
ATOM      7  C   UNL     1      -2.328   5.812  -7.685  0.00  0.00    +0.044 C 
ATOM      8  C   UNL     1      -1.224   5.280  -6.809  0.00  0.00    -0.050 A 
ATOM      9  C   UNL     1      -1.113   3.919  -6.588  0.00  0.00    +0.005 A 
ATOM     10  C   UNL     1      -0.102   3.428  -5.785  0.00  0.00    +0.024 A 
ATOM     11  C   UNL     1       0.804   4.303  -5.200  0.00  0.00    +0.036 A 
ATOM     12  C   UNL     1       0.687   5.669  -5.419  0.00  0.00    -0.029 A 
ATOM     13  C   UNL     1      -0.323   6.153  -6.227  0.00  0.00    +0.008 A 
ATOM     14  C   UNL     1       1.664   6.622  -4.781  0.00  0.00    +0.045 C 
ENDBRANCH   3  11
ENDBRANCH   1   4
BRANCH   1  15
ATOM     15  O   UNL     1       2.433   0.783  -2.421  0.00  0.00    -0.478 OA
BRANCH  15  16
ATOM     16  C   UNL     1       3.022   0.418  -1.255  0.00  0.00    +0.155 A 
ATOM     17  C   UNL     1       4.198  -0.320  -1.269  0.00  0.00    +0.085 A 
ATOM     18  C   UNL     1       4.795  -0.695  -0.081  0.00  0.00    +0.045 A 
ATOM     19  C   UNL     1       4.230  -0.335   1.133  0.00  0.00    +0.062 A 
ATOM     20  C   UNL     1       3.065   0.404   1.166  0.00  0.00    +0.077 A 
ATOM     21  C   UNL     1       2.450   0.791  -0.030  0.00  0.00    +0.126 A 
ATOM     22 CL   UNL     1       2.363   0.852   2.689  0.00  0.00    -0.081 Cl
ATOM     23 CL   UNL     1       4.992  -0.815   2.617  0.00  0.00    -0.082 Cl
ATOM     24 CL   UNL     1       4.915  -0.777  -2.782  0.00  0.00    -0.080 Cl
BRANCH  21  25
ATOM     25  C   UNL     1       1.206   1.579  -0.003  0.00  0.00    +0.392 C 
ATOM     26  O   UNL     1       1.257   2.793   0.006  0.00  0.00    -0.240 OA
ATOM     27  O   UNL     1       0.013   0.954   0.012  0.00  0.00    -0.240 OA
ENDBRANCH  21  25
ENDBRANCH  15  16
ENDBRANCH   1  15
TORSDOF 5
