REMARK  Name = ZINC34830341
REMARK  10 active torsions:
REMARK  status: ('A' for Active; 'I' for Inactive)
REMARK    1  A    between atoms: C_1  and  C_2
REMARK    2  A    between atoms: C_7  and  C_8
REMARK    3  A    between atoms: N_17  and  C_18
REMARK    4  A    between atoms: C_18  and  C_20
REMARK    5  A    between atoms: C_18  and  C_21
REMARK    6  A    between atoms: C_29  and  C_31
REMARK    7  A    between atoms: C_34  and  C_37
REMARK    8  A    between atoms: C_37  and  C_38
REMARK    9  A    between atoms: C_37  and  C_39
REMARK   10  A    between atoms: C_37  and  C_40
REMARK                            x       y       z     vdW  Elec       q    Type
REMARK                         _______ _______ _______ _____ _____    ______ ____
ROOT
ATOM      1  C   UNL     1       2.041  -1.204   1.504  0.00  0.00    +0.202 C 
ATOM      2  O   UNL     1       1.006  -1.464   0.929  0.00  0.00    -0.277 OA
ATOM      3  N   UNL     1       3.224  -1.458   0.910  0.00  0.00    -0.300 N 
ATOM      4  C   UNL     1       4.485  -1.257   1.637  0.00  0.00    +0.126 C 
ATOM      5  C   UNL     1       5.284  -2.566   1.605  0.00  0.00    +0.127 C 
ATOM      6  N   UNL     1       5.335  -3.051   0.219  0.00  0.00    -0.295 N 
ATOM      7  C   UNL     1       4.074  -3.252  -0.508  0.00  0.00    +0.127 C 
ATOM      8  C   UNL     1       3.276  -1.949  -0.475  0.00  0.00    +0.126 C 
ATOM      9  C   UNL     1       6.518  -3.306  -0.375  0.00  0.00    +0.247 C 
ATOM     10  O   UNL     1       6.554  -3.613  -1.550  0.00  0.00    -0.270 OA
ENDROOT
BRANCH   9  11
ATOM     11  C   UNL     1       7.771  -3.213   0.404  0.00  0.00    +0.037 A 
ATOM     12  C   UNL     1       7.812  -3.666   1.723  0.00  0.00    +0.013 A 
ATOM     13  C   UNL     1       8.986  -3.576   2.444  0.00  0.00    +0.005 A 
ATOM     14  C   UNL     1      10.119  -3.038   1.861  0.00  0.00    -0.042 A 
ATOM     15  C   UNL     1      10.085  -2.587   0.554  0.00  0.00    +0.005 A 
ATOM     16  C   UNL     1       8.921  -2.676  -0.180  0.00  0.00    +0.013 A 
BRANCH  14  17
ATOM     17  C   UNL     1      11.397  -2.943   2.655  0.00  0.00    -0.013 C 
ATOM     18  C   UNL     1      11.832  -4.343   3.091  0.00  0.00    +0.015 C 
ATOM     19  C   UNL     1      12.491  -2.316   1.787  0.00  0.00    +0.015 C 
ATOM     20  C   UNL     1      11.166  -2.072   3.892  0.00  0.00    +0.015 C 
ENDBRANCH  14  17
ENDBRANCH   9  11
BRANCH   1  21
ATOM     21  C   UNL     1       2.006  -0.594   2.882  0.00  0.00    +0.018 C 
ATOM     22  C   UNL     1       2.173  -1.696   3.931  0.00  0.00    -0.004 C 
BRANCH  21  31
ATOM     23  C   UNL     1       0.771   0.856   4.331  0.00  0.00    -0.005 C 
ATOM     24  C   UNL     1      -0.601   1.473   4.587  0.00  0.00    -0.047 A 
ATOM     25  C   UNL     1      -0.823   2.556   5.435  0.00  0.00    +0.010 A 
ATOM     26  C   UNL     1      -2.076   3.040   5.600  0.00  0.00    +0.045 A 
ATOM     27  S   UNL     1      -3.030   1.963   4.540  0.00  0.00    -0.101 S 
ATOM     28  C   UNL     1      -1.696   0.955   3.963  0.00  0.00    -0.010 A 
ATOM     29  C   UNL     1      -1.713  -0.202   3.018  0.00  0.00    +0.024 C 
ATOM     30  C   UNL     1      -0.356  -0.917   3.136  0.00  0.00    -0.071 C 
ATOM     31  N   UNL     1       0.719   0.084   3.084  0.00  0.00    +0.395 N 
ATOM     32  H   UNL     1       0.550   0.711   2.312  0.00  0.00    -0.079 HD
BRANCH  23  39
ATOM     33  C   UNL     1       2.134   1.834   6.684  0.00  0.00    +0.044 C 
ATOM     34  C   UNL     1       2.453   2.417   5.331  0.00  0.00    -0.049 A 
ATOM     35  C   UNL     1       3.402   3.415   5.215  0.00  0.00    +0.003 A 
ATOM     36  C   UNL     1       3.695   3.950   3.975  0.00  0.00    +0.000 A 
ATOM     37  C   UNL     1       3.039   3.486   2.850  0.00  0.00    +0.000 A 
ATOM     38  C   UNL     1       2.091   2.487   2.966  0.00  0.00    +0.002 A 
ATOM     39  C   UNL     1       1.801   1.949   4.206  0.00  0.00    -0.054 A 
ENDBRANCH  23  39
ENDBRANCH  21  31
ENDBRANCH   1  21
TORSDOF 5
