REMARK  Name = ZINC04867036
REMARK  4 active torsions:
REMARK  status: ('A' for Active; 'I' for Inactive)
REMARK    1  A    between atoms: C_4  and  C_7
REMARK    2  A    between atoms: C_13  and  C_15
REMARK    3  A    between atoms: N_17  and  N_18
REMARK    4  A    between atoms: C_19  and  C_20
REMARK                            x       y       z     vdW  Elec       q    Type
REMARK                         _______ _______ _______ _____ _____    ______ ____
ROOT
ATOM      1  C   UNL     1       3.710  -0.814  -0.104  0.00  0.00    +0.057 C 
ATOM      2  C   UNL     1       3.791  -1.960  -1.136  0.00  0.00    +0.113 C 
ATOM      3  N   UNL     1       4.567  -3.021  -0.483  0.00  0.00    -0.314 N 
ATOM      4  C   UNL     1       4.626  -2.834   0.847  0.00  0.00    +0.226 C 
ATOM      5  O   UNL     1       5.198  -3.566   1.627  0.00  0.00    -0.275 OA
ATOM      6  C   UNL     1       3.876  -1.577   1.230  0.00  0.00    +0.171 C 
ATOM      7  H   UNL     1       4.984  -3.761  -0.951  0.00  0.00    +0.149 HD
ENDROOT
BRANCH   1  11
ATOM      8  C   UNL     1      -0.084   1.141  -0.284  0.00  0.00    +0.000 A 
ATOM      9  C   UNL     1      -0.009  -0.234  -0.405  0.00  0.00    +0.000 A 
ATOM     10  C   UNL     1       1.219  -0.867  -0.347  0.00  0.00    +0.004 A 
ATOM     11  C   UNL     1       2.371  -0.124  -0.168  0.00  0.00    -0.042 A 
ATOM     12  C   UNL     1       2.296   1.251  -0.048  0.00  0.00    +0.004 A 
ATOM     13  C   UNL     1       1.068   1.883  -0.104  0.00  0.00    +0.000 A 
ENDBRANCH   1  11
BRANCH   6  14
ATOM     14  C   UNL     1       2.529  -1.923   1.811  0.00  0.00    +0.245 C 
ATOM     15  O   UNL     1       1.996  -2.974   1.522  0.00  0.00    -0.273 OA
ATOM     16  N   UNL     1       1.916  -1.065   2.650  0.00  0.00    -0.206 N 
ATOM     17  H   UNL     1       2.342  -0.225   2.881  0.00  0.00    +0.177 HD
BRANCH  16  18
ATOM     18  N   UNL     1       0.664  -1.387   3.190  0.00  0.00    -0.187 NA
ATOM     19  C   UNL     1       0.072  -0.558   4.000  0.00  0.00    +0.145 C 
BRANCH  19  20
ATOM     20  C   UNL     1      -1.238  -0.895   4.565  0.00  0.00    +0.033 A 
ATOM     21  C   UNL     1      -2.030  -0.161   5.431  0.00  0.00    +0.018 A 
ATOM     22  C   UNL     1      -3.235  -0.693   5.825  0.00  0.00    +0.028 A 
ATOM     23  C   UNL     1      -3.608  -1.914   5.357  0.00  0.00    +0.079 A 
ATOM     24  S   UNL     1      -2.232  -2.356   4.309  0.00  0.00    -0.076 S 
ATOM     25 CL   UNL     1      -5.057  -2.812   5.688  0.00  0.00    -0.076 Cl
ENDBRANCH  19  20
ENDBRANCH  16  18
ENDBRANCH   6  14
TORSDOF 4
