REMARK  Name = ZINC35035860
REMARK  10 active torsions:
REMARK  status: ('A' for Active; 'I' for Inactive)
REMARK    1  A    between atoms: C_1  and  C_2
REMARK    2  A    between atoms: C_2  and  C_3
REMARK    3  A    between atoms: C_3  and  C_5
REMARK    4  A    between atoms: C_3  and  N_17
REMARK    5  A    between atoms: N_17  and  C_18
REMARK    6  A    between atoms: C_18  and  C_19
REMARK    7  A    between atoms: C_19  and  N_20
REMARK    8  A    between atoms: N_20  and  C_21
REMARK    9  A    between atoms: N_20  and  C_22
REMARK   10  A    between atoms: N_25  and  C_26
REMARK                            x       y       z     vdW  Elec       q    Type
REMARK                         _______ _______ _______ _____ _____    ______ ____
ROOT
ATOM      1  N   UNL     1      -0.055  -0.114  -2.441  0.00  0.00    -0.277 N 
ATOM      2  C   UNL     1       0.498   0.680  -3.379  0.00  0.00    +0.303 C 
ATOM      3  O   UNL     1       1.639   1.078  -3.243  0.00  0.00    -0.253 OA
ATOM      4  N   UNL     1      -0.213   1.033  -4.468  0.00  0.00    -0.294 N 
ATOM      5  H   UNL     1      -1.123   0.716  -4.576  0.00  0.00    +0.151 HD
ENDROOT
BRANCH   4   6
ATOM      6  C   UNL     1       0.389   1.896  -5.487  0.00  0.00    +0.037 C 
ATOM      7  C   UNL     1       0.785   3.232  -4.856  0.00  0.00    +0.029 C 
ATOM      8  C   UNL     1       1.413   4.133  -5.921  0.00  0.00    -0.008 C 
ATOM      9  C   UNL     1       0.402   4.379  -7.042  0.00  0.00    +0.007 C 
ATOM     10  C   UNL     1       0.005   3.043  -7.674  0.00  0.00    -0.008 C 
ATOM     11  C   UNL     1      -0.623   2.142  -6.609  0.00  0.00    +0.029 C 
ATOM     12  C   UNL     1       1.249   2.362  -8.249  0.00  0.00    +0.007 C 
ATOM     13  C   UNL     1       2.260   2.116  -7.128  0.00  0.00    -0.008 C 
ATOM     14  C   UNL     1       2.657   3.452  -6.496  0.00  0.00    +0.007 C 
ATOM     15  C   UNL     1       1.632   1.215  -6.063  0.00  0.00    +0.029 C 
ENDBRANCH   4   6
BRANCH   1  16
ATOM     16  C   UNL     1       0.718  -0.497  -1.257  0.00  0.00    +0.143 C 
BRANCH  16  17
ATOM     17  C   UNL     1       0.847  -1.998  -1.206  0.00  0.00    +0.131 A 
ATOM     18  N   UNL     1       1.440  -2.557  -0.119  0.00  0.00    -0.309 N 
ATOM     19  H   UNL     1       1.766  -1.989   0.596  0.00  0.00    +0.170 HD
ATOM     20  C   UNL     1       1.580  -3.900  -0.025  0.00  0.00    +0.259 A 
ATOM     21  O   UNL     1       2.109  -4.415   0.944  0.00  0.00    -0.267 OA
ATOM     22  C   UNL     1       1.068  -4.714  -1.137  0.00  0.00    +0.065 A 
ATOM     23  C   UNL     1       1.163  -6.104  -1.139  0.00  0.00    +0.015 A 
ATOM     24  C   UNL     1       0.666  -6.817  -2.208  0.00  0.00    +0.001 A 
ATOM     25  C   UNL     1       0.075  -6.162  -3.280  0.00  0.00    +0.002 A 
ATOM     26  C   UNL     1      -0.028  -4.789  -3.299  0.00  0.00    +0.028 A 
ATOM     27  C   UNL     1       0.467  -4.044  -2.226  0.00  0.00    +0.078 A 
ATOM     28  N   UNL     1       0.381  -2.691  -2.200  0.00  0.00    -0.232 NA
ENDBRANCH  16  17
BRANCH  16  30
ATOM     29  C   UNL     1      -0.019   1.526   0.010  0.00  0.00    +0.006 C 
ATOM     30  C   UNL     1       0.002  -0.004   0.002  0.00  0.00    +0.027 C 
ENDBRANCH  16  30
ENDBRANCH   1  16
BRANCH   1  31
ATOM     31  C   UNL     1      -1.430  -0.593  -2.605  0.00  0.00    +0.091 C 
BRANCH  31  32
ATOM     32  C   UNL     1      -2.397   0.405  -1.965  0.00  0.00    -0.060 C 
BRANCH  32  33
ATOM     33  N   UNL     1      -3.776  -0.076  -2.129  0.00  0.00    +0.377 N 
ATOM     34  C   UNL     1      -3.952  -1.325  -1.377  0.00  0.00    -0.097 C 
ATOM     35  C   UNL     1      -4.711   0.937  -1.622  0.00  0.00    -0.097 C 
ATOM     36  H   UNL     1      -3.959  -0.244  -3.107  0.00  0.00    -0.083 HD
ENDBRANCH  32  33
ENDBRANCH  31  32
ENDBRANCH   1  31
TORSDOF 7
