REMARK  Name = ZINC36751171
REMARK  10 active torsions:
REMARK  status: ('A' for Active; 'I' for Inactive)
REMARK    1  A    between atoms: C_1  and  C_2
REMARK    2  A    between atoms: C_4  and  C_14
REMARK    3  A    between atoms: C_5  and  C_13
REMARK    4  A    between atoms: N_6  and  C_7
REMARK    5  A    between atoms: C_7  and  C_8
REMARK    6  A    between atoms: N_16  and  C_17
REMARK    7  A    between atoms: C_22  and  C_23
REMARK    8  A    between atoms: C_23  and  N_24
REMARK    9  A    between atoms: N_24  and  C_25
REMARK   10  A    between atoms: N_24  and  C_26
REMARK                            x       y       z     vdW  Elec       q    Type
REMARK                         _______ _______ _______ _____ _____    ______ ____
ROOT
ATOM      1  C   UNL     1       0.616  -3.294  -1.575  0.00  0.00    +0.250 C 
ATOM      2  O   UNL     1       1.157  -4.303  -1.163  0.00  0.00    -0.270 OA
ATOM      3  N   UNL     1       0.035  -3.289  -2.791  0.00  0.00    -0.281 N 
ATOM      4  H   UNL     1      -0.453  -2.507  -3.092  0.00  0.00    +0.155 HD
ENDROOT
BRANCH   1   8
ATOM      5  C   UNL     1      -0.236   1.460   0.070  0.00  0.00    +0.063 C 
ATOM      6  C   UNL     1       0.206   0.023  -0.036  0.00  0.00    +0.017 A 
ATOM      7  C   UNL     1      -0.013  -0.788  -1.085  0.00  0.00    +0.035 A 
ATOM      8  C   UNL     1       0.593  -2.079  -0.743  0.00  0.00    +0.058 A 
ATOM      9  C   UNL     1       1.133  -1.926   0.504  0.00  0.00    +0.028 A 
ATOM     10  N   UNL     1       0.901  -0.665   0.916  0.00  0.00    -0.340 N 
ATOM     11  C   UNL     1       1.869  -2.987   1.282  0.00  0.00    +0.064 C 
BRANCH  10  12
ATOM     12  C   UNL     1       1.331  -0.112   2.203  0.00  0.00    +0.196 C 
BRANCH  12  13
ATOM     13  C   UNL     1       0.256  -0.344   3.233  0.00  0.00    +0.124 A 
ATOM     14  C   UNL     1       0.152  -1.420   4.034  0.00  0.00    +0.046 A 
ATOM     15  C   UNL     1      -0.995  -1.225   4.837  0.00  0.00    +0.041 A 
ATOM     16  C   UNL     1      -1.524  -0.041   4.479  0.00  0.00    +0.195 A 
ATOM     17  O   UNL     1      -0.759   0.490   3.511  0.00  0.00    -0.466 OA
ENDBRANCH  12  13
ENDBRANCH  10  12
ENDBRANCH   1   8
BRANCH   3  18
ATOM     18  C   UNL     1       0.138  -4.412  -3.619  0.00  0.00    +0.035 A 
ATOM     19  C   UNL     1       0.146  -5.686  -3.066  0.00  0.00    +0.023 A 
ATOM     20  C   UNL     1       0.247  -6.792  -3.886  0.00  0.00    +0.002 A 
ATOM     21  C   UNL     1       0.341  -6.633  -5.257  0.00  0.00    +0.000 A 
ATOM     22  C   UNL     1       0.333  -5.366  -5.811  0.00  0.00    +0.003 A 
ATOM     23  C   UNL     1       0.225  -4.255  -4.996  0.00  0.00    -0.043 A 
BRANCH  23  24
ATOM     24  C   UNL     1       0.210  -2.875  -5.601  0.00  0.00    -0.041 C 
BRANCH  24  25
ATOM     25  N   UNL     1       1.546  -2.275  -5.485  0.00  0.00    +0.382 N 
ATOM     26  C   UNL     1       2.500  -3.043  -6.295  0.00  0.00    -0.095 C 
ATOM     27  H   UNL     1       1.838  -2.288  -4.519  0.00  0.00    -0.081 HD
BRANCH  25  28
ATOM     28  C   UNL     1       1.503  -0.887  -5.964  0.00  0.00    -0.069 C 
ATOM     29  C   UNL     1       2.894  -0.262  -5.844  0.00  0.00    -0.015 C 
ATOM     30  C   UNL     1       2.849   1.183  -6.343  0.00  0.00    -0.002 C 
ATOM     31  C   UNL     1       1.855   1.984  -5.499  0.00  0.00    -0.000 C 
ATOM     32  C   UNL     1       0.464   1.359  -5.620  0.00  0.00    -0.002 C 
ATOM     33  C   UNL     1       0.509  -0.086  -5.120  0.00  0.00    -0.015 C 
ENDBRANCH  25  28
ENDBRANCH  24  25
ENDBRANCH  23  24
ENDBRANCH   3  18
TORSDOF 7
