REMARK  Name = ZINC34832128
REMARK  15 active torsions:
REMARK  status: ('A' for Active; 'I' for Inactive)
REMARK    1  A    between atoms: C_1  and  C_2
REMARK    2  A    between atoms: C_2  and  N_3
REMARK    3  A    between atoms: N_6  and  C_9
REMARK    4  A    between atoms: C_10  and  C_21
REMARK    5  A    between atoms: C_11  and  C_20
REMARK    6  A    between atoms: N_13  and  C_14
REMARK    7  A    between atoms: C_21  and  N_22
REMARK    8  A    between atoms: N_22  and  C_23
REMARK    9  A    between atoms: C_23  and  C_24
REMARK   10  A    between atoms: C_24  and  C_25
REMARK   11  A    between atoms: C_25  and  C_26
REMARK   12  A    between atoms: C_25  and  C_27
REMARK   13  A    between atoms: C_28  and  C_30
REMARK   14  A    between atoms: C_30  and  C_31
REMARK   15  A    between atoms: C_31  and  C_32
REMARK                            x       y       z     vdW  Elec       q    Type
REMARK                         _______ _______ _______ _____ _____    ______ ____
ROOT
ATOM      1  C   UNL     1       0.318  -2.938   4.688  0.00  0.00    +0.130 A 
ATOM      2  C   UNL     1       0.694  -4.246   4.655  0.00  0.00    +0.032 A 
ATOM      3  C   UNL     1       0.743  -4.711   5.973  0.00  0.00    +0.067 A 
ATOM      4  N   UNL     1       0.412  -3.729   6.772  0.00  0.00    -0.170 NA
ATOM      5  N   UNL     1       0.144  -2.596   5.993  0.00  0.00    -0.218 N 
ATOM      6  C   UNL     1       1.114  -6.107   6.401  0.00  0.00    +0.068 C 
ENDROOT
BRANCH   1  10
ATOM      7  N   UNL     1      -0.511   0.159   2.083  0.00  0.00    +0.382 N 
ATOM      8  C   UNL     1       0.643   0.209   2.990  0.00  0.00    -0.060 C 
ATOM      9  C   UNL     1       1.226  -1.199   3.152  0.00  0.00    +0.088 C 
ATOM     10  N   UNL     1       0.149  -2.102   3.587  0.00  0.00    -0.318 N 
ATOM     11  C   UNL     1      -1.110  -2.097   2.828  0.00  0.00    +0.088 C 
ATOM     12  C   UNL     1      -1.583  -0.646   2.682  0.00  0.00    -0.060 C 
ATOM     13  H   UNL     1      -0.230  -0.256   1.208  0.00  0.00    -0.082 HD
BRANCH   7  15
ATOM     14  C   UNL     1       0.071   2.328   1.106  0.00  0.00    -0.017 C 
ATOM     15  C   UNL     1      -1.002   1.522   1.842  0.00  0.00    -0.082 C 
ENDBRANCH   7  15
ENDBRANCH   1  10
BRANCH   5  16
ATOM     16  C   UNL     1      -0.238  -1.335   6.473  0.00  0.00    +0.067 A 
ATOM     17  C   UNL     1       0.380  -0.190   5.990  0.00  0.00    +0.028 A 
ATOM     18  C   UNL     1       0.001   1.050   6.464  0.00  0.00    +0.002 A 
ATOM     19  C   UNL     1      -0.994   1.152   7.419  0.00  0.00    +0.000 A 
ATOM     20  C   UNL     1      -1.612   0.013   7.903  0.00  0.00    +0.002 A 
ATOM     21  C   UNL     1      -1.240  -1.230   7.428  0.00  0.00    +0.028 A 
ENDBRANCH   5  16
BRANCH   2  22
ATOM     22  C   UNL     1       1.001  -5.051   3.419  0.00  0.00    +0.148 C 
BRANCH  22  23
ATOM     23  N   UNL     1       2.448  -5.064   3.191  0.00  0.00    -0.297 N 
ATOM     24  C   UNL     1       3.003  -4.187   2.331  0.00  0.00    +0.216 C 
ATOM     25  O   UNL     1       2.317  -3.337   1.804  0.00  0.00    -0.276 OA
BRANCH  23  26
ATOM     26  C   UNL     1       3.292  -6.030   3.899  0.00  0.00    +0.108 C 
BRANCH  26  27
ATOM     27  C   UNL     1       3.409  -7.310   3.069  0.00  0.00    +0.022 C 
BRANCH  27  28
ATOM     28  C   UNL     1       4.290  -8.319   3.809  0.00  0.00    -0.016 C 
ATOM     29  C   UNL     1       3.603  -8.740   5.109  0.00  0.00    +0.007 C 
ATOM     30  C   UNL     1       4.509  -9.548   2.925  0.00  0.00    +0.007 C 
ENDBRANCH  27  28
ENDBRANCH  26  27
ENDBRANCH  23  26
BRANCH  24  31
ATOM     31  C   UNL     1       4.477  -4.263   2.024  0.00  0.00    +0.100 C 
BRANCH  31  32
ATOM     32  C   UNL     1       4.847  -3.163   1.027  0.00  0.00    +0.044 C 
BRANCH  32  33
ATOM     33  C   UNL     1       6.320  -3.239   0.720  0.00  0.00    -0.047 A 
ATOM     34  C   UNL     1       7.224  -2.531   1.490  0.00  0.00    +0.003 A 
ATOM     35  C   UNL     1       8.576  -2.600   1.209  0.00  0.00    +0.000 A 
ATOM     36  C   UNL     1       9.024  -3.377   0.157  0.00  0.00    +0.000 A 
ATOM     37  C   UNL     1       8.120  -4.086  -0.613  0.00  0.00    +0.000 A 
ATOM     38  C   UNL     1       6.769  -4.020  -0.329  0.00  0.00    +0.003 A 
ENDBRANCH  32  33
ENDBRANCH  31  32
ENDBRANCH  24  31
ENDBRANCH  22  23
ENDBRANCH   2  22
TORSDOF 11
