REMARK  Name = ZINC06627443
REMARK  5 active torsions:
REMARK  status: ('A' for Active; 'I' for Inactive)
REMARK    1  A    between atoms: C_1  and  C_2
REMARK    2  A    between atoms: C_5  and  C_8
REMARK    3  A    between atoms: C_13  and  S_17
REMARK    4  A    between atoms: C_15  and  N_16
REMARK    5  A    between atoms: S_17  and  C_18
REMARK                            x       y       z     vdW  Elec       q    Type
REMARK                         _______ _______ _______ _____ _____    ______ ____
ROOT
ATOM      1  C   UNL     1       0.060  -4.275  -0.021  0.00  0.00    +0.087 C 
ATOM      2  C   UNL     1       1.298  -4.744  -0.722  0.00  0.00    +0.026 A 
ATOM      3  C   UNL     1       1.279  -5.073  -2.056  0.00  0.00    +0.055 A 
ATOM      4  N   UNL     1       2.400  -5.486  -2.636  0.00  0.00    -0.226 NA
ATOM      5  C   UNL     1       3.527  -5.583  -1.948  0.00  0.00    +0.190 A 
ATOM      6  N   UNL     1       3.586  -5.274  -0.661  0.00  0.00    -0.207 NA
ATOM      7  C   UNL     1       2.501  -4.855  -0.017  0.00  0.00    +0.125 A 
ATOM      8  C   UNL     1       0.018  -4.971  -2.857  0.00  0.00    +0.087 C 
ATOM      9  C   UNL     1      -1.212  -5.093  -1.991  0.00  0.00    -0.056 C 
ATOM     10  C   UNL     1      -1.185  -4.780  -0.702  0.00  0.00    +0.006 C 
ATOM     11  C   UNL     1      -2.389  -4.929   0.132  0.00  0.00    +0.160 C 
ATOM     12  O   UNL     1      -2.322  -4.834   1.339  0.00  0.00    -0.292 OA
ATOM     13  C   UNL     1      -3.711  -5.204  -0.548  0.00  0.00    +0.079 C 
ATOM     14  C   UNL     1      -3.433  -6.220  -1.666  0.00  0.00    +0.012 C 
ATOM     15  C   UNL     1      -2.470  -5.588  -2.665  0.00  0.00    +0.032 C 
ENDROOT
BRANCH   1  20
ATOM     16  C   UNL     1      -0.018   1.503   0.010  0.00  0.00    +0.044 C 
ATOM     17  C   UNL     1       0.002  -0.004   0.002  0.00  0.00    -0.050 A 
ATOM     18  C   UNL     1      -0.006  -0.689  -1.199  0.00  0.00    +0.003 A 
ATOM     19  C   UNL     1       0.018  -2.071  -1.206  0.00  0.00    +0.005 A 
ATOM     20  C   UNL     1       0.039  -2.768  -0.013  0.00  0.00    -0.035 A 
ATOM     21  C   UNL     1       0.041  -2.084   1.188  0.00  0.00    +0.005 A 
ATOM     22  C   UNL     1       0.023  -0.702   1.195  0.00  0.00    +0.003 A 
ENDBRANCH   1  20
BRANCH   7  23
ATOM     23  N   UNL     1       2.562  -4.532   1.329  0.00  0.00    -0.343 N 
ATOM     24  H   UNL     1       3.401  -4.611   1.809  0.00  0.00    +0.144 HD
ATOM     25  H   UNL     1       1.766  -4.226   1.790  0.00  0.00    +0.144 HD
ENDBRANCH   7  23
BRANCH   5  26
ATOM     26  S   UNL     1       4.987  -6.137  -2.765  0.00  0.00    -0.089 S 
ATOM     27  C   UNL     1       6.161  -6.072  -1.389  0.00  0.00    +0.093 C 
ENDBRANCH   5  26
TORSDOF 3
