REMARK  Name = ZINC20532563
REMARK  10 active torsions:
REMARK  status: ('A' for Active; 'I' for Inactive)
REMARK    1  A    between atoms: C_1  and  C_2
REMARK    2  A    between atoms: C_2  and  C_3
REMARK    3  A    between atoms: C_3  and  S_4
REMARK    4  A    between atoms: S_4  and  N_7
REMARK    5  A    between atoms: N_11  and  C_26
REMARK    6  A    between atoms: C_12  and  C_14
REMARK    7  A    between atoms: C_12  and  C_15
REMARK    8  A    between atoms: N_17  and  C_18
REMARK    9  A    between atoms: C_29  and  C_33
REMARK   10  A    between atoms: C_31  and  C_32
REMARK                            x       y       z     vdW  Elec       q    Type
REMARK                         _______ _______ _______ _____ _____    ______ ____
ROOT
ATOM      1  N   UNL     1      -0.465   1.784   1.403  0.00  0.00    -0.170 NA
ATOM      2  C   UNL     1      -1.399   0.770   1.913  0.00  0.00    +0.205 C 
ATOM      3  C   UNL     1      -2.595   1.463   2.505  0.00  0.00    +0.236 C 
ATOM      4  O   UNL     1      -3.578   0.801   2.766  0.00  0.00    -0.274 OA
ATOM      5  N   UNL     1      -2.626   2.772   2.757  0.00  0.00    -0.254 N 
ATOM      6  C   UNL     1      -1.560   3.705   2.416  0.00  0.00    +0.129 C 
ATOM      7  C   UNL     1      -0.225   2.967   2.248  0.00  0.00    +0.145 C 
ATOM      8  C   UNL     1      -1.914   4.417   1.109  0.00  0.00    +0.043 C 
ENDROOT
BRANCH   5   9
ATOM      9  C   UNL     1      -3.761   3.286   3.393  0.00  0.00    +0.040 A 
ATOM     10  C   UNL     1      -3.755   3.494   4.767  0.00  0.00    +0.024 A 
ATOM     11  C   UNL     1      -4.876   4.006   5.391  0.00  0.00    +0.005 A 
ATOM     12  C   UNL     1      -6.006   4.302   4.651  0.00  0.00    -0.050 A 
ATOM     13  C   UNL     1      -6.017   4.091   3.285  0.00  0.00    +0.008 A 
ATOM     14  C   UNL     1      -4.898   3.584   2.654  0.00  0.00    -0.029 A 
ATOM     15  C   UNL     1      -4.911   3.354   1.165  0.00  0.00    +0.045 C 
ATOM     16  C   UNL     1      -7.229   4.855   5.337  0.00  0.00    +0.044 C 
ENDBRANCH   5   9
BRANCH   6  17
ATOM     17  C   UNL     1      -1.424   4.726   3.516  0.00  0.00    +0.238 C 
ATOM     18  O   UNL     1      -1.504   5.909   3.259  0.00  0.00    -0.273 OA
ATOM     19  N   UNL     1      -1.213   4.325   4.785  0.00  0.00    -0.311 N 
ATOM     20  H   UNL     1      -1.219   3.253   5.032  0.00  0.00    +0.149 HD
BRANCH  19  21
ATOM     21  C   UNL     1      -0.976   5.317   5.837  0.00  0.00    +0.073 C 
ATOM     22  C   UNL     1       0.508   5.688   5.863  0.00  0.00    +0.022 C 
ATOM     23  C   UNL     1       0.697   6.981   6.659  0.00  0.00    +0.002 C 
ATOM     24  C   UNL     1      -0.381   7.990   6.259  0.00  0.00    +0.000 C 
ATOM     25  C   UNL     1      -1.322   8.227   7.441  0.00  0.00    +0.000 C 
ATOM     26  C   UNL     1      -2.267   7.032   7.587  0.00  0.00    +0.000 C 
ATOM     27  C   UNL     1      -1.513   5.859   8.216  0.00  0.00    +0.002 C 
ATOM     28  C   UNL     1      -1.378   4.731   7.192  0.00  0.00    +0.022 C 
ENDBRANCH  19  21
ENDBRANCH   6  17
BRANCH   1  29
ATOM     29  S   UNL     1       0.293   1.601  -0.058  0.00  0.00    +0.032 S 
ATOM     30  O   UNL     1       0.342   0.197  -0.267  0.00  0.00    -0.158 OA
ATOM     31  O   UNL     1       1.490   2.358   0.057  0.00  0.00    -0.158 OA
BRANCH  29  32
ATOM     32  C   UNL     1      -0.822   2.374  -1.261  0.00  0.00    +0.185 C 
BRANCH  32  34
ATOM     33  C   UNL     1      -1.157   2.916  -3.677  0.00  0.00    +0.005 C 
ATOM     34  C   UNL     1      -0.217   2.263  -2.662  0.00  0.00    +0.021 C 
ENDBRANCH  32  34
ENDBRANCH  29  32
ENDBRANCH   1  29
TORSDOF 6
