REMARK  Name = ZINC20562000
REMARK  12 active torsions:
REMARK  status: ('A' for Active; 'I' for Inactive)
REMARK    1  A    between atoms: C_1  and  C_2
REMARK    2  A    between atoms: C_2  and  C_3
REMARK    3  A    between atoms: C_3  and  C_5
REMARK    4  A    between atoms: C_3  and  O_6
REMARK    5  A    between atoms: O_6  and  C_7
REMARK    6  A    between atoms: C_7  and  C_9
REMARK    7  A    between atoms: C_10  and  C_36
REMARK    8  A    between atoms: C_14  and  C_16
REMARK    9  A    between atoms: C_26  and  C_32
REMARK   10  A    between atoms: C_28  and  C_31
REMARK   11  A    between atoms: C_32  and  O_34
REMARK   12  A    between atoms: O_34  and  C_35
REMARK                            x       y       z     vdW  Elec       q    Type
REMARK                         _______ _______ _______ _____ _____    ______ ____
ROOT
ATOM      1  C   UNL     1       3.902   4.556  -3.385  0.00  0.00    +0.065 C 
ATOM      2  C   UNL     1       5.007   4.023  -2.835  0.00  0.00    +0.016 C 
ATOM      3  N   UNL     1       4.912   2.959  -1.982  0.00  0.00    -0.321 N 
ATOM      4  C   UNL     1       3.727   2.665  -1.363  0.00  0.00    +0.016 C 
ATOM      5  C   UNL     1       2.562   3.141  -1.851  0.00  0.00    +0.025 C 
ATOM      6  C   UNL     1       2.540   4.000  -3.091  0.00  0.00    +0.092 C 
ATOM      7  C   UNL     1       1.339   2.849  -1.223  0.00  0.00    +0.176 C 
ATOM      8  O   UNL     1       0.310   3.309  -1.677  0.00  0.00    -0.291 OA
ATOM      9  C   UNL     1       1.280   1.975   0.000  0.00  0.00    +0.171 C 
ATOM     10  C   UNL     1       2.460   0.997  -0.029  0.00  0.00    +0.013 C 
ATOM     11  C   UNL     1       3.757   1.804  -0.124  0.00  0.00    +0.055 C 
ATOM     12  C   UNL     1       2.335   0.078  -1.246  0.00  0.00    +0.009 C 
ATOM     13  C   UNL     1       6.359   4.603  -3.160  0.00  0.00    +0.061 C 
ATOM     14  H   UNL     1       5.793   2.329  -1.789  0.00  0.00    +0.152 HD
ENDROOT
BRANCH   6  15
ATOM     15  C   UNL     1       2.082   3.168  -4.261  0.00  0.00    -0.034 A 
ATOM     16  C   UNL     1       0.943   3.524  -4.958  0.00  0.00    +0.006 A 
ATOM     17  C   UNL     1       0.522   2.762  -6.031  0.00  0.00    +0.022 A 
ATOM     18  C   UNL     1       1.241   1.642  -6.408  0.00  0.00    +0.059 A 
ATOM     19  C   UNL     1       2.382   1.285  -5.710  0.00  0.00    +0.060 A 
ATOM     20  C   UNL     1       2.805   2.052  -4.640  0.00  0.00    +0.026 A 
ATOM     21 CL   UNL     1       3.285  -0.120  -6.183  0.00  0.00    -0.082 Cl
ATOM     22 CL   UNL     1       0.712   0.684  -7.756  0.00  0.00    -0.082 Cl
ENDBRANCH   6  15
BRANCH   1  23
ATOM     23  C   UNL     1       4.026   5.662  -4.258  0.00  0.00    +0.338 C 
ATOM     24  O   UNL     1       5.125   6.122  -4.504  0.00  0.00    -0.245 OA
BRANCH  23  25
ATOM     25  O   UNL     1       2.926   6.207  -4.817  0.00  0.00    -0.458 OA
BRANCH  25  26
ATOM     26  C   UNL     1       3.125   7.322  -5.689  0.00  0.00    +0.173 C 
ATOM     27  C   UNL     1       3.071   8.618  -4.878  0.00  0.00    +0.052 C 
BRANCH  26  29
ATOM     28  C   UNL     1       2.158   6.102  -7.643  0.00  0.00    +0.007 C 
ATOM     29  C   UNL     1       2.026   7.340  -6.753  0.00  0.00    +0.041 C 
ENDBRANCH  26  29
ENDBRANCH  25  26
ENDBRANCH  23  25
ENDBRANCH   1  23
BRANCH   9  30
ATOM     30  C   UNL     1      -0.014   1.204   0.009  0.00  0.00    +0.318 C 
ATOM     31  O   UNL     1       0.002  -0.004   0.002  0.00  0.00    -0.250 OA
BRANCH  30  32
ATOM     32  O   UNL     1      -1.186   1.859   0.018  0.00  0.00    -0.467 OA
ATOM     33  C   UNL     1      -2.393   1.052   0.019  0.00  0.00    +0.280 C 
ENDBRANCH  30  32
ENDBRANCH   9  30
TORSDOF 7
