REMARK  Name = ZINC39699339
REMARK  10 active torsions:
REMARK  status: ('A' for Active; 'I' for Inactive)
REMARK    1  A    between atoms: C_1  and  C_2
REMARK    2  A    between atoms: N_5  and  C_8
REMARK    3  A    between atoms: C_8  and  C_10
REMARK    4  A    between atoms: C_8  and  C_24
REMARK    5  A    between atoms: C_15  and  O_22
REMARK    6  A    between atoms: O_22  and  C_23
REMARK    7  A    between atoms: N_29  and  C_30
REMARK    8  A    between atoms: C_30  and  C_31
REMARK    9  A    between atoms: C_30  and  C_32
REMARK   10  A    between atoms: C_30  and  C_33
REMARK                            x       y       z     vdW  Elec       q    Type
REMARK                         _______ _______ _______ _____ _____    ______ ____
ROOT
ATOM      1  C   UNL     1       0.758  -4.811  -0.114  0.00  0.00    -0.010 C 
ENDROOT
BRANCH   1   2
ATOM      2  C   UNL     1       1.593  -4.522  -1.363  0.00  0.00    +0.088 C 
ATOM      3  C   UNL     1       2.618  -3.464  -1.004  0.00  0.00    -0.006 C 
ATOM      4  C   UNL     1       2.605  -2.309  -1.728  0.00  0.00    -0.004 A 
ATOM      5  C   UNL     1       3.560  -1.237  -1.446  0.00  0.00    +0.055 A 
ATOM      6  C   UNL     1       3.510  -0.100  -2.195  0.00  0.00    +0.121 A 
ATOM      7  C   UNL     1       2.569   0.054  -3.220  0.00  0.00    +0.047 A 
ATOM      8  C   UNL     1       1.658  -0.905  -3.527  0.00  0.00    +0.027 A 
ATOM      9  C   UNL     1       1.626  -2.117  -2.812  0.00  0.00    +0.041 A 
ATOM     10  N   UNL     1       0.727  -3.050  -3.125  0.00  0.00    -0.285 N 
ATOM     11  C   UNL     1       0.640  -4.209  -2.495  0.00  0.00    +0.223 C 
ATOM     12  O   UNL     1      -0.203  -5.021  -2.826  0.00  0.00    -0.275 OA
ATOM     13  H   UNL     1       0.107  -2.870  -3.849  0.00  0.00    +0.155 HD
BRANCH   6  14
ATOM     14  O   UNL     1       4.392   0.903  -1.943  0.00  0.00    -0.495 OA
ATOM     15  C   UNL     1       4.294   2.072  -2.759  0.00  0.00    +0.277 C 
ENDBRANCH   6  14
ENDBRANCH   1   2
BRANCH   1  20
ATOM     16  C   UNL     1      -3.894  -1.651   0.832  0.00  0.00    +0.007 C 
ATOM     17  C   UNL     1      -2.922  -2.826   0.706  0.00  0.00    -0.018 C 
ATOM     18  C   UNL     1      -2.428  -2.930  -0.740  0.00  0.00    -0.016 C 
ATOM     19  C   UNL     1      -1.397  -4.056  -0.841  0.00  0.00    -0.078 C 
ATOM     20  N   UNL     1      -0.263  -3.767   0.045  0.00  0.00    +0.385 N 
ATOM     21  C   UNL     1      -0.717  -3.737   1.441  0.00  0.00    -0.078 C 
ATOM     22  C   UNL     1      -1.722  -2.599   1.630  0.00  0.00    -0.016 C 
ATOM     23  H   UNL     1       0.133  -2.872  -0.198  0.00  0.00    -0.081 HD
ENDBRANCH   1  20
BRANCH   1  24
ATOM     24  C   UNL     1       1.669  -4.824   1.116  0.00  0.00    +0.205 C 
ATOM     25  N   UNL     1       2.409  -3.559   1.220  0.00  0.00    -0.152 NA
ATOM     26  N   UNL     1       3.617  -3.796   1.150  0.00  0.00    -0.070 NA
ATOM     27  N   UNL     1       3.895  -5.154   0.999  0.00  0.00    -0.179 N 
ATOM     28  N   UNL     1       2.716  -5.858   0.971  0.00  0.00    -0.183 NA
ATOM     29  H   UNL     1       4.781  -5.542   0.926  0.00  0.00    +0.191 HD
BRANCH  28  30
ATOM     30  C   UNL     1       2.566  -6.585  -0.296  0.00  0.00    +0.035 C 
ATOM     31  C   UNL     1       3.327  -5.849  -1.400  0.00  0.00    +0.029 C 
ATOM     32  C   UNL     1       3.130  -7.999  -0.142  0.00  0.00    +0.029 C 
ATOM     33  C   UNL     1       1.083  -6.665  -0.665  0.00  0.00    +0.029 C 
ENDBRANCH  28  30
ENDBRANCH   1  24
TORSDOF 5
