REMARK  Name = ZINC61890596
REMARK  3 active torsions:
REMARK  status: ('A' for Active; 'I' for Inactive)
REMARK    1  A    between atoms: C_10  and  C_13
REMARK    2  A    between atoms: N_15  and  C_16
REMARK    3  A    between atoms: C_21  and  C_23
REMARK                            x       y       z     vdW  Elec       q    Type
REMARK                         _______ _______ _______ _____ _____    ______ ____
ROOT
ATOM      1  C   UNL     1      -0.019   1.522   0.010  0.00  0.00    +0.000 C 
ATOM      2  C   UNL     1       1.427   2.031  -0.001  0.00  0.00    -0.002 C 
ATOM      3  C   UNL     1       2.083   1.585  -1.308  0.00  0.00    -0.015 C 
ATOM      4  C   UNL     1       2.067   0.082  -1.448  0.00  0.00    -0.068 C 
ATOM      5  C   UNL     1       0.670  -0.534  -1.249  0.00  0.00    -0.026 C 
ATOM      6  C   UNL     1       0.002  -0.004   0.002  0.00  0.00    +0.002 C 
ATOM      7  C   UNL     1       1.017  -2.028  -0.992  0.00  0.00    -0.005 C 
ATOM      8  C   UNL     1       2.466  -2.013  -0.465  0.00  0.00    +0.017 C 
ATOM      9  N   UNL     1       2.887  -0.598  -0.426  0.00  0.00    +0.389 N 
ATOM     10  H   UNL     1       3.866  -0.530  -0.661  0.00  0.00    -0.084 HD
ATOM     11  H   UNL     1       2.715  -0.198   0.484  0.00  0.00    -0.084 HD
ENDROOT
BRANCH   8  12
ATOM     12  C   UNL     1       2.512  -2.594   0.925  0.00  0.00    +0.199 C 
ATOM     13  O   UNL     1       2.556  -1.858   1.888  0.00  0.00    -0.278 OA
ATOM     14  N   UNL     1       2.505  -3.930   1.097  0.00  0.00    -0.313 N 
ATOM     15  H   UNL     1       2.470  -4.518   0.327  0.00  0.00    +0.149 HD
BRANCH  14  16
ATOM     16  C   UNL     1       2.550  -4.495   2.448  0.00  0.00    +0.090 C 
ATOM     17  C   UNL     1       4.014  -4.646   2.909  0.00  0.00    +0.023 C 
ATOM     18  C   UNL     1       4.024  -5.967   3.718  0.00  0.00    +0.003 C 
ATOM     19  C   UNL     1       3.057  -6.868   2.911  0.00  0.00    +0.020 C 
ATOM     20  C   UNL     1       1.940  -5.908   2.450  0.00  0.00    +0.112 C 
BRANCH  20  21
ATOM     21  C   UNL     1       1.495  -6.266   1.093  0.00  0.00    +0.068 C 
ATOM     22  N   UNL     1       1.151  -6.543   0.046  0.00  0.00    -0.196 NA
ENDBRANCH  20  21
ENDBRANCH  14  16
ENDBRANCH   8  12
TORSDOF 3
