REMARK  Name = ZINC21324231
REMARK  10 active torsions:
REMARK  status: ('A' for Active; 'I' for Inactive)
REMARK    1  A    between atoms: C_1  and  C_2
REMARK    2  A    between atoms: C_2  and  C_27
REMARK    3  A    between atoms: N_3  and  N_4
REMARK    4  A    between atoms: C_8  and  S_11
REMARK    5  A    between atoms: N_9  and  N_10
REMARK    6  A    between atoms: S_11  and  C_12
REMARK    7  A    between atoms: C_12  and  C_13
REMARK    8  A    between atoms: N_15  and  C_16
REMARK    9  A    between atoms: C_17  and  C_25
REMARK   10  A    between atoms: C_28  and  C_29
REMARK                            x       y       z     vdW  Elec       q    Type
REMARK                         _______ _______ _______ _____ _____    ______ ____
ROOT
ATOM      1  N   UNL     1       1.185   7.703   0.034  0.00  0.00    -0.204 N 
ATOM      2  C   UNL     1      -0.021   8.387   0.050  0.00  0.00    +0.254 A 
ATOM      3  N   UNL     1      -1.218   7.854   0.059  0.00  0.00    -0.109 NA
ATOM      4  N   UNL     1      -2.112   8.778   0.072  0.00  0.00    -0.119 NA
ATOM      5  C   UNL     1      -1.539   9.957   0.073  0.00  0.00    +0.210 A 
ATOM      6  N   UNL     1      -0.185   9.749   0.065  0.00  0.00    -0.211 N 
ATOM      7  H   UNL     1       2.133   8.260   0.028  0.00  0.00    +0.178 HD
ENDROOT
BRANCH   1  10
ATOM      8  C   UNL     1       3.628   6.422   0.003  0.00  0.00    +0.067 C 
ATOM      9  C   UNL     1       2.329   5.659   0.011  0.00  0.00    +0.056 C 
ATOM     10  N   UNL     1       1.195   6.302   0.026  0.00  0.00    -0.185 NA
BRANCH   9  11
ATOM     11  C   UNL     1       2.340   4.242   0.003  0.00  0.00    +0.025 C 
ATOM     12  C   UNL     1       1.176   3.558   0.010  0.00  0.00    +0.010 C 
BRANCH  12  13
ATOM     13  C   UNL     1       1.187   2.087   0.002  0.00  0.00    -0.025 A 
ATOM     14  C   UNL     1      -0.017   1.375   0.010  0.00  0.00    +0.008 A 
ATOM     15  C   UNL     1       0.002  -0.004   0.002  0.00  0.00    +0.001 A 
ATOM     16  C   UNL     1       1.208  -0.683  -0.013  0.00  0.00    +0.000 A 
ATOM     17  C   UNL     1       2.403   0.014  -0.021  0.00  0.00    +0.001 A 
ATOM     18  C   UNL     1       2.401   1.393  -0.013  0.00  0.00    +0.008 A 
ENDBRANCH  12  13
ENDBRANCH   9  11
ENDBRANCH   1  10
BRANCH   6  19
ATOM     19  N   UNL     1       0.796  10.699   0.067  0.00  0.00    -0.294 N 
ATOM     20  H   UNL     1       0.529  11.766   0.080  0.00  0.00    +0.163 HD
ATOM     21  H   UNL     1       1.854  10.396   0.056  0.00  0.00    +0.163 HD
ENDBRANCH   6  19
BRANCH   5  22
ATOM     22  S   UNL     1      -2.357  11.517   0.090  0.00  0.00    -0.075 S 
BRANCH  22  23
ATOM     23  C   UNL     1      -4.082  10.968   0.104  0.00  0.00    +0.173 C 
BRANCH  23  24
ATOM     24  C   UNL     1      -4.992  12.169   0.120  0.00  0.00    +0.228 C 
ATOM     25  O   UNL     1      -4.521  13.287   0.121  0.00  0.00    -0.275 OA
ATOM     26  N   UNL     1      -6.329  12.001   0.132  0.00  0.00    -0.278 N 
ATOM     27  H   UNL     1      -6.756  10.987   0.131  0.00  0.00    +0.155 HD
BRANCH  26  28
ATOM     28  C   UNL     1      -7.167  13.107   0.147  0.00  0.00    +0.090 A 
ATOM     29  C   UNL     1      -8.554  13.138   0.155  0.00  0.00    +0.084 A 
ATOM     30  C   UNL     1      -9.197  14.440   0.174  0.00  0.00    -0.018 A 
ATOM     31  C   UNL     1      -8.356  15.497   0.171  0.00  0.00    -0.004 A 
ATOM     32  S   UNL     1      -6.735  14.785   0.151  0.00  0.00    -0.077 S 
ATOM     33  C   UNL     1      -8.729  16.948   0.181  0.00  0.00    +0.043 C 
ATOM     34  C   UNL     1     -10.216  17.068  -0.182  0.00  0.00    +0.005 C 
ATOM     35  C   UNL     1     -11.011  16.064   0.657  0.00  0.00    +0.005 C 
ATOM     36  C   UNL     1     -10.708  14.639   0.190  0.00  0.00    +0.037 C 
BRANCH  29  37
ATOM     37  C   UNL     1      -9.323  11.930   0.149  0.00  0.00    +0.102 C 
ATOM     38  N   UNL     1      -9.933  10.972   0.144  0.00  0.00    -0.191 NA
ENDBRANCH  29  37
ENDBRANCH  26  28
ENDBRANCH  23  24
ENDBRANCH  22  23
ENDBRANCH   5  22
TORSDOF 9
