REMARK  Name = ZINC02134177
REMARK  8 active torsions:
REMARK  status: ('A' for Active; 'I' for Inactive)
REMARK    1  A    between atoms: C_1  and  C_2
REMARK    2  A    between atoms: C_2  and  O_3
REMARK    3  A    between atoms: O_3  and  C_4
REMARK    4  A    between atoms: C_4  and  C_6
REMARK    5  A    between atoms: C_7  and  N_17
REMARK    6  A    between atoms: C_18  and  C_20
REMARK    7  A    between atoms: C_20  and  C_22
REMARK    8  A    between atoms: C_20  and  N_61
REMARK                            x       y       z     vdW  Elec       q    Type
REMARK                         _______ _______ _______ _____ _____    ______ ____
ROOT
ATOM      1  N   UNL     1      -0.370   0.333   5.495  0.00  0.00    -0.284 N 
ATOM      2  C   UNL     1       0.064   0.741   4.287  0.00  0.00    +0.203 C 
ATOM      3  O   UNL     1      -0.581   1.548   3.652  0.00  0.00    -0.277 OA
ATOM      4  H   UNL     1       0.103  -0.370   5.968  0.00  0.00    +0.155 HD
ENDROOT
BRANCH   1   6
ATOM      5  C   UNL     1      -1.685   1.216   7.398  0.00  0.00    +0.147 A 
ATOM      6  C   UNL     1      -1.496   0.918   6.064  0.00  0.00    +0.073 A 
ATOM      7  C   UNL     1      -2.714   1.333   5.365  0.00  0.00    +0.024 A 
ATOM      8  C   UNL     1      -3.119   1.287   4.027  0.00  0.00    +0.050 A 
ATOM      9  C   UNL     1      -4.359   1.768   3.673  0.00  0.00    +0.124 A 
ATOM     10  C   UNL     1      -5.209   2.298   4.638  0.00  0.00    +0.040 A 
ATOM     11  C   UNL     1      -4.825   2.351   5.959  0.00  0.00    +0.029 A 
ATOM     12  C   UNL     1      -3.575   1.869   6.341  0.00  0.00    +0.049 A 
ATOM     13  N   UNL     1      -2.936   1.793   7.558  0.00  0.00    -0.348 N 
ATOM     14  H   UNL     1      -3.307   2.095   8.402  0.00  0.00    +0.166 HD
ATOM     15  F   UNL     1      -4.753   1.724   2.381  0.00  0.00    -0.205 F 
BRANCH   5  16
ATOM     16  C   UNL     1      -0.750   0.974   8.437  0.00  0.00    +0.358 C 
ATOM     17  O   UNL     1       0.361   0.557   8.171  0.00  0.00    -0.243 OA
BRANCH  16  18
ATOM     18  O   UNL     1      -1.094   1.207   9.721  0.00  0.00    -0.460 OA
BRANCH  18  20
ATOM     19  C   UNL     1      -0.671   1.262  12.100  0.00  0.00    +0.048 C 
ATOM     20  C   UNL     1      -0.103   0.941  10.716  0.00  0.00    +0.229 C 
ENDBRANCH  18  20
ENDBRANCH  16  18
ENDBRANCH   5  16
ENDBRANCH   1   6
BRANCH   2  21
ATOM     21  C   UNL     1       1.351   0.195   3.724  0.00  0.00    +0.016 C 
ATOM     22  C   UNL     1       1.242  -1.324   3.583  0.00  0.00    -0.004 C 
BRANCH  21  36
ATOM     23  C   UNL     1       2.905   0.375   1.878  0.00  0.00    -0.073 C 
ATOM     24  C   UNL     1       3.192   1.038   0.540  0.00  0.00    -0.007 C 
ATOM     25  C   UNL     1       2.065   0.762  -0.458  0.00  0.00    +0.011 C 
ATOM     26  C   UNL     1       0.757   1.248   0.176  0.00  0.00    +0.020 C 
ATOM     27  C   UNL     1       0.525   0.442   1.465  0.00  0.00    -0.068 C 
ATOM     28  C   UNL     1       0.905   2.700   0.569  0.00  0.00    +0.023 A 
ATOM     29  C   UNL     1      -0.222   3.460   0.595  0.00  0.00    +0.022 A 
ATOM     30  C   UNL     1      -0.170   4.795   1.013  0.00  0.00    +0.007 A 
ATOM     31  C   UNL     1       1.028   5.316   1.407  0.00  0.00    +0.070 A 
ATOM     32  C   UNL     1       2.171   4.505   1.366  0.00  0.00    +0.251 A 
ATOM     33  O   UNL     1       3.236   4.942   1.772  0.00  0.00    -0.268 OA
ATOM     34  N   UNL     1       2.106   3.240   0.881  0.00  0.00    -0.312 N 
ATOM     35  C   UNL     1       3.376   2.539   0.692  0.00  0.00    +0.126 C 
ATOM     36  N   UNL     1       1.601   0.816   2.407  0.00  0.00    +0.388 N 
ATOM     37  H   UNL     1       1.612   1.837   2.515  0.00  0.00    -0.081 HD
ENDBRANCH  21  36
ENDBRANCH   2  21
TORSDOF 6
