REMARK  Name = ZINC01895888
REMARK  6 active torsions:
REMARK  status: ('A' for Active; 'I' for Inactive)
REMARK    1  A    between atoms: C_4  and  N_7
REMARK    2  A    between atoms: C_16  and  S_17
REMARK    3  A    between atoms: S_17  and  C_18
REMARK    4  A    between atoms: C_18  and  C_19
REMARK    5  A    between atoms: N_21  and  C_22
REMARK    6  A    between atoms: C_23  and  C_30
REMARK                            x       y       z     vdW  Elec       q    Type
REMARK                         _______ _______ _______ _____ _____    ______ ____
ROOT
ATOM      1  N   UNL     1       1.304  -4.546  -0.364  0.00  0.00    -0.255 N 
ATOM      2  C   UNL     1       1.815  -3.352   0.017  0.00  0.00    +0.268 A 
ATOM      3  O   UNL     1       3.014  -3.175   0.152  0.00  0.00    -0.267 OA
ATOM      4  C   UNL     1       0.861  -2.309   0.252  0.00  0.00    +0.076 A 
ATOM      5  C   UNL     1       1.149  -0.946   0.665  0.00  0.00    -0.023 A 
ATOM      6  C   UNL     1       0.087  -0.124   0.829  0.00  0.00    -0.004 A 
ATOM      7  S   UNL     1      -1.333  -1.116   0.444  0.00  0.00    -0.073 S 
ATOM      8  C   UNL     1      -0.504  -2.627   0.065  0.00  0.00    +0.117 A 
ATOM      9  N   UNL     1      -0.942  -3.822  -0.311  0.00  0.00    -0.215 NA
ATOM     10  C   UNL     1      -0.033  -4.765  -0.520  0.00  0.00    +0.178 A 
ATOM     11  C   UNL     1       0.109   1.314   1.246  0.00  0.00    +0.043 C 
ATOM     12  C   UNL     1       1.496   1.633   1.822  0.00  0.00    +0.005 C 
ATOM     13  C   UNL     1       2.561   1.091   0.866  0.00  0.00    +0.005 C 
ATOM     14  C   UNL     1       2.568  -0.438   0.909  0.00  0.00    +0.037 C 
ENDROOT
BRANCH   1  18
ATOM     15  C   UNL     1       3.934  -7.697  -1.092  0.00  0.00    +0.000 A 
ATOM     16  C   UNL     1       3.417  -7.509   0.177  0.00  0.00    +0.002 A 
ATOM     17  C   UNL     1       2.545  -6.466   0.421  0.00  0.00    +0.026 A 
ATOM     18  C   UNL     1       2.188  -5.605  -0.609  0.00  0.00    +0.052 A 
ATOM     19  C   UNL     1       2.705  -5.799  -1.882  0.00  0.00    +0.026 A 
ATOM     20  C   UNL     1       3.581  -6.841  -2.119  0.00  0.00    +0.002 A 
ENDBRANCH   1  18
BRANCH  10  21
ATOM     21  S   UNL     1      -0.575  -6.365  -1.020  0.00  0.00    -0.078 S 
BRANCH  21  22
ATOM     22  C   UNL     1      -2.363  -6.092  -1.066  0.00  0.00    +0.173 C 
BRANCH  22  23
ATOM     23  C   UNL     1      -3.056  -7.364  -1.482  0.00  0.00    +0.228 C 
ATOM     24  O   UNL     1      -2.404  -8.358  -1.724  0.00  0.00    -0.275 OA
ATOM     25  N   UNL     1      -4.399  -7.397  -1.585  0.00  0.00    -0.278 N 
ATOM     26  H   UNL     1      -4.920  -6.602  -1.392  0.00  0.00    +0.155 HD
BRANCH  25  27
ATOM     27  C   UNL     1      -5.037  -8.569  -1.969  0.00  0.00    +0.090 A 
ATOM     28  C   UNL     1      -6.392  -8.799  -2.124  0.00  0.00    +0.084 A 
ATOM     29  C   UNL     1      -6.809 -10.136  -2.545  0.00  0.00    -0.018 A 
ATOM     30  C   UNL     1      -5.807 -11.015  -2.729  0.00  0.00    -0.004 A 
ATOM     31  S   UNL     1      -4.330 -10.099  -2.361  0.00  0.00    -0.077 S 
ATOM     32  C   UNL     1      -6.313 -12.365  -3.158  0.00  0.00    +0.043 C 
ATOM     33  C   UNL     1      -7.757 -12.104  -3.640  0.00  0.00    +0.010 C 
ATOM     34  C   UNL     1      -8.133 -10.842  -2.839  0.00  0.00    +0.037 C 
BRANCH  28  35
ATOM     35  C   UNL     1      -7.352  -7.764  -1.885  0.00  0.00    +0.102 C 
ATOM     36  N   UNL     1      -8.114  -6.942  -1.695  0.00  0.00    -0.191 NA
ENDBRANCH  28  35
ENDBRANCH  25  27
ENDBRANCH  22  23
ENDBRANCH  21  22
ENDBRANCH  10  21
TORSDOF 6
