REMARK  Name = ZINC39488216
REMARK  10 active torsions:
REMARK  status: ('A' for Active; 'I' for Inactive)
REMARK    1  A    between atoms: C_1  and  C_2
REMARK    2  A    between atoms: C_2  and  C_3
REMARK    3  A    between atoms: C_2  and  S_4
REMARK    4  A    between atoms: S_4  and  N_7
REMARK    5  A    between atoms: C_9  and  C_27
REMARK    6  A    between atoms: C_9  and  C_28
REMARK    7  A    between atoms: N_10  and  C_13
REMARK    8  A    between atoms: C_13  and  C_14
REMARK    9  A    between atoms: C_14  and  C_21
REMARK   10  A    between atoms: C_33  and  O_34
REMARK                            x       y       z     vdW  Elec       q    Type
REMARK                         _______ _______ _______ _____ _____    ______ ____
ROOT
ATOM      1  N   UNL     1      -0.869  -1.498   1.269  0.00  0.00    -0.157 N 
ATOM      2  C   UNL     1      -0.894  -2.139  -0.053  0.00  0.00    +0.166 C 
ATOM      3  C   UNL     1      -1.146  -3.627   0.262  0.00  0.00    +0.082 C 
ATOM      4  N   UNL     1      -1.236  -3.665   1.730  0.00  0.00    -0.273 N 
ATOM      5  C   UNL     1      -1.063  -2.428   2.214  0.00  0.00    +0.325 C 
ATOM      6  O   UNL     1      -1.085  -2.172   3.402  0.00  0.00    -0.251 OA
ATOM      7  C   UNL     1       0.022  -4.485  -0.227  0.00  0.00    +0.039 C 
ENDROOT
BRANCH   3   8
ATOM      8  C   UNL     1      -2.439  -4.088  -0.359  0.00  0.00    +0.019 A 
ATOM      9  C   UNL     1      -3.467  -4.544   0.443  0.00  0.00    +0.009 A 
ATOM     10  C   UNL     1      -4.654  -4.968  -0.126  0.00  0.00    +0.001 A 
ATOM     11  C   UNL     1      -4.815  -4.935  -1.499  0.00  0.00    +0.004 A 
ATOM     12  C   UNL     1      -3.790  -4.479  -2.305  0.00  0.00    +0.046 A 
ATOM     13  C   UNL     1      -2.600  -4.048  -1.736  0.00  0.00    +0.122 A 
BRANCH  13  14
ATOM     14  O   UNL     1      -1.593  -3.594  -2.527  0.00  0.00    -0.506 OA
ATOM     15  H   UNL     1      -0.979  -4.282  -2.817  0.00  0.00    +0.292 HD
ENDBRANCH  13  14
ENDBRANCH   3   8
BRANCH   1  16
ATOM     16  S   UNL     1      -0.631   0.117   1.548  0.00  0.00    +0.051 S 
ATOM     17  O   UNL     1      -1.159   0.343   2.848  0.00  0.00    -0.155 OA
ATOM     18  O   UNL     1      -1.192   0.767   0.416  0.00  0.00    -0.155 OA
BRANCH  16  20
ATOM     19  C   UNL     1       1.513   1.776   1.915  0.00  0.00    +0.033 C 
ATOM     20  C   UNL     1       1.171   0.328   1.560  0.00  0.00    +0.145 C 
ATOM     21  C   UNL     1       1.787  -0.611   2.600  0.00  0.00    +0.033 C 
ENDBRANCH  16  20
ENDBRANCH   1  16
BRANCH   4  22
ATOM     22  C   UNL     1      -1.471  -4.866   2.535  0.00  0.00    +0.117 C 
BRANCH  22  23
ATOM     23  C   UNL     1      -0.173  -5.271   3.236  0.00  0.00    -0.008 C 
ATOM     24  C   UNL     1      -0.437  -6.476   4.144  0.00  0.00    +0.027 C 
ATOM     25  C   UNL     1      -1.446  -6.083   5.225  0.00  0.00    +0.120 C 
ATOM     26  N   UNL     1      -0.913  -4.963   6.010  0.00  0.00    -0.145 NA
ATOM     27  C   UNL     1      -0.696  -3.779   5.168  0.00  0.00    +0.120 C 
ATOM     28  C   UNL     1       0.336  -4.104   4.086  0.00  0.00    +0.027 C 
ATOM     29  F   UNL     1      -1.692  -4.684   7.013  0.00  0.00    -0.133 F 
BRANCH  23  30
ATOM     30  C   UNL     1       0.881  -5.639   2.190  0.00  0.00    -0.003 C 
ATOM     31  C   UNL     1       0.462  -6.926   1.475  0.00  0.00    +0.004 C 
ATOM     32  C   UNL     1       1.516  -7.294   0.429  0.00  0.00    +0.000 C 
ATOM     33  C   UNL     1       2.865  -7.508   1.117  0.00  0.00    +0.000 C 
ATOM     34  C   UNL     1       3.284  -6.222   1.832  0.00  0.00    +0.000 C 
ATOM     35  C   UNL     1       2.230  -5.854   2.878  0.00  0.00    +0.004 C 
ENDBRANCH  23  30
ENDBRANCH  22  23
ENDBRANCH   4  22
TORSDOF 7
