REMARK  Name = ZINC41513708
REMARK  13 active torsions:
REMARK  status: ('A' for Active; 'I' for Inactive)
REMARK    1  A    between atoms: C_1  and  C_2
REMARK    2  A    between atoms: C_2  and  C_3
REMARK    3  A    between atoms: C_2  and  C_4
REMARK    4  A    between atoms: C_4  and  N_5
REMARK    5  A    between atoms: N_5  and  C_6
REMARK    6  A    between atoms: N_5  and  C_28
REMARK    7  A    between atoms: C_6  and  C_7
REMARK    8  A    between atoms: C_8  and  O_27
REMARK    9  A    between atoms: C_15  and  C_16
REMARK   10  A    between atoms: C_19  and  N_22
REMARK   11  A    between atoms: C_28  and  C_29
REMARK   12  A    between atoms: C_29  and  C_30
REMARK   13  A    between atoms: C_29  and  C_31
REMARK                            x       y       z     vdW  Elec       q    Type
REMARK                         _______ _______ _______ _____ _____    ______ ____
ROOT
ATOM      1  C   UNL     1       0.104  -0.312  -2.355  0.00  0.00    +0.020 A 
ATOM      2  C   UNL     1       0.541   0.730  -3.157  0.00  0.00    +0.122 A 
ATOM      3  C   UNL     1       1.893   1.055  -3.222  0.00  0.00    +0.046 A 
ATOM      4  C   UNL     1       2.805   0.347  -2.491  0.00  0.00    +0.019 A 
ATOM      5  C   UNL     1       2.380  -0.704  -1.678  0.00  0.00    +0.068 A 
ATOM      6  C   UNL     1       1.018  -1.038  -1.601  0.00  0.00    +0.144 A 
ATOM      7  O   UNL     1       0.850  -2.076  -0.752  0.00  0.00    -0.451 OA
ATOM      8  C   UNL     1       2.026  -2.487  -0.221  0.00  0.00    +0.176 C 
ATOM      9  C   UNL     1       2.195  -3.502   0.662  0.00  0.00    +0.058 C 
ATOM     10  C   UNL     1       3.089  -1.641  -0.788  0.00  0.00    +0.231 C 
ATOM     11  O   UNL     1       4.285  -1.694  -0.561  0.00  0.00    -0.283 OA
ENDROOT
BRANCH   9  12
ATOM     12  C   UNL     1       3.507  -3.722   1.286  0.00  0.00    -0.021 A 
ATOM     13  C   UNL     1       4.286  -2.632   1.690  0.00  0.00    +0.010 A 
ATOM     14  C   UNL     1       5.516  -2.847   2.275  0.00  0.00    +0.033 A 
ATOM     15  C   UNL     1       5.981  -4.137   2.463  0.00  0.00    +0.126 A 
ATOM     16  C   UNL     1       5.216  -5.221   2.067  0.00  0.00    +0.033 A 
ATOM     17  C   UNL     1       3.982  -5.024   1.486  0.00  0.00    +0.010 A 
BRANCH  15  18
ATOM     18  N   UNL     1       7.303  -4.359   3.091  0.00  0.00    +0.056 N 
ATOM     19  O   UNL     1       7.973  -3.414   3.438  0.00  0.00    -0.126 OA
ATOM     20  O   UNL     1       7.712  -5.484   3.257  0.00  0.00    -0.126 OA
ENDBRANCH  15  18
ENDBRANCH   9  12
BRANCH   2  21
ATOM     21  O   UNL     1      -0.357   1.438  -3.887  0.00  0.00    -0.506 OA
ATOM     22  H   UNL     1      -0.721   2.206  -3.425  0.00  0.00    +0.292 HD
ENDBRANCH   2  21
BRANCH   1  23
ATOM     23  C   UNL     1      -1.362  -0.654  -2.295  0.00  0.00    -0.036 C 
BRANCH  23  24
ATOM     24  N   UNL     1      -1.963  -0.028  -1.110  0.00  0.00    +0.383 N 
ATOM     25  H   UNL     1      -1.448  -0.303  -0.287  0.00  0.00    -0.081 HD
BRANCH  24  26
ATOM     26  C   UNL     1      -3.360  -0.463  -0.981  0.00  0.00    -0.075 C 
BRANCH  26  28
ATOM     27  C   UNL     1      -2.739  -2.239   0.662  0.00  0.00    +0.005 C 
ATOM     28  C   UNL     1      -3.402  -1.964  -0.689  0.00  0.00    -0.034 C 
ATOM     29  C   UNL     1      -4.857  -2.435  -0.648  0.00  0.00    +0.005 C 
ENDBRANCH  26  28
ENDBRANCH  24  26
BRANCH  24  30
ATOM     30  C   UNL     1      -1.916   1.433  -1.251  0.00  0.00    -0.075 C 
BRANCH  30  31
ATOM     31  C   UNL     1      -2.427   2.087   0.035  0.00  0.00    -0.034 C 
ATOM     32  C   UNL     1      -1.474   1.761   1.186  0.00  0.00    +0.005 C 
ATOM     33  C   UNL     1      -2.496   3.603  -0.156  0.00  0.00    +0.005 C 
ENDBRANCH  30  31
ENDBRANCH  24  30
ENDBRANCH  23  24
ENDBRANCH   1  23
TORSDOF 9
