REMARK  Name = ZINC40100815
REMARK  15 active torsions:
REMARK  status: ('A' for Active; 'I' for Inactive)
REMARK    1  A    between atoms: C_1  and  C_2
REMARK    2  A    between atoms: C_2  and  O_3
REMARK    3  A    between atoms: O_3  and  C_4
REMARK    4  A    between atoms: C_8  and  C_10
REMARK    5  A    between atoms: C_10  and  C_12
REMARK    6  A    between atoms: N_16  and  C_29
REMARK    7  A    between atoms: C_17  and  C_19
REMARK    8  A    between atoms: C_24  and  O_25
REMARK    9  A    between atoms: O_25  and  C_26
REMARK   10  A    between atoms: C_26  and  C_27
REMARK   11  A    between atoms: C_29  and  C_30
REMARK   12  A    between atoms: C_30  and  O_31
REMARK   13  A    between atoms: O_31  and  C_32
REMARK   14  A    between atoms: C_32  and  C_33
REMARK   15  A    between atoms: C_33  and  O_34
REMARK                            x       y       z     vdW  Elec       q    Type
REMARK                         _______ _______ _______ _____ _____    ______ ____
ROOT
ATOM      1  C   UNL     1      -3.446  -7.887   1.988  0.00  0.00    +0.076 C 
ATOM      2  C   UNL     1      -4.063  -9.061   1.716  0.00  0.00    +0.249 C 
ATOM      3  C   UNL     1      -3.328  -9.758   0.639  0.00  0.00    +0.288 C 
ATOM      4  O   UNL     1      -3.633 -10.836   0.171  0.00  0.00    -0.266 OA
ATOM      5  N   UNL     1      -2.271  -9.020   0.252  0.00  0.00    -0.281 N 
ATOM      6  C   UNL     1      -2.260  -7.792   1.056  0.00  0.00    +0.148 C 
ATOM      7  O   UNL     1      -5.174  -9.524   2.333  0.00  0.00    -0.282 OA
ENDROOT
BRANCH   6   8
ATOM      8  C   UNL     1      -2.398  -6.584   0.164  0.00  0.00    +0.019 A 
ATOM      9  C   UNL     1      -3.275  -6.610  -0.904  0.00  0.00    +0.009 A 
ATOM     10  C   UNL     1      -3.401  -5.503  -1.722  0.00  0.00    +0.001 A 
ATOM     11  C   UNL     1      -2.652  -4.368  -1.474  0.00  0.00    +0.004 A 
ATOM     12  C   UNL     1      -1.775  -4.337  -0.408  0.00  0.00    +0.046 A 
ATOM     13  C   UNL     1      -1.650  -5.444   0.418  0.00  0.00    +0.126 A 
BRANCH  13  14
ATOM     14  O   UNL     1      -0.792  -5.415   1.472  0.00  0.00    -0.488 OA
BRANCH  14  15
ATOM     15  C   UNL     1      -0.132  -4.175   1.736  0.00  0.00    +0.256 C 
BRANCH  15  16
ATOM     16  C   UNL     1       0.841  -4.356   2.872  0.00  0.00    +0.006 C 
ATOM     17  C   UNL     1       2.099  -4.026   2.716  0.00  0.00    +0.007 C 
ENDBRANCH  15  16
ENDBRANCH  14  15
ENDBRANCH  13  14
ENDBRANCH   6   8
BRANCH   1  18
ATOM     18  C   UNL     1      -3.853  -6.897   2.989  0.00  0.00    +0.195 C 
ATOM     19  O   UNL     1      -4.927  -6.335   2.886  0.00  0.00    -0.287 OA
BRANCH  18  24
ATOM     20  C   UNL     1      -2.445  -5.264   6.069  0.00  0.00    +0.121 A 
ATOM     21  C   UNL     1      -1.277  -5.994   6.248  0.00  0.00    +0.045 A 
ATOM     22  C   UNL     1      -0.950  -7.011   5.371  0.00  0.00    +0.004 A 
ATOM     23  C   UNL     1      -1.782  -7.309   4.311  0.00  0.00    +0.012 A 
ATOM     24  C   UNL     1      -2.959  -6.581   4.123  0.00  0.00    +0.026 A 
ATOM     25  C   UNL     1      -3.290  -5.558   5.013  0.00  0.00    +0.057 A 
BRANCH  20  26
ATOM     26  O   UNL     1      -2.761  -4.264   6.934  0.00  0.00    -0.492 OA
BRANCH  26  28
ATOM     27  C   UNL     1      -2.364  -2.864   8.863  0.00  0.00    +0.048 C 
ATOM     28  C   UNL     1      -1.843  -4.015   8.000  0.00  0.00    +0.225 C 
ENDBRANCH  26  28
ENDBRANCH  20  26
ENDBRANCH  18  24
ENDBRANCH   1  18
BRANCH   5  29
ATOM     29  C   UNL     1      -1.305  -9.377  -0.790  0.00  0.00    +0.137 C 
BRANCH  29  30
ATOM     30  C   UNL     1      -1.867  -8.992  -2.160  0.00  0.00    +0.179 C 
BRANCH  30  31
ATOM     31  O   UNL     1      -1.506  -7.642  -2.460  0.00  0.00    -0.376 OA
BRANCH  31  32
ATOM     32  C   UNL     1      -1.845  -7.231  -3.786  0.00  0.00    +0.187 C 
BRANCH  32  33
ATOM     33  C   UNL     1      -1.250  -5.849  -4.060  0.00  0.00    +0.184 C 
BRANCH  33  34
ATOM     34  O   UNL     1       0.176  -5.938  -4.074  0.00  0.00    -0.393 OA
ATOM     35  H   UNL     1       0.622  -5.097  -4.242  0.00  0.00    +0.209 HD
ENDBRANCH  33  34
ENDBRANCH  32  33
ENDBRANCH  31  32
ENDBRANCH  30  31
ENDBRANCH  29  30
ENDBRANCH   5  29
TORSDOF 14
