REMARK  Name = ZINC13215456
REMARK  7 active torsions:
REMARK  status: ('A' for Active; 'I' for Inactive)
REMARK    1  A    between atoms: C_1  and  C_2
REMARK    2  A    between atoms: C_5  and  C_34
REMARK    3  A    between atoms: C_7  and  N_8
REMARK    4  A    between atoms: C_9  and  C_25
REMARK    5  A    between atoms: C_11  and  C_16
REMARK    6  A    between atoms: C_16  and  C_18
REMARK    7  A    between atoms: C_30  and  N_31
REMARK                            x       y       z     vdW  Elec       q    Type
REMARK                         _______ _______ _______ _____ _____    ______ ____
ROOT
ATOM      1  N   UNL     1      -0.009   0.172   2.309  0.00  0.00    -0.253 N 
ATOM      2  C   UNL     1      -1.005   0.404   3.363  0.00  0.00    +0.152 C 
ATOM      3  C   UNL     1      -0.257   1.027   4.518  0.00  0.00    +0.077 C 
ATOM      4  C   UNL     1       1.038   1.129   4.136  0.00  0.00    +0.250 C 
ATOM      5  C   UNL     1       1.184   0.592   2.768  0.00  0.00    +0.292 C 
ATOM      6  O   UNL     1       2.227   0.541   2.146  0.00  0.00    -0.266 OA
ATOM      7  O   UNL     1       2.040   1.638   4.890  0.00  0.00    -0.282 OA
ENDROOT
BRANCH   1  14
ATOM      8  C   UNL     1      -0.433   1.926   0.115  0.00  0.00    +0.045 C 
ATOM      9  C   UNL     1      -0.469   0.428  -0.047  0.00  0.00    -0.029 A 
ATOM     10  C   UNL     1      -0.708  -0.124  -1.292  0.00  0.00    +0.006 A 
ATOM     11  C   UNL     1      -0.742  -1.494  -1.449  0.00  0.00    +0.015 A 
ATOM     12  C   UNL     1      -0.535  -2.329  -0.347  0.00  0.00    +0.065 A 
ATOM     13  C   UNL     1      -0.294  -1.771   0.909  0.00  0.00    +0.039 A 
ATOM     14  C   UNL     1      -0.256  -0.393   1.054  0.00  0.00    +0.041 A 
BRANCH  12  15
ATOM     15  C   UNL     1      -0.573  -3.795  -0.512  0.00  0.00    +0.387 C 
ATOM     16  O   UNL     1      -0.785  -4.282  -1.613  0.00  0.00    -0.241 OA
ATOM     17  O   UNL     1      -0.391  -4.523   0.454  0.00  0.00    -0.241 OA
ENDBRANCH  12  15
ENDBRANCH   1  14
BRANCH   2  18
ATOM     18  C   UNL     1      -2.073   1.344   2.868  0.00  0.00    +0.008 A 
ATOM     19  C   UNL     1      -1.986   2.696   3.144  0.00  0.00    +0.008 A 
ATOM     20  C   UNL     1      -2.966   3.558   2.690  0.00  0.00    +0.000 A 
ATOM     21  C   UNL     1      -4.033   3.070   1.959  0.00  0.00    +0.002 A 
ATOM     22  C   UNL     1      -4.119   1.718   1.682  0.00  0.00    +0.033 A 
ATOM     23  C   UNL     1      -3.137   0.856   2.132  0.00  0.00    +0.131 A 
BRANCH  23  24
ATOM     24  N   UNL     1      -3.227  -0.590   1.831  0.00  0.00    +0.057 N 
ATOM     25  O   UNL     1      -4.097  -1.003   1.100  0.00  0.00    -0.126 OA
ATOM     26  O   UNL     1      -2.429  -1.359   2.316  0.00  0.00    -0.126 OA
ENDBRANCH  23  24
ENDBRANCH   2  18
BRANCH   3  27
ATOM     27  C   UNL     1      -0.824   1.441   5.805  0.00  0.00    +0.195 C 
ATOM     28  O   UNL     1      -0.716   2.595   6.174  0.00  0.00    -0.287 OA
BRANCH  27  29
ATOM     29  C   UNL     1      -1.528   0.457   6.653  0.00  0.00    +0.022 A 
ATOM     30  C   UNL     1      -1.532  -0.896   6.302  0.00  0.00    +0.014 A 
ATOM     31  C   UNL     1      -2.189  -1.810   7.098  0.00  0.00    +0.039 A 
ATOM     32  C   UNL     1      -2.845  -1.389   8.245  0.00  0.00    +0.123 A 
ATOM     33  C   UNL     1      -2.845  -0.047   8.597  0.00  0.00    +0.039 A 
ATOM     34  C   UNL     1      -2.187   0.874   7.813  0.00  0.00    +0.014 A 
ATOM     35  F   UNL     1      -3.488  -2.289   9.021  0.00  0.00    -0.205 F 
ENDBRANCH  27  29
ENDBRANCH   3  27
TORSDOF 6
