REMARK  Name = ZINC41585570
REMARK  9 active torsions:
REMARK  status: ('A' for Active; 'I' for Inactive)
REMARK    1  A    between atoms: C_1  and  C_2
REMARK    2  A    between atoms: C_4  and  O_36
REMARK    3  A    between atoms: C_5  and  C_22
REMARK    4  A    between atoms: C_11  and  C_12
REMARK    5  A    between atoms: C_15  and  N_18
REMARK    6  A    between atoms: N_18  and  C_19
REMARK    7  A    between atoms: N_18  and  C_20
REMARK    8  A    between atoms: C_22  and  N_23
REMARK    9  A    between atoms: N_26  and  C_29
REMARK                            x       y       z     vdW  Elec       q    Type
REMARK                         _______ _______ _______ _____ _____    ______ ____
ROOT
ATOM      1  C   UNL     1       1.288   1.278   0.023  0.00  0.00    +0.045 C 
ATOM      2  C   UNL     1       0.878  -0.172   0.025  0.00  0.00    -0.033 A 
ATOM      3  C   UNL     1       0.786  -0.859  -1.153  0.00  0.00    +0.050 A 
ATOM      4  C   UNL     1       0.407  -2.198  -1.153  0.00  0.00    +0.122 A 
ATOM      5  C   UNL     1       0.119  -2.850   0.035  0.00  0.00    +0.020 A 
ATOM      6  C   UNL     1       0.208  -2.166   1.241  0.00  0.00    +0.145 A 
ATOM      7  C   UNL     1       0.596  -0.816   1.230  0.00  0.00    +0.071 A 
ATOM      8  C   UNL     1       0.605  -0.374   2.636  0.00  0.00    +0.232 C 
ATOM      9  O   UNL     1       0.881   0.731   3.069  0.00  0.00    -0.283 OA
ATOM     10  C   UNL     1       0.205  -1.565   3.399  0.00  0.00    +0.176 C 
ATOM     11  C   UNL     1       0.071  -1.645   4.748  0.00  0.00    +0.058 C 
ATOM     12  O   UNL     1      -0.015  -2.564   2.512  0.00  0.00    -0.451 OA
ENDROOT
BRANCH  11  13
ATOM     13  C   UNL     1       0.156  -0.431   5.567  0.00  0.00    -0.021 A 
ATOM     14  C   UNL     1      -0.480   0.745   5.148  0.00  0.00    +0.010 A 
ATOM     15  C   UNL     1      -0.399   1.873   5.915  0.00  0.00    +0.023 A 
ATOM     16  C   UNL     1       0.315   1.855   7.111  0.00  0.00    +0.029 A 
ATOM     17  C   UNL     1       0.949   0.689   7.531  0.00  0.00    +0.023 A 
ATOM     18  C   UNL     1       0.868  -0.446   6.774  0.00  0.00    +0.010 A 
BRANCH  16  19
ATOM     19  N   UNL     1       0.395   3.006   7.887  0.00  0.00    -0.336 N 
ATOM     20  C   UNL     1      -0.362   4.201   7.507  0.00  0.00    +0.129 C 
ATOM     21  C   UNL     1       1.238   3.024   9.086  0.00  0.00    +0.129 C 
ENDBRANCH  16  19
ENDBRANCH  11  13
BRANCH   4  22
ATOM     22  O   UNL     1       0.318  -2.871  -2.329  0.00  0.00    -0.506 OA
ATOM     23  H   UNL     1       1.139  -3.306  -2.596  0.00  0.00    +0.292 HD
ENDBRANCH   4  22
BRANCH   5  24
ATOM     24  C   UNL     1      -0.290  -4.300   0.019  0.00  0.00    -0.035 C 
BRANCH  24  25
ATOM     25  N   UNL     1       0.905  -5.147   0.129  0.00  0.00    +0.385 N 
ATOM     26  C   UNL     1       1.748  -4.958  -1.058  0.00  0.00    -0.059 C 
ATOM     27  C   UNL     1       3.047  -5.753  -0.893  0.00  0.00    +0.086 C 
ATOM     28  N   UNL     1       2.703  -7.155  -0.609  0.00  0.00    -0.333 N 
ATOM     29  C   UNL     1       1.734  -7.428   0.463  0.00  0.00    +0.086 C 
ATOM     30  C   UNL     1       0.497  -6.554   0.234  0.00  0.00    -0.059 C 
ATOM     31  H   UNL     1       1.426  -4.887   0.953  0.00  0.00    -0.081 HD
BRANCH  28  32
ATOM     32  C   UNL     1       3.282  -8.199  -1.338  0.00  0.00    +0.030 A 
ATOM     33  C   UNL     1       4.285  -7.930  -2.261  0.00  0.00    +0.026 A 
ATOM     34  C   UNL     1       4.855  -8.963  -2.979  0.00  0.00    +0.040 A 
ATOM     35  C   UNL     1       4.427 -10.265  -2.781  0.00  0.00    +0.124 A 
ATOM     36  C   UNL     1       3.427 -10.534  -1.862  0.00  0.00    +0.040 A 
ATOM     37  C   UNL     1       2.858  -9.506  -1.137  0.00  0.00    +0.026 A 
ATOM     38  F   UNL     1       4.986 -11.273  -3.486  0.00  0.00    -0.205 F 
ENDBRANCH  28  32
ENDBRANCH  24  25
ENDBRANCH   5  24
TORSDOF 6
