REMARK  Name = ZINC03256536
REMARK  13 active torsions:
REMARK  status: ('A' for Active; 'I' for Inactive)
REMARK    1  A    between atoms: C_1  and  C_2
REMARK    2  A    between atoms: C_2  and  O_3
REMARK    3  A    between atoms: O_3  and  C_4
REMARK    4  A    between atoms: C_4  and  C_6
REMARK    5  A    between atoms: C_7  and  C_27
REMARK    6  A    between atoms: C_10  and  N_11
REMARK    7  A    between atoms: C_12  and  C_14
REMARK    8  A    between atoms: C_14  and  C_25
REMARK    9  A    between atoms: C_15  and  C_16
REMARK   10  A    between atoms: C_30  and  O_35
REMARK   11  A    between atoms: C_31  and  O_33
REMARK   12  A    between atoms: O_33  and  C_34
REMARK   13  A    between atoms: O_35  and  C_36
REMARK                            x       y       z     vdW  Elec       q    Type
REMARK                         _______ _______ _______ _____ _____    ______ ____
ROOT
ATOM      1  C   UNL     1      -3.641   1.709   0.627  0.00  0.00    +0.095 A 
ATOM      2  C   UNL     1      -4.695   0.757   0.920  0.00  0.00    +0.005 A 
ATOM      3  C   UNL     1      -4.316  -0.531   1.118  0.00  0.00    +0.056 A 
ATOM      4  S   UNL     1      -2.550  -0.477   0.904  0.00  0.00    -0.080 S 
ATOM      5  C   UNL     1      -2.346   1.208   0.566  0.00  0.00    +0.087 A 
ENDROOT
BRANCH   2   6
ATOM      6  C   UNL     1      -6.116   1.172   1.006  0.00  0.00    -0.013 A 
ATOM      7  C   UNL     1      -6.478   2.263   1.794  0.00  0.00    +0.012 A 
ATOM      8  C   UNL     1      -7.801   2.651   1.869  0.00  0.00    +0.050 A 
ATOM      9  C   UNL     1      -8.772   1.952   1.170  0.00  0.00    +0.162 A 
ATOM     10  C   UNL     1      -8.417   0.857   0.386  0.00  0.00    +0.162 A 
ATOM     11  C   UNL     1      -7.092   0.467   0.303  0.00  0.00    +0.058 A 
BRANCH  10  12
ATOM     12  O   UNL     1      -9.372   0.173  -0.299  0.00  0.00    -0.491 OA
ATOM     13  C   UNL     1      -8.936  -0.939  -1.084  0.00  0.00    +0.277 C 
ENDBRANCH  10  12
BRANCH   9  14
ATOM     14  O   UNL     1     -10.075   2.334   1.251  0.00  0.00    -0.491 OA
ATOM     15  C   UNL     1     -10.369   3.465   2.074  0.00  0.00    +0.277 C 
ENDBRANCH   9  14
ENDBRANCH   2   6
BRANCH   5  16
ATOM     16  N   UNL     1      -1.173   1.895   0.302  0.00  0.00    -0.275 N 
ATOM     17  C   UNL     1       0.004   1.237   0.290  0.00  0.00    +0.259 C 
ATOM     18  O   UNL     1       0.035   0.041   0.510  0.00  0.00    -0.269 OA
ATOM     19  H   UNL     1      -1.198   2.848   0.127  0.00  0.00    +0.156 HD
BRANCH  17  20
ATOM     20  C   UNL     1       1.249   1.965   0.004  0.00  0.00    +0.114 C 
ATOM     21  C   UNL     1       2.452   1.292  -0.014  0.00  0.00    +0.032 C 
BRANCH  21  22
ATOM     22  C   UNL     1       3.706   2.038  -0.133  0.00  0.00    -0.020 A 
ATOM     23  C   UNL     1       4.785   1.492  -0.844  0.00  0.00    +0.012 A 
ATOM     24  C   UNL     1       5.961   2.198  -0.956  0.00  0.00    +0.050 A 
ATOM     25  C   UNL     1       6.088   3.447  -0.360  0.00  0.00    +0.166 A 
ATOM     26  C   UNL     1       5.021   3.995   0.355  0.00  0.00    +0.167 A 
ATOM     27  C   UNL     1       3.836   3.298   0.469  0.00  0.00    +0.057 A 
ATOM     28  O   UNL     1       5.400   5.216   0.835  0.00  0.00    -0.453 OA
ATOM     29  C   UNL     1       6.559   5.587   0.067  0.00  0.00    +0.466 C 
ATOM     30  O   UNL     1       7.131   4.325  -0.324  0.00  0.00    -0.453 OA
ENDBRANCH  21  22
BRANCH  20  31
ATOM     31  C   UNL     1       1.213   3.373  -0.255  0.00  0.00    +0.104 C 
ATOM     32  N   UNL     1       1.184   4.490  -0.460  0.00  0.00    -0.191 NA
ENDBRANCH  20  31
ENDBRANCH  17  20
ENDBRANCH   5  16
BRANCH   1  33
ATOM     33  C   UNL     1      -3.927   3.126   0.403  0.00  0.00    +0.342 C 
ATOM     34  O   UNL     1      -4.168   3.527  -0.720  0.00  0.00    -0.245 OA
BRANCH  33  35
ATOM     35  O   UNL     1      -3.924   3.987   1.441  0.00  0.00    -0.461 OA
BRANCH  35  37
ATOM     36  C   UNL     1      -4.163   6.174   2.441  0.00  0.00    +0.048 C 
ATOM     37  C   UNL     1      -4.212   5.356   1.149  0.00  0.00    +0.229 C 
ENDBRANCH  35  37
ENDBRANCH  33  35
ENDBRANCH   1  33
TORSDOF 10
