REMARK  Name = ZINC20437547
REMARK  7 active torsions:
REMARK  status: ('A' for Active; 'I' for Inactive)
REMARK    1  A    between atoms: C_3  and  C_8
REMARK    2  A    between atoms: C_10  and  N_13
REMARK    3  A    between atoms: C_14  and  C_16
REMARK    4  A    between atoms: C_16  and  O_17
REMARK    5  A    between atoms: O_17  and  C_18
REMARK    6  A    between atoms: C_18  and  C_19
REMARK    7  A    between atoms: C_21  and  C_24
REMARK                            x       y       z     vdW  Elec       q    Type
REMARK                         _______ _______ _______ _____ _____    ______ ____
ROOT
ATOM      1  C   UNL     1      -8.186  -0.742   0.041  0.00  0.00    +0.256 C 
ENDROOT
BRANCH   1   3
ATOM      2  N   UNL     1      -6.012   0.439   0.035  0.00  0.00    -0.252 N 
ATOM      3  C   UNL     1      -6.679  -0.733   0.033  0.00  0.00    +0.245 C 
ATOM      4  O   UNL     1      -6.066  -1.779   0.024  0.00  0.00    -0.273 OA
ATOM      5  H   UNL     1      -6.569   1.388   0.043  0.00  0.00    +0.158 HD
BRANCH   2   8
ATOM      6  C   UNL     1      -2.505   1.002   0.019  0.00  0.00    +0.115 A 
ATOM      7  C   UNL     1      -3.816   1.545   0.034  0.00  0.00    +0.097 A 
ATOM      8  C   UNL     1      -4.625   0.448   0.027  0.00  0.00    +0.225 A 
ATOM      9  O   UNL     1      -3.814  -0.622   0.018  0.00  0.00    -0.339 OA
ATOM     10  N   UNL     1      -2.649  -0.302   0.013  0.00  0.00    -0.076 NA
BRANCH   6  13
ATOM     11  C   UNL     1      -0.049   3.849   0.022  0.00  0.00    +0.002 A 
ATOM     12  C   UNL     1      -1.239   3.150   0.029  0.00  0.00    +0.010 A 
ATOM     13  C   UNL     1      -1.228   1.757   0.017  0.00  0.00    +0.005 A 
ATOM     14  C   UNL     1      -0.013   1.076   0.008  0.00  0.00    +0.030 A 
ATOM     15  C   UNL     1       1.173   1.784   0.000  0.00  0.00    +0.042 A 
ATOM     16  C   UNL     1       1.155   3.168   0.007  0.00  0.00    +0.020 A 
ATOM     17 CL   UNL     1       2.689   0.937  -0.018  0.00  0.00    -0.084 Cl
ENDBRANCH   6  13
ENDBRANCH   2   8
ENDBRANCH   1   3
BRANCH   1  18
ATOM     18  O   UNL     1      -8.653  -2.093   0.037  0.00  0.00    -0.364 OA
BRANCH  18  19
ATOM     19  C   UNL     1     -10.077  -2.215   0.044  0.00  0.00    +0.219 C 
BRANCH  19  20
ATOM     20  C   UNL     1     -10.456  -3.673   0.039  0.00  0.00    +0.110 A 
ATOM     21  C   UNL     1      -9.574  -4.773   0.028  0.00  0.00    +0.078 A 
ATOM     22  C   UNL     1     -10.406  -5.861   0.028  0.00  0.00    +0.168 A 
ATOM     23  O   UNL     1     -11.659  -5.373   0.037  0.00  0.00    -0.354 OA
ATOM     24  N   UNL     1     -11.663  -4.164   0.049  0.00  0.00    -0.080 NA
BRANCH  22  25
ATOM     25  C   UNL     1     -10.006  -7.283   0.018  0.00  0.00    +0.024 A 
ATOM     26  C   UNL     1      -8.654  -7.630   0.008  0.00  0.00    +0.015 A 
ATOM     27  C   UNL     1      -8.283  -8.958  -0.001  0.00  0.00    +0.050 A 
ATOM     28  C   UNL     1      -9.250  -9.953  -0.000  0.00  0.00    +0.166 A 
ATOM     29  C   UNL     1     -10.603  -9.613   0.010  0.00  0.00    +0.167 A 
ATOM     30  C   UNL     1     -10.980  -8.283   0.025  0.00  0.00    +0.061 A 
ATOM     31  O   UNL     1     -11.341 -10.761   0.009  0.00  0.00    -0.453 OA
ATOM     32  C   UNL     1     -10.432 -11.803   0.411  0.00  0.00    +0.466 C 
ATOM     33  O   UNL     1      -9.144 -11.314  -0.008  0.00  0.00    -0.453 OA
ENDBRANCH  22  25
ENDBRANCH  19  20
ENDBRANCH  18  19
ENDBRANCH   1  18
TORSDOF 7
