REMARK  Name = ZINC39692486
REMARK  8 active torsions:
REMARK  status: ('A' for Active; 'I' for Inactive)
REMARK    1  A    between atoms: C_1  and  C_2
REMARK    2  A    between atoms: C_3  and  C_34
REMARK    3  A    between atoms: C_9  and  C_13
REMARK    4  A    between atoms: C_13  and  S_14
REMARK    5  A    between atoms: S_14  and  C_15
REMARK    6  A    between atoms: C_21  and  C_25
REMARK    7  A    between atoms: C_22  and  C_24
REMARK    8  A    between atoms: N_28  and  C_29
REMARK                            x       y       z     vdW  Elec       q    Type
REMARK                         _______ _______ _______ _____ _____    ______ ____
ROOT
ATOM      1  S   UNL     1       3.624  -5.063  -0.043  0.00  0.00    -0.107 S 
ENDROOT
BRANCH   1   2
ATOM      2  C   UNL     1       4.551  -6.622  -0.056  0.00  0.00    +0.255 C 
ATOM      3  N   UNL     1       4.239  -7.359   1.172  0.00  0.00    -0.243 NA
ATOM      4  C   UNL     1       3.331  -8.266   1.151  0.00  0.00    +0.107 C 
ATOM      5  C   UNL     1       2.639  -8.716  -0.102  0.00  0.00    +0.068 C 
ATOM      6  C   UNL     1       1.554  -9.457   0.035  0.00  0.00    -0.045 C 
ATOM      7  C   UNL     1       1.121  -9.811   1.447  0.00  0.00    +0.076 C 
ATOM      8  S   UNL     1       2.586  -9.252   2.418  0.00  0.00    -0.098 S 
ATOM      9  C   UNL     1       0.904 -11.319   1.594  0.00  0.00    +0.024 C 
ATOM     10  C   UNL     1       0.777  -9.934  -1.165  0.00  0.00    +0.041 C 
ATOM     11  C   UNL     1       3.265  -8.274  -1.391  0.00  0.00    +0.252 C 
ATOM     12  O   UNL     1       2.924  -8.727  -2.467  0.00  0.00    -0.270 OA
ATOM     13  N   UNL     1       4.230  -7.339  -1.276  0.00  0.00    -0.264 N 
BRANCH  13  14
ATOM     14  C   UNL     1       5.012  -7.026  -2.474  0.00  0.00    +0.079 C 
ATOM     15  C   UNL     1       4.075  -6.573  -3.613  0.00  0.00    +0.022 C 
ATOM     16  C   UNL     1       4.712  -7.176  -4.890  0.00  0.00    +0.002 C 
ATOM     17  C   UNL     1       5.215  -8.557  -4.402  0.00  0.00    +0.002 C 
ATOM     18  C   UNL     1       5.737  -8.287  -2.976  0.00  0.00    +0.022 C 
ENDBRANCH  13  14
ENDBRANCH   1   2
BRANCH   1  19
ATOM     19  C   UNL     1       1.887  -5.585  -0.037  0.00  0.00    +0.147 C 
BRANCH  19  28
ATOM     20  C   UNL     1      -0.018   1.503   0.010  0.00  0.00    +0.087 C 
ATOM     21  C   UNL     1       0.002  -0.004   0.002  0.00  0.00    +0.119 A 
ATOM     22  C   UNL     1      -1.102  -0.806   0.003  0.00  0.00    +0.118 A 
ATOM     23  C   UNL     1      -0.586  -2.186  -0.007  0.00  0.00    +0.118 A 
ATOM     24  C   UNL     1      -1.171  -3.470  -0.011  0.00  0.00    +0.263 A 
ATOM     25  O   UNL     1      -2.382  -3.607  -0.006  0.00  0.00    -0.267 OA
ATOM     26  N   UNL     1      -0.348  -4.544  -0.020  0.00  0.00    -0.309 N 
ATOM     27  H   UNL     1      -0.720  -5.439  -0.023  0.00  0.00    +0.170 HD
ATOM     28  C   UNL     1       0.997  -4.369  -0.026  0.00  0.00    +0.124 A 
ATOM     29  N   UNL     1       1.547  -3.188  -0.022  0.00  0.00    -0.198 NA
ATOM     30  C   UNL     1       0.804  -2.070  -0.013  0.00  0.00    +0.235 A 
ATOM     31  O   UNL     1       1.106  -0.761  -0.013  0.00  0.00    -0.441 OA
BRANCH  22  32
ATOM     32  C   UNL     1      -2.507  -0.383   0.012  0.00  0.00    +0.391 C 
ATOM     33  O   UNL     1      -2.788   0.808   0.020  0.00  0.00    -0.240 OA
ATOM     34  O   UNL     1      -3.398  -1.222   0.012  0.00  0.00    -0.240 OA
ENDBRANCH  22  32
ENDBRANCH  19  28
ENDBRANCH   1  19
TORSDOF 5
