REMARK  Name = ZINC15547512
REMARK  7 active torsions:
REMARK  status: ('A' for Active; 'I' for Inactive)
REMARK    1  A    between atoms: C_1  and  C_2
REMARK    2  A    between atoms: C_2  and  C_3
REMARK    3  A    between atoms: C_12  and  C_13
REMARK    4  A    between atoms: C_12  and  N_48
REMARK    5  A    between atoms: N_15  and  C_16
REMARK    6  A    between atoms: C_16  and  C_17
REMARK    7  A    between atoms: N_19  and  C_20
REMARK                            x       y       z     vdW  Elec       q    Type
REMARK                         _______ _______ _______ _____ _____    ______ ____
ROOT
ATOM      1  C   UNL     1       3.388   2.740  -1.514  0.00  0.00    +0.197 C 
ATOM      2  O   UNL     1       3.753   3.405  -0.569  0.00  0.00    -0.278 OA
ATOM      3  N   UNL     1       4.291   2.270  -2.398  0.00  0.00    -0.308 N 
ATOM      4  H   UNL     1       3.999   1.738  -3.154  0.00  0.00    +0.149 HD
ENDROOT
BRANCH   1   5
ATOM      5  C   UNL     1       1.923   2.437  -1.702  0.00  0.00    +0.019 C 
BRANCH   5  14
ATOM      6  C   UNL     1       1.255   4.444  -0.524  0.00  0.00    -0.036 C 
ATOM      7  C   UNL     1       0.468   4.946   0.683  0.00  0.00    -0.051 A 
ATOM      8  C   UNL     1       0.029   6.259   0.833  0.00  0.00    +0.010 A 
ATOM      9  C   UNL     1      -0.666   6.619   1.937  0.00  0.00    +0.045 A 
ATOM     10  S   UNL     1      -0.736   5.082   2.846  0.00  0.00    -0.101 S 
ATOM     11  C   UNL     1       0.161   4.083   1.692  0.00  0.00    -0.010 A 
ATOM     12  C   UNL     1       0.519   2.635   1.767  0.00  0.00    +0.024 C 
ATOM     13  C   UNL     1       1.589   2.361   0.696  0.00  0.00    -0.072 C 
ATOM     14  N   UNL     1       1.129   2.968  -0.577  0.00  0.00    +0.390 N 
ATOM     15  H   UNL     1       0.142   2.725  -0.722  0.00  0.00    -0.080 HD
BRANCH   6  17
ATOM     16  C   UNL     1      -0.785   4.561  -1.962  0.00  0.00    +0.002 C 
ATOM     17  C   UNL     1       0.662   5.034  -1.805  0.00  0.00    -0.014 C 
ENDBRANCH   6  17
ENDBRANCH   5  14
ENDBRANCH   1   5
BRANCH   3  18
ATOM     18  C   UNL     1       5.715   2.564  -2.216  0.00  0.00    +0.200 C 
BRANCH  18  19
ATOM     19  C   UNL     1       6.505   1.929  -3.330  0.00  0.00    +0.234 C 
ATOM     20  O   UNL     1       5.936   1.294  -4.192  0.00  0.00    -0.274 OA
ATOM     21  N   UNL     1       7.845   2.067  -3.370  0.00  0.00    -0.283 N 
ATOM     22  H   UNL     1       8.309   2.508  -2.640  0.00  0.00    +0.155 HD
BRANCH  21  23
ATOM     23  C   UNL     1       8.568   1.576  -4.463  0.00  0.00    +0.047 A 
ATOM     24  C   UNL     1       7.923   1.326  -5.668  0.00  0.00    +0.024 A 
ATOM     25  C   UNL     1       8.640   0.845  -6.746  0.00  0.00    +0.002 A 
ATOM     26  C   UNL     1       9.996   0.602  -6.624  0.00  0.00    +0.001 A 
ATOM     27  C   UNL     1      10.640   0.845  -5.426  0.00  0.00    +0.017 A 
ATOM     28  C   UNL     1       9.930   1.331  -4.344  0.00  0.00    +0.039 A 
ATOM     29 BR   UNL     1      10.812   1.662  -2.704  0.00  0.00    -0.048 Br
ENDBRANCH  21  23
ENDBRANCH  18  19
ENDBRANCH   3  18
TORSDOF 6
