REMARK  Name = ZINC34927408
REMARK  2 active torsions:
REMARK  status: ('A' for Active; 'I' for Inactive)
REMARK    1  A    between atoms: C_6  and  N_7
REMARK    2  A    between atoms: N_16  and  C_21
REMARK                            x       y       z     vdW  Elec       q    Type
REMARK                         _______ _______ _______ _____ _____    ______ ____
ROOT
ATOM      1  N   UNL     1      -0.019  -3.207   0.881  0.00  0.00    -0.269 N 
ATOM      2  C   UNL     1      -0.647  -4.390   0.734  0.00  0.00    +0.306 C 
ATOM      3  O   UNL     1      -0.034  -5.428   0.896  0.00  0.00    -0.252 OA
ATOM      4  N   UNL     1      -1.954  -4.423   0.407  0.00  0.00    -0.285 N 
ATOM      5  C   UNL     1      -2.662  -3.192   0.029  0.00  0.00    +0.112 C 
ATOM      6  C   UNL     1      -3.321  -3.405  -1.339  0.00  0.00    +0.056 C 
ATOM      7  C   UNL     1      -4.175  -4.662  -1.301  0.00  0.00    +0.091 C 
ATOM      8  C   UNL     1      -3.355  -5.892  -0.947  0.00  0.00    +0.056 C 
ATOM      9  C   UNL     1      -2.695  -5.692   0.417  0.00  0.00    +0.112 C 
ATOM     10  N   UNL     1      -5.326  -4.505  -0.406  0.00  0.00    -0.255 N 
ATOM     11  C   UNL     1      -6.534  -4.848  -0.843  0.00  0.00    +0.231 C 
ATOM     12  O   UNL     1      -7.514  -4.732  -0.138  0.00  0.00    -0.274 OA
ATOM     13  C   UNL     1      -6.641  -5.392  -2.260  0.00  0.00    +0.167 C 
ATOM     14  S   UNL     1      -4.991  -4.907  -2.931  0.00  0.00    -0.125 S 
ATOM     15  H   UNL     1      -0.531  -2.383   0.880  0.00  0.00    +0.156 HD
ENDROOT
BRANCH   1  21
ATOM     16  C   UNL     1       2.076  -2.017   0.704  0.00  0.00    +0.025 A 
ATOM     17  C   UNL     1       3.448  -1.980   0.859  0.00  0.00    +0.022 A 
ATOM     18  C   UNL     1       4.121  -3.088   1.344  0.00  0.00    +0.041 A 
ATOM     19  C   UNL     1       3.421  -4.235   1.675  0.00  0.00    +0.022 A 
ATOM     20  C   UNL     1       2.050  -4.277   1.523  0.00  0.00    +0.025 A 
ATOM     21  C   UNL     1       1.372  -3.167   1.036  0.00  0.00    +0.035 A 
ATOM     22 CL   UNL     1       5.845  -3.038   1.537  0.00  0.00    -0.084 Cl
ENDBRANCH   1  21
BRANCH  10  23
ATOM     23  C   UNL     1      -5.155  -4.002   0.889  0.00  0.00    +0.038 A 
ATOM     24  C   UNL     1      -5.192  -2.632   1.113  0.00  0.00    +0.025 A 
ATOM     25  C   UNL     1      -5.024  -2.138   2.392  0.00  0.00    +0.022 A 
ATOM     26  C   UNL     1      -4.818  -3.007   3.449  0.00  0.00    +0.041 A 
ATOM     27  C   UNL     1      -4.781  -4.372   3.228  0.00  0.00    +0.022 A 
ATOM     28  C   UNL     1      -4.954  -4.872   1.952  0.00  0.00    +0.025 A 
ATOM     29 CL   UNL     1      -4.607  -2.383   5.055  0.00  0.00    -0.084 Cl
ENDBRANCH  10  23
TORSDOF 2
