REMARK  Name = ZINC08901353
REMARK  9 active torsions:
REMARK  status: ('A' for Active; 'I' for Inactive)
REMARK    1  A    between atoms: C_1  and  C_2
REMARK    2  A    between atoms: C_2  and  C_3
REMARK    3  A    between atoms: C_2  and  C_4
REMARK    4  A    between atoms: C_2  and  C_5
REMARK    5  A    between atoms: C_12  and  N_16
REMARK    6  A    between atoms: C_13  and  C_14
REMARK    7  A    between atoms: C_17  and  C_19
REMARK    8  A    between atoms: C_28  and  O_29
REMARK    9  A    between atoms: O_29  and  C_30
REMARK                            x       y       z     vdW  Elec       q    Type
REMARK                         _______ _______ _______ _____ _____    ______ ____
ROOT
ATOM      1  N   UNL     1      -0.011   0.966   0.007  0.00  0.00    -0.275 N 
ATOM      2  C   UNL     1      -1.187   1.624   0.017  0.00  0.00    +0.252 C 
ATOM      3  O   UNL     1      -1.204   2.840   0.023  0.00  0.00    -0.270 OA
ATOM      4  H   UNL     1       0.002  -0.004   0.002  0.00  0.00    +0.156 HD
ENDROOT
BRANCH   2   5
ATOM      5  C   UNL     1      -2.455   0.869   0.018  0.00  0.00    +0.080 A 
ATOM      6  C   UNL     1      -2.431  -0.517   0.005  0.00  0.00    +0.025 A 
ATOM      7  C   UNL     1      -3.638  -1.229   0.013  0.00  0.00    -0.016 A 
ATOM      8  C   UNL     1      -3.651  -2.636   0.004  0.00  0.00    +0.008 A 
ATOM      9  C   UNL     1      -4.839  -3.299   0.005  0.00  0.00    +0.001 A 
ATOM     10  C   UNL     1      -6.048  -2.605   0.015  0.00  0.00    +0.001 A 
ATOM     11  C   UNL     1      -6.075  -1.245   0.022  0.00  0.00    +0.010 A 
ATOM     12  C   UNL     1      -4.869  -0.523   0.022  0.00  0.00    -0.000 A 
ATOM     13  C   UNL     1      -4.867   0.882   0.029  0.00  0.00    +0.068 A 
ATOM     14  C   UNL     1      -3.683   1.562   0.028  0.00  0.00    +0.147 A 
ATOM     15 BR   UNL     1      -6.502   1.831   0.041  0.00  0.00    -0.046 Br
BRANCH  14  16
ATOM     16  O   UNL     1      -3.689   2.920   0.035  0.00  0.00    -0.493 OA
ATOM     17  C   UNL     1      -3.697   3.575  -1.234  0.00  0.00    +0.277 C 
ENDBRANCH  14  16
ENDBRANCH   2   5
BRANCH   1  24
ATOM     18  C   UNL     1       5.486   4.202  -0.408  0.00  0.00    -0.000 C 
ATOM     19  C   UNL     1       5.863   2.970   0.419  0.00  0.00    +0.009 C 
ATOM     20  C   UNL     1       5.037   1.765  -0.036  0.00  0.00    +0.037 C 
ATOM     21  C   UNL     1       3.562   2.148  -0.021  0.00  0.00    -0.018 A 
ATOM     22  C   UNL     1       3.180   3.444  -0.012  0.00  0.00    -0.004 A 
ATOM     23  S   UNL     1       1.411   3.393  -0.001  0.00  0.00    -0.077 S 
ATOM     24  C   UNL     1       1.180   1.675  -0.000  0.00  0.00    +0.090 A 
ATOM     25  C   UNL     1       2.477   1.183  -0.015  0.00  0.00    +0.084 A 
ATOM     26  C   UNL     1       4.070   4.648  -0.015  0.00  0.00    +0.047 C 
BRANCH  18  28
ATOM     27  C   UNL     1       7.889   4.879  -0.502  0.00  0.00    +0.011 C 
ATOM     28  C   UNL     1       6.477   5.333  -0.126  0.00  0.00    -0.035 C 
ATOM     29  C   UNL     1       6.098   6.562  -0.953  0.00  0.00    +0.011 C 
ATOM     30  C   UNL     1       6.435   5.687   1.362  0.00  0.00    +0.011 C 
ENDBRANCH  18  28
BRANCH  25  31
ATOM     31  C   UNL     1       2.736  -0.226  -0.025  0.00  0.00    +0.102 C 
ATOM     32  N   UNL     1       2.941  -1.343  -0.033  0.00  0.00    -0.191 NA
ENDBRANCH  25  31
ENDBRANCH   1  24
TORSDOF 5
