REMARK  Name = ZINC11910844
REMARK  8 active torsions:
REMARK  status: ('A' for Active; 'I' for Inactive)
REMARK    1  A    between atoms: C_5  and  N_7
REMARK    2  A    between atoms: C_12  and  C_13
REMARK    3  A    between atoms: C_12  and  N_70
REMARK    4  A    between atoms: C_17  and  O_19
REMARK    5  A    between atoms: O_19  and  C_20
REMARK    6  A    between atoms: C_20  and  C_21
REMARK    7  A    between atoms: C_28  and  C_30
REMARK    8  A    between atoms: C_30  and  C_31
REMARK                            x       y       z     vdW  Elec       q    Type
REMARK                         _______ _______ _______ _____ _____    ______ ____
ROOT
ATOM      1  C   UNL     1       1.208  -0.681  -0.014  0.00  0.00    -0.060 A 
ATOM      2  C   UNL     1       0.002  -0.004   0.002  0.00  0.00    +0.002 A 
ATOM      3  C   UNL     1      -0.017   1.378   0.010  0.00  0.00    +0.004 A 
ATOM      4  C   UNL     1       1.170   2.086   0.002  0.00  0.00    +0.045 A 
ATOM      5  C   UNL     1       2.380   1.409  -0.013  0.00  0.00    +0.121 A 
ATOM      6  C   UNL     1       2.396   0.022  -0.021  0.00  0.00    +0.047 A 
ENDROOT
BRANCH   1   7
ATOM      7  C   UNL     1       1.224  -2.188  -0.022  0.00  0.00    -0.043 C 
BRANCH   7  13
ATOM      8  N   UNL     1       0.267  -4.227  -3.596  0.00  0.00    -0.331 N 
ATOM      9  C   UNL     1       1.533  -4.564  -2.929  0.00  0.00    +0.086 C 
ATOM     10  C   UNL     1       1.470  -4.116  -1.467  0.00  0.00    -0.059 C 
ATOM     11  C   UNL     1      -0.049  -2.334  -2.077  0.00  0.00    -0.059 C 
ATOM     12  C   UNL     1       0.013  -2.781  -3.539  0.00  0.00    +0.086 C 
ATOM     13  N   UNL     1       1.237  -2.658  -1.424  0.00  0.00    +0.384 N 
ATOM     14  H   UNL     1       1.996  -2.183  -1.928  0.00  0.00    -0.081 HD
BRANCH   8  19
ATOM     15  C   UNL     1       0.396  -6.491  -6.491  0.00  0.00    +0.002 A 
ATOM     16  C   UNL     1       0.246  -5.594  -7.532  0.00  0.00    +0.003 A 
ATOM     17  C   UNL     1       0.103  -4.244  -7.272  0.00  0.00    +0.040 A 
ATOM     18  C   UNL     1       0.109  -3.786  -5.967  0.00  0.00    +0.144 A 
ATOM     19  C   UNL     1       0.259  -4.686  -4.917  0.00  0.00    +0.065 A 
ATOM     20  C   UNL     1       0.407  -6.040  -5.185  0.00  0.00    +0.026 A 
ATOM     21  F   UNL     1      -0.030  -2.466  -5.712  0.00  0.00    -0.204 F 
ENDBRANCH   8  19
ENDBRANCH   7  13
ENDBRANCH   1   7
BRANCH   5  22
ATOM     22  O   UNL     1       3.548   2.104  -0.020  0.00  0.00    -0.492 OA
BRANCH  22  23
ATOM     23  C   UNL     1       3.456   3.530  -0.011  0.00  0.00    +0.234 C 
BRANCH  23  24
ATOM     24  C   UNL     1       4.862   4.132  -0.021  0.00  0.00    +0.044 C 
ATOM     25  C   UNL     1       4.764   5.655  -0.133  0.00  0.00    +0.010 C 
ATOM     26  C   UNL     1       6.171   6.257  -0.177  0.00  0.00    +0.019 C 
ATOM     27  C   UNL     1       6.909   5.914   1.121  0.00  0.00    +0.108 C 
ATOM     28  N   UNL     1       6.881   4.457   1.310  0.00  0.00    -0.301 N 
ATOM     29  C   UNL     1       5.585   3.765   1.278  0.00  0.00    +0.114 C 
ATOM     30  C   UNL     1       8.022   3.768   1.510  0.00  0.00    +0.220 C 
ATOM     31  O   UNL     1       7.986   2.566   1.665  0.00  0.00    -0.275 OA
BRANCH  30  32
ATOM     32  C   UNL     1       9.343   4.492   1.540  0.00  0.00    +0.138 C 
BRANCH  32  33
ATOM     33  C   UNL     1      10.454   3.502   1.776  0.00  0.00    -0.001 A 
ATOM     34  C   UNL     1      11.182   2.803   0.871  0.00  0.00    +0.011 A 
ATOM     35  C   UNL     1      12.163   1.940   1.322  0.00  0.00    +0.008 A 
ATOM     36  C   UNL     1      12.368   1.817   2.656  0.00  0.00    +0.045 A 
ATOM     37  S   UNL     1      11.158   2.949   3.321  0.00  0.00    -0.101 S 
ENDBRANCH  32  33
ENDBRANCH  30  32
ENDBRANCH  23  24
ENDBRANCH  22  23
ENDBRANCH   5  22
TORSDOF 8
