REMARK  Name = ZINC08344876
REMARK  4 active torsions:
REMARK  status: ('A' for Active; 'I' for Inactive)
REMARK    1  A    between atoms: C_7  and  N_12
REMARK    2  A    between atoms: C_13  and  C_15
REMARK    3  A    between atoms: C_15  and  S_16
REMARK    4  A    between atoms: S_16  and  C_17
REMARK                            x       y       z     vdW  Elec       q    Type
REMARK                         _______ _______ _______ _____ _____    ______ ____
ROOT
ATOM      1  N   UNL     1      -5.152   0.453   0.029  0.00  0.00    -0.308 N 
ATOM      2  C   UNL     1      -4.117   1.317   0.029  0.00  0.00    +0.224 C 
ATOM      3  O   UNL     1      -4.324   2.512   0.036  0.00  0.00    -0.275 OA
ATOM      4  H   UNL     1      -4.986  -0.502   0.023  0.00  0.00    +0.149 HD
ENDROOT
BRANCH   1  11
ATOM      5  C   UNL     1      -6.234   2.041  -3.540  0.00  0.00    +0.000 A 
ATOM      6  C   UNL     1      -7.518   1.877  -4.029  0.00  0.00    +0.001 A 
ATOM      7  C   UNL     1      -8.505   1.395  -3.197  0.00  0.00    +0.015 A 
ATOM      8  C   UNL     1      -8.219   1.071  -1.871  0.00  0.00    +0.013 A 
ATOM      9  C   UNL     1      -6.941   1.248  -1.374  0.00  0.00    -0.014 A 
ATOM     10  C   UNL     1      -5.951   1.731  -2.228  0.00  0.00    +0.006 A 
ATOM     11  C   UNL     1      -6.527   0.959   0.038  0.00  0.00    +0.105 C 
ATOM     12  C   UNL     1      -7.412  -0.057   0.739  0.00  0.00    +0.038 C 
ATOM     13  C   UNL     1      -8.846   0.488   0.806  0.00  0.00    +0.076 C 
ATOM     14  S   UNL     1      -9.525   0.420  -0.878  0.00  0.00    -0.125 S 
ENDBRANCH   1  11
BRANCH   2  15
ATOM     15  C   UNL     1      -2.702   0.797   0.019  0.00  0.00    +0.171 C 
BRANCH  15  16
ATOM     16  S   UNL     1      -1.547   2.191   0.021  0.00  0.00    -0.096 S 
BRANCH  16  17
ATOM     17  C   UNL     1      -0.016   1.320   0.009  0.00  0.00    +0.109 A 
ATOM     18  C   UNL     1       1.217   2.030   0.001  0.00  0.00    +0.040 A 
ATOM     19  C   UNL     1       1.465   3.461   0.007  0.00  0.00    +0.020 A 
ATOM     20  C   UNL     1       2.730   3.907  -0.003  0.00  0.00    +0.048 A 
ATOM     21  S   UNL     1       3.699   2.410  -0.020  0.00  0.00    -0.077 S 
ATOM     22  C   UNL     1       2.378   1.227  -0.014  0.00  0.00    +0.112 A 
ATOM     23  N   UNL     1       2.303  -0.090  -0.020  0.00  0.00    -0.228 NA
ATOM     24  C   UNL     1       1.129  -0.692  -0.012  0.00  0.00    +0.223 A 
ATOM     25  N   UNL     1       0.002  -0.004   0.002  0.00  0.00    -0.229 NA
ENDBRANCH  16  17
ENDBRANCH  15  16
ENDBRANCH   2  15
TORSDOF 4
