REMARK  Name = ZINC02501768
REMARK  9 active torsions:
REMARK  status: ('A' for Active; 'I' for Inactive)
REMARK    1  A    between atoms: C_1  and  C_2
REMARK    2  A    between atoms: C_4  and  C_8
REMARK    3  A    between atoms: C_5  and  C_7
REMARK    4  A    between atoms: C_10  and  C_32
REMARK    5  A    between atoms: C_11  and  N_31
REMARK    6  A    between atoms: N_12  and  C_22
REMARK    7  A    between atoms: C_18  and  C_20
REMARK    8  A    between atoms: C_18  and  C_21
REMARK    9  A    between atoms: C_26  and  N_28
REMARK                            x       y       z     vdW  Elec       q    Type
REMARK                         _______ _______ _______ _____ _____    ______ ____
ROOT
ATOM      1  C   UNL     1      -0.035   7.949  -0.781  0.00  0.00    +0.098 C 
ATOM      2  C   UNL     1      -1.296   7.216  -0.430  0.00  0.00    +0.077 C 
ATOM      3  C   UNL     1      -1.270   5.910  -0.061  0.00  0.00    +0.107 C 
ATOM      4  N   UNL     1      -0.071   5.236   0.008  0.00  0.00    -0.260 N 
ATOM      5  C   UNL     1       1.109   5.925   0.110  0.00  0.00    +0.025 C 
ATOM      6  C   UNL     1       1.180   7.223  -0.260  0.00  0.00    +0.025 C 
ATOM      7  C   UNL     1       2.388   7.937  -0.167  0.00  0.00    +0.162 C 
ATOM      8  O   UNL     1       2.414   9.108  -0.490  0.00  0.00    -0.292 OA
ATOM      9  C   UNL     1       3.647   7.278   0.325  0.00  0.00    +0.086 C 
ATOM     10  C   UNL     1       3.587   5.782  -0.000  0.00  0.00    -0.023 C 
ATOM     11  C   UNL     1       2.322   5.199   0.633  0.00  0.00    +0.058 C 
ATOM     12  C   UNL     1       3.539   5.587  -1.517  0.00  0.00    +0.011 C 
ATOM     13  C   UNL     1       4.822   5.082   0.570  0.00  0.00    +0.011 C 
ENDROOT
BRANCH   1  17
ATOM     14  C   UNL     1       0.259   6.017  -5.483  0.00  0.00    +0.051 C 
ATOM     15  C   UNL     1       0.199   7.081  -4.417  0.00  0.00    -0.013 A 
ATOM     16  C   UNL     1       0.107   6.938  -3.073  0.00  0.00    +0.015 A 
ATOM     17  C   UNL     1       0.067   8.069  -2.279  0.00  0.00    -0.025 A 
ATOM     18  C   UNL     1       0.114   9.288  -2.870  0.00  0.00    -0.009 A 
ATOM     19  S   UNL     1       0.230   8.857  -4.598  0.00  0.00    -0.098 S 
ATOM     20  C   UNL     1       0.079  10.653  -2.233  0.00  0.00    +0.052 C 
ENDBRANCH   1  17
BRANCH   4  21
ATOM     21  C   UNL     1      -0.058   3.836  -0.022  0.00  0.00    +0.042 A 
ATOM     22  C   UNL     1      -0.144   3.114   1.162  0.00  0.00    +0.024 A 
ATOM     23  C   UNL     1      -0.131   1.734   1.129  0.00  0.00    +0.004 A 
ATOM     24  C   UNL     1      -0.033   1.070  -0.080  0.00  0.00    +0.033 A 
ATOM     25  C   UNL     1       0.058   1.786  -1.260  0.00  0.00    +0.128 A 
ATOM     26  C   UNL     1       0.040   3.167  -1.234  0.00  0.00    +0.056 A 
BRANCH  25  27
ATOM     27  N   UNL     1       0.169   1.072  -2.551  0.00  0.00    +0.056 N 
ATOM     28  O   UNL     1       0.180  -0.146  -2.575  0.00  0.00    -0.126 OA
ATOM     29  O   UNL     1       0.249   1.701  -3.591  0.00  0.00    -0.126 OA
ENDBRANCH  25  27
ENDBRANCH   4  21
BRANCH   3  30
ATOM     30  N   UNL     1      -2.441   5.259   0.246  0.00  0.00    -0.345 N 
ATOM     31  H   UNL     1      -2.416   4.354   0.595  0.00  0.00    +0.144 HD
ATOM     32  H   UNL     1      -3.292   5.705   0.114  0.00  0.00    +0.144 HD
ENDBRANCH   3  30
BRANCH   2  33
ATOM     33  C   UNL     1      -2.550   7.906  -0.487  0.00  0.00    +0.099 C 
ATOM     34  N   UNL     1      -3.544   8.454  -0.532  0.00  0.00    -0.191 NA
ENDBRANCH   2  33
TORSDOF 5
