REMARK  Name = ZINC09698223
REMARK  9 active torsions:
REMARK  status: ('A' for Active; 'I' for Inactive)
REMARK    1  A    between atoms: C_1  and  C_2
REMARK    2  A    between atoms: C_5  and  N_8
REMARK    3  A    between atoms: C_10  and  C_15
REMARK    4  A    between atoms: C_20  and  C_23
REMARK    5  A    between atoms: C_23  and  C_24
REMARK    6  A    between atoms: N_26  and  C_27
REMARK    7  A    between atoms: C_30  and  C_37
REMARK    8  A    between atoms: C_33  and  C_35
REMARK    9  A    between atoms: C_33  and  C_36
REMARK                            x       y       z     vdW  Elec       q    Type
REMARK                         _______ _______ _______ _____ _____    ______ ____
ROOT
ATOM      1  C   UNL     1      -0.106  -6.032   0.722  0.00  0.00    +0.224 C 
ATOM      2  O   UNL     1       0.530  -6.408  -0.240  0.00  0.00    -0.275 OA
ATOM      3  N   UNL     1      -0.101  -4.729   1.066  0.00  0.00    -0.264 N 
ATOM      4  C   UNL     1       0.635  -3.816   0.319  0.00  0.00    +0.165 A 
ATOM      5  N   UNL     1       0.765  -2.515   0.495  0.00  0.00    -0.229 NA
ATOM      6  C   UNL     1       1.510  -1.788  -0.315  0.00  0.00    +0.059 A 
ATOM      7  C   UNL     1       2.140  -2.406  -1.343  0.00  0.00    +0.072 A 
ATOM      8  S   UNL     1       1.618  -4.095  -1.085  0.00  0.00    -0.060 S 
ATOM      9  H   UNL     1      -0.610  -4.428   1.835  0.00  0.00    +0.157 HD
ENDROOT
BRANCH   1  12
ATOM     10  N   UNL     1      -2.152  -9.026   1.117  0.00  0.00    -0.271 N 
ATOM     11  C   UNL     1      -0.825  -8.434   0.911  0.00  0.00    +0.127 C 
ATOM     12  C   UNL     1      -0.904  -7.021   1.531  0.00  0.00    +0.102 C 
ATOM     13  C   UNL     1      -2.417  -6.720   1.439  0.00  0.00    +0.110 C 
ATOM     14  C   UNL     1      -3.067  -8.086   1.410  0.00  0.00    +0.221 C 
ATOM     15  O   UNL     1      -4.242  -8.301   1.620  0.00  0.00    -0.275 OA
BRANCH  10  20
ATOM     16  C   UNL     1      -3.277 -14.573   0.731  0.00  0.00    +0.044 C 
ATOM     17  C   UNL     1      -2.978 -13.100   0.834  0.00  0.00    -0.050 A 
ATOM     18  C   UNL     1      -1.673 -12.653   0.747  0.00  0.00    +0.005 A 
ATOM     19  C   UNL     1      -1.395 -11.303   0.840  0.00  0.00    +0.024 A 
ATOM     20  C   UNL     1      -2.430 -10.394   1.022  0.00  0.00    +0.036 A 
ATOM     21  C   UNL     1      -3.739 -10.847   1.115  0.00  0.00    +0.024 A 
ATOM     22  C   UNL     1      -4.010 -12.198   1.014  0.00  0.00    +0.005 A 
ENDBRANCH  10  20
ENDBRANCH   1  12
BRANCH   6  23
ATOM     23  C   UNL     1       1.651  -0.302  -0.105  0.00  0.00    +0.151 C 
BRANCH  23  24
ATOM     24  C   UNL     1       0.284   0.333  -0.069  0.00  0.00    +0.219 C 
ATOM     25  O   UNL     1      -0.707  -0.354  -0.201  0.00  0.00    -0.275 OA
ATOM     26  N   UNL     1       0.163   1.663   0.110  0.00  0.00    -0.312 N 
ATOM     27  H   UNL     1       0.956   2.212   0.215  0.00  0.00    +0.149 HD
BRANCH  26  28
ATOM     28  C   UNL     1      -1.165   2.280   0.139  0.00  0.00    +0.074 C 
ATOM     29  C   UNL     1      -1.050   3.712   0.666  0.00  0.00    +0.025 C 
ATOM     30  C   UNL     1      -0.131   4.521  -0.252  0.00  0.00    -0.012 C 
ATOM     31  C   UNL     1      -0.715   4.544  -1.667  0.00  0.00    +0.009 C 
ATOM     32  C   UNL     1      -0.829   3.112  -2.193  0.00  0.00    -0.033 C 
ATOM     33  C   UNL     1      -1.748   2.303  -1.276  0.00  0.00    +0.028 C 
ATOM     34  C   UNL     1       0.558   2.467  -2.224  0.00  0.00    +0.011 C 
ATOM     35  C   UNL     1      -1.412   3.134  -3.608  0.00  0.00    +0.011 C 
ATOM     36  C   UNL     1      -0.017   5.953   0.275  0.00  0.00    +0.007 C 
ENDBRANCH  26  28
ENDBRANCH  23  24
ENDBRANCH   6  23
TORSDOF 5
