REMARK  Name = ZINC13337134
REMARK  15 active torsions:
REMARK  status: ('A' for Active; 'I' for Inactive)
REMARK    1  A    between atoms: C_1  and  C_2
REMARK    2  A    between atoms: C_5  and  C_31
REMARK    3  A    between atoms: C_6  and  O_8
REMARK    4  A    between atoms: O_8  and  C_9
REMARK    5  A    between atoms: C_9  and  C_10
REMARK    6  A    between atoms: N_12  and  N_13
REMARK    7  A    between atoms: C_14  and  C_15
REMARK    8  A    between atoms: C_14  and  C_16
REMARK    9  A    between atoms: C_19  and  S_22
REMARK   10  A    between atoms: S_22  and  N_25
REMARK   11  A    between atoms: N_25  and  C_26
REMARK   12  A    between atoms: C_26  and  C_28
REMARK   13  A    between atoms: C_26  and  C_29
REMARK   14  A    between atoms: C_31  and  C_32
REMARK   15  A    between atoms: C_31  and  C_33
REMARK                            x       y       z     vdW  Elec       q    Type
REMARK                         _______ _______ _______ _____ _____    ______ ____
ROOT
ATOM      1  N   UNL     1       3.151   3.290   7.378  0.00  0.00    -0.184 NA
ATOM      2  C   UNL     1       2.199   3.805   6.662  0.00  0.00    +0.063 C 
ATOM      3  C   UNL     1       0.872   4.131   7.296  0.00  0.00    +0.068 C 
ENDROOT
BRANCH   2   4
ATOM      4  C   UNL     1       2.416   4.072   5.228  0.00  0.00    -0.002 A 
ATOM      5  C   UNL     1       3.646   3.771   4.637  0.00  0.00    +0.011 A 
ATOM      6  C   UNL     1       3.842   4.024   3.295  0.00  0.00    +0.029 A 
ATOM      7  C   UNL     1       2.825   4.573   2.535  0.00  0.00    +0.105 A 
ATOM      8  C   UNL     1       1.606   4.878   3.115  0.00  0.00    +0.029 A 
ATOM      9  C   UNL     1       1.394   4.626   4.455  0.00  0.00    +0.011 A 
BRANCH   7  10
ATOM     10  S   UNL     1       3.084   4.892   0.822  0.00  0.00    +0.059 S 
ATOM     11  O   UNL     1       4.487   5.030   0.642  0.00  0.00    -0.153 OA
ATOM     12  O   UNL     1       2.165   5.911   0.454  0.00  0.00    -0.153 OA
BRANCH  10  13
ATOM     13  N   UNL     1       2.634   3.529  -0.004  0.00  0.00    -0.176 NA
ATOM     14  H   UNL     1       3.297   3.018  -0.495  0.00  0.00    +0.149 HD
BRANCH  13  15
ATOM     15  C   UNL     1       1.235   3.094   0.007  0.00  0.00    +0.186 C 
ATOM     16  C   UNL     1       0.522   3.639  -1.233  0.00  0.00    +0.038 C 
BRANCH  15  17
ATOM     17  C   UNL     1       1.177   1.588  -0.001  0.00  0.00    +0.374 C 
ATOM     18  O   UNL     1       2.199   0.944  -0.014  0.00  0.00    -0.245 OA
ATOM     19  O   UNL     1      -0.011   0.963   0.007  0.00  0.00    -0.245 OA
ENDBRANCH  15  17
ENDBRANCH  13  15
ENDBRANCH  10  13
ENDBRANCH   7  10
ENDBRANCH   2   4
BRANCH   1  22
ATOM     20  C   UNL     1       3.934   2.502   9.483  0.00  0.00    +0.270 C 
ATOM     21  O   UNL     1       5.002   2.240   8.973  0.00  0.00    -0.270 OA
ATOM     22  N   UNL     1       2.945   3.037   8.740  0.00  0.00    -0.204 N 
ATOM     23  H   UNL     1       2.090   3.246   9.148  0.00  0.00    +0.177 HD
BRANCH  20  24
ATOM     24  C   UNL     1       3.712   2.229  10.949  0.00  0.00    +0.326 C 
BRANCH  24  25
ATOM     25  O   UNL     1       4.897   1.667  11.514  0.00  0.00    -0.482 OA
BRANCH  25  31
ATOM     26  C   UNL     1       2.437   1.540  15.727  0.00  0.00    +0.044 C 
ATOM     27  C   UNL     1       3.685   1.284  14.922  0.00  0.00    -0.047 A 
ATOM     28  C   UNL     1       4.799   0.736  15.532  0.00  0.00    +0.004 A 
ATOM     29  C   UNL     1       5.946   0.500  14.796  0.00  0.00    +0.008 A 
ATOM     30  C   UNL     1       5.981   0.810  13.451  0.00  0.00    -0.003 A 
ATOM     31  C   UNL     1       4.865   1.360  12.837  0.00  0.00    +0.125 A 
ATOM     32  C   UNL     1       3.717   1.601  13.579  0.00  0.00    +0.049 A 
BRANCH  30  33
ATOM     33  C   UNL     1       7.231   0.552  12.650  0.00  0.00    +0.016 C 
ATOM     34  C   UNL     1       8.392   1.353  13.244  0.00  0.00    +0.012 C 
ATOM     35  C   UNL     1       7.566  -0.940  12.694  0.00  0.00    +0.012 C 
ENDBRANCH  30  33
ENDBRANCH  25  31
ENDBRANCH  24  25
ENDBRANCH  20  24
ENDBRANCH   1  22
TORSDOF 10
