REMARK  Name = ZINC02341457
REMARK  9 active torsions:
REMARK  status: ('A' for Active; 'I' for Inactive)
REMARK    1  A    between atoms: C_1  and  C_2
REMARK    2  A    between atoms: C_5  and  N_8
REMARK    3  A    between atoms: C_9  and  C_26
REMARK    4  A    between atoms: C_12  and  S_13
REMARK    5  A    between atoms: S_13  and  C_14
REMARK    6  A    between atoms: C_14  and  C_15
REMARK    7  A    between atoms: N_17  and  N_18
REMARK    8  A    between atoms: C_19  and  C_20
REMARK    9  A    between atoms: N_24  and  C_25
REMARK                            x       y       z     vdW  Elec       q    Type
REMARK                         _______ _______ _______ _____ _____    ______ ____
ROOT
ATOM      1  N   UNL     1       2.921   5.851   0.000  0.00  0.00    -0.270 N 
ATOM      2  C   UNL     1       4.299   5.863  -0.009  0.00  0.00    +0.169 A 
ATOM      3  N   UNL     1       4.695   4.611  -0.019  0.00  0.00    -0.128 NA
ATOM      4  N   UNL     1       3.676   3.828  -0.013  0.00  0.00    -0.122 NA
ATOM      5  C   UNL     1       2.565   4.530   0.002  0.00  0.00    +0.197 A 
ENDROOT
BRANCH   1  10
ATOM      6  C   UNL     1      -0.548  10.342   0.030  0.00  0.00    +0.044 C 
ATOM      7  C   UNL     1       0.373   9.149   0.022  0.00  0.00    -0.050 A 
ATOM      8  C   UNL     1       0.402   8.293   1.107  0.00  0.00    +0.005 A 
ATOM      9  C   UNL     1       1.246   7.199   1.103  0.00  0.00    +0.026 A 
ATOM     10  C   UNL     1       2.064   6.960   0.007  0.00  0.00    +0.051 A 
ATOM     11  C   UNL     1       2.036   7.824  -1.079  0.00  0.00    +0.026 A 
ATOM     12  C   UNL     1       1.187   8.914  -1.071  0.00  0.00    +0.005 A 
ENDBRANCH   1  10
BRANCH   2  13
ATOM     13  C   UNL     1       5.167   7.059  -0.011  0.00  0.00    +0.020 A 
ATOM     14  C   UNL     1       4.638   8.310   0.307  0.00  0.00    +0.011 A 
ATOM     15  C   UNL     1       5.455   9.422   0.307  0.00  0.00    +0.001 A 
ATOM     16  C   UNL     1       6.794   9.300  -0.017  0.00  0.00    +0.000 A 
ATOM     17  C   UNL     1       7.324   8.063  -0.339  0.00  0.00    +0.001 A 
ATOM     18  C   UNL     1       6.520   6.943  -0.338  0.00  0.00    +0.011 A 
ENDBRANCH   2  13
BRANCH   5  19
ATOM     19  S   UNL     1       0.924   3.890   0.014  0.00  0.00    -0.076 S 
BRANCH  19  20
ATOM     20  C   UNL     1       1.278   2.115   0.001  0.00  0.00    +0.174 C 
BRANCH  20  21
ATOM     21  C   UNL     1      -0.016   1.344   0.009  0.00  0.00    +0.242 C 
ATOM     22  O   UNL     1      -1.075   1.936   0.018  0.00  0.00    -0.273 OA
ATOM     23  N   UNL     1       0.002  -0.004   0.002  0.00  0.00    -0.206 N 
ATOM     24  H   UNL     1       0.849  -0.478  -0.009  0.00  0.00    +0.177 HD
BRANCH  23  25
ATOM     25  N   UNL     1      -1.202  -0.721   0.010  0.00  0.00    -0.186 NA
ATOM     26  C   UNL     1      -1.184  -2.021   0.003  0.00  0.00    +0.156 C 
BRANCH  26  27
ATOM     27  C   UNL     1      -2.444  -2.772   0.011  0.00  0.00    +0.061 A 
ATOM     28  C   UNL     1      -3.712  -2.233   0.032  0.00  0.00    +0.029 A 
ATOM     29  C   UNL     1      -4.616  -3.305   0.028  0.00  0.00    +0.020 A 
ATOM     30  C   UNL     1      -3.900  -4.451   0.015  0.00  0.00    +0.086 A 
ATOM     31  N   UNL     1      -2.574  -4.140   0.004  0.00  0.00    -0.349 N 
ATOM     32  C   UNL     1      -1.470  -5.104  -0.011  0.00  0.00    +0.149 C 
ENDBRANCH  26  27
ENDBRANCH  23  25
ENDBRANCH  20  21
ENDBRANCH  19  20
ENDBRANCH   5  19
TORSDOF 7
