REMARK  Name = ZINC25753558
REMARK  9 active torsions:
REMARK  status: ('A' for Active; 'I' for Inactive)
REMARK    1  A    between atoms: C_7  and  C_10
REMARK    2  A    between atoms: C_10  and  N_11
REMARK    3  A    between atoms: N_14  and  C_17
REMARK    4  A    between atoms: C_17  and  C_18
REMARK    5  A    between atoms: C_18  and  C_20
REMARK    6  A    between atoms: C_18  and  O_31
REMARK    7  A    between atoms: C_20  and  O_21
REMARK    8  A    between atoms: O_21  and  C_22
REMARK    9  A    between atoms: C_26  and  N_28
REMARK                            x       y       z     vdW  Elec       q    Type
REMARK                         _______ _______ _______ _____ _____    ______ ____
ROOT
ATOM      1  N   UNL     1       2.095  12.275  -0.401  0.00  0.00    +0.384 N 
ATOM      2  C   UNL     1       2.784  11.774   0.796  0.00  0.00    -0.063 C 
ATOM      3  C   UNL     1       3.187  10.314   0.577  0.00  0.00    +0.066 C 
ATOM      4  N   UNL     1       1.988   9.515   0.290  0.00  0.00    -0.303 NA
ATOM      5  C   UNL     1       1.299  10.016  -0.908  0.00  0.00    +0.066 C 
ATOM      6  C   UNL     1       0.895  11.476  -0.688  0.00  0.00    -0.063 C 
ATOM      7  H   UNL     1       2.782  12.175  -1.255  0.00  0.00    -0.081 HD
ENDROOT
BRANCH   1   8
ATOM      8  C   UNL     1       1.758  13.698  -0.259  0.00  0.00    -0.042 C 
BRANCH   8  15
ATOM      9  C   UNL     1      -2.347  13.166  -1.933  0.00  0.00    +0.001 A 
ATOM     10  C   UNL     1      -2.635  13.725  -3.171  0.00  0.00    +0.001 A 
ATOM     11  C   UNL     1      -1.654  14.424  -3.846  0.00  0.00    +0.015 A 
ATOM     12  C   UNL     1      -0.403  14.556  -3.281  0.00  0.00    +0.020 A 
ATOM     13  C   UNL     1      -0.085  13.998  -2.024  0.00  0.00    -0.009 A 
ATOM     14  C   UNL     1      -1.118  13.290  -1.365  0.00  0.00    +0.009 A 
ATOM     15  C   UNL     1       1.281  14.236  -1.583  0.00  0.00    -0.049 A 
ATOM     16  C   UNL     1       2.109  14.944  -2.364  0.00  0.00    +0.048 A 
ATOM     17  S   UNL     1       1.105  15.345  -3.781  0.00  0.00    -0.096 S 
ENDBRANCH   8  15
ENDBRANCH   1   8
BRANCH   4  18
ATOM     18  C   UNL     1       2.324   8.092   0.147  0.00  0.00    +0.119 C 
BRANCH  18  19
ATOM     19  C   UNL     1       2.577   7.487   1.529  0.00  0.00    +0.166 C 
BRANCH  19  20
ATOM     20  O   UNL     1       1.396   7.609   2.326  0.00  0.00    -0.387 OA
ATOM     21  H   UNL     1       1.387   7.228   3.357  0.00  0.00    +0.210 HD
ENDBRANCH  19  20
BRANCH  19  22
ATOM     22  C   UNL     1       2.940   6.008   1.380  0.00  0.00    +0.261 C 
BRANCH  22  23
ATOM     23  O   UNL     1       3.289   5.472   2.658  0.00  0.00    -0.489 OA
BRANCH  23  24
ATOM     24  C   UNL     1       3.640   4.160   2.701  0.00  0.00    +0.123 A 
ATOM     25  C   UNL     1       3.649   3.404   1.538  0.00  0.00    +0.046 A 
ATOM     26  C   UNL     1       4.006   2.071   1.584  0.00  0.00    +0.006 A 
ATOM     27  C   UNL     1       4.354   1.489   2.789  0.00  0.00    +0.033 A 
ATOM     28  C   UNL     1       4.341   2.238   3.951  0.00  0.00    +0.130 A 
ATOM     29  C   UNL     1       3.990   3.574   3.909  0.00  0.00    +0.078 A 
BRANCH  28  30
ATOM     30  N   UNL     1       4.708   1.611   5.240  0.00  0.00    +0.057 N 
ATOM     31  O   UNL     1       5.022   0.434   5.277  0.00  0.00    -0.126 OA
ATOM     32  O   UNL     1       4.697   2.271   6.264  0.00  0.00    -0.126 OA
ENDBRANCH  28  30
ENDBRANCH  23  24
ENDBRANCH  22  23
ENDBRANCH  19  22
ENDBRANCH  18  19
ENDBRANCH   4  18
TORSDOF 9
