REMARK  Name = ZINC35100223
REMARK  11 active torsions:
REMARK  status: ('A' for Active; 'I' for Inactive)
REMARK    1  A    between atoms: C_1  and  C_2
REMARK    2  A    between atoms: C_2  and  C_3
REMARK    3  A    between atoms: N_5  and  C_6
REMARK    4  A    between atoms: N_5  and  C_25
REMARK    5  A    between atoms: C_6  and  C_7
REMARK    6  A    between atoms: C_7  and  N_8
REMARK    7  A    between atoms: N_11  and  S_14
REMARK    8  A    between atoms: S_14  and  C_17
REMARK    9  A    between atoms: C_25  and  C_26
REMARK   10  A    between atoms: C_34  and  C_35
REMARK   11  A    between atoms: C_34  and  C_36
REMARK                            x       y       z     vdW  Elec       q    Type
REMARK                         _______ _______ _______ _____ _____    ______ ____
ROOT
ATOM      1  C   UNL     1      -4.079  -2.616  -1.505  0.00  0.00    +0.103 C 
ENDROOT
BRANCH   1   2
ATOM      2  N   UNL     1      -5.505  -2.910  -1.695  0.00  0.00    -0.298 NA
ATOM      3  C   UNL     1      -6.329  -2.164  -0.734  0.00  0.00    +0.101 C 
ATOM      4  C   UNL     1      -7.784  -2.631  -0.843  0.00  0.00    +0.125 C 
ATOM      5  N   UNL     1      -8.209  -2.518  -2.246  0.00  0.00    -0.174 NA
ATOM      6  C   UNL     1      -7.358  -3.125  -3.281  0.00  0.00    +0.125 C 
ATOM      7  C   UNL     1      -5.920  -2.638  -3.077  0.00  0.00    +0.101 C 
BRANCH   5   8
ATOM      8  S   UNL     1      -9.607  -1.728  -2.650  0.00  0.00    +0.062 S 
ATOM      9  O   UNL     1     -10.109  -2.362  -3.819  0.00  0.00    -0.153 OA
ATOM     10  O   UNL     1     -10.369  -1.615  -1.457  0.00  0.00    -0.153 OA
BRANCH   8  11
ATOM     11  C   UNL     1      -9.162  -0.088  -3.119  0.00  0.00    +0.125 A 
ATOM     12  C   UNL     1      -9.311   0.320  -4.432  0.00  0.00    +0.050 A 
ATOM     13  C   UNL     1      -8.962   1.606  -4.800  0.00  0.00    +0.043 A 
ATOM     14  C   UNL     1      -8.463   2.485  -3.855  0.00  0.00    +0.021 A 
ATOM     15  C   UNL     1      -8.314   2.077  -2.543  0.00  0.00    +0.023 A 
ATOM     16  C   UNL     1      -8.668   0.792  -2.173  0.00  0.00    +0.067 A 
ATOM     17 CL   UNL     1      -8.488   0.282  -0.524  0.00  0.00    -0.082 Cl
ATOM     18 CL   UNL     1      -9.149   2.119  -6.448  0.00  0.00    -0.083 Cl
ENDBRANCH   8  11
ENDBRANCH   5   8
ENDBRANCH   1   2
BRANCH   1  19
ATOM     19  C   UNL     1      -3.627  -3.141  -0.141  0.00  0.00    +0.123 C 
BRANCH  19  22
ATOM     20  C   UNL     1      -1.825  -1.688   0.621  0.00  0.00    +0.216 C 
ATOM     21  O   UNL     1      -2.661  -0.931   1.067  0.00  0.00    -0.276 OA
ATOM     22  N   UNL     1      -2.204  -2.848   0.049  0.00  0.00    -0.296 N 
BRANCH  20  24
ATOM     23  C   UNL     1      -0.198  -0.053   1.530  0.00  0.00    +0.013 C 
ATOM     24  C   UNL     1      -0.363  -1.333   0.708  0.00  0.00    +0.092 C 
ENDBRANCH  20  24
BRANCH  22  25
ATOM     25  C   UNL     1      -1.193  -3.816  -0.385  0.00  0.00    +0.138 C 
BRANCH  25  26
ATOM     26  C   UNL     1      -0.815  -3.540  -1.817  0.00  0.00    -0.053 C 
ATOM     27  C   UNL     1       0.224  -2.794  -2.117  0.00  0.00    -0.025 C 
ATOM     28  C   UNL     1       0.574  -2.549  -3.565  0.00  0.00    +0.031 C 
ATOM     29  C   UNL     1      -0.476  -3.209  -4.469  0.00  0.00    -0.000 C 
ATOM     30  C   UNL     1      -1.917  -2.953  -3.996  0.00  0.00    +0.012 C 
ATOM     31  C   UNL     1      -1.617  -4.118  -2.970  0.00  0.00    +0.022 C 
ATOM     32  C   UNL     1      -0.700  -4.681  -4.066  0.00  0.00    -0.025 C 
ATOM     33  C   UNL     1       0.553  -5.372  -3.525  0.00  0.00    +0.012 C 
ATOM     34  C   UNL     1      -1.434  -5.508  -5.124  0.00  0.00    +0.012 C 
ENDBRANCH  25  26
ENDBRANCH  22  25
ENDBRANCH  19  22
ENDBRANCH   1  19
TORSDOF 8
