REMARK  Name = ZINC18144418
REMARK  10 active torsions:
REMARK  status: ('A' for Active; 'I' for Inactive)
REMARK    1  A    between atoms: C_1  and  O_2
REMARK    2  A    between atoms: O_2  and  C_3
REMARK    3  A    between atoms: N_10  and  C_11
REMARK    4  A    between atoms: C_11  and  C_12
REMARK    5  A    between atoms: C_12  and  C_13
REMARK    6  A    between atoms: C_20  and  C_22
REMARK    7  A    between atoms: C_25  and  O_30
REMARK    8  A    between atoms: C_26  and  O_28
REMARK    9  A    between atoms: O_28  and  C_29
REMARK   10  A    between atoms: O_30  and  C_31
REMARK                            x       y       z     vdW  Elec       q    Type
REMARK                         _______ _______ _______ _____ _____    ______ ____
ROOT
ATOM      1  C   UNL     1      -1.212  -9.076   0.560  0.00  0.00    +0.121 A 
ATOM      2  C   UNL     1      -2.400  -8.355   0.511  0.00  0.00    +0.049 A 
ATOM      3  C   UNL     1      -2.388  -6.997   0.270  0.00  0.00    +0.050 A 
ATOM      4  C   UNL     1      -1.182  -6.338   0.074  0.00  0.00    +0.138 A 
ATOM      5  C   UNL     1       0.016  -7.064   0.123  0.00  0.00    +0.044 A 
ATOM      6  C   UNL     1      -0.002  -8.433   0.365  0.00  0.00    +0.059 A 
ATOM      7  C   UNL     1       1.290  -6.337  -0.090  0.00  0.00    +0.050 A 
ATOM      8  N   UNL     1       2.447  -6.960  -0.057  0.00  0.00    -0.383 N 
ATOM      9  C   UNL     1       1.209  -4.936  -0.332  0.00  0.00    +0.072 A 
ATOM     10  C   UNL     1      -0.006  -4.334  -0.358  0.00  0.00    +0.138 A 
ATOM     11  O   UNL     1      -1.152  -5.007  -0.158  0.00  0.00    -0.455 OA
ATOM     12  H   UNL     1       3.319  -6.528  -0.570  0.00  0.00    +0.160 HD
ENDROOT
BRANCH  10  13
ATOM     13  C   UNL     1      -0.071  -2.881  -0.610  0.00  0.00    +0.021 A 
ATOM     14  C   UNL     1       1.103  -2.153  -0.817  0.00  0.00    +0.015 A 
ATOM     15  C   UNL     1       1.040  -0.796  -1.053  0.00  0.00    +0.050 A 
ATOM     16  C   UNL     1      -0.188  -0.151  -1.086  0.00  0.00    +0.162 A 
ATOM     17  C   UNL     1      -1.363  -0.870  -0.875  0.00  0.00    +0.162 A 
ATOM     18  C   UNL     1      -1.308  -2.232  -0.644  0.00  0.00    +0.061 A 
BRANCH  17  19
ATOM     19  O   UNL     1      -2.564  -0.234  -0.902  0.00  0.00    -0.491 OA
ATOM     20  C   UNL     1      -3.727  -1.033  -0.679  0.00  0.00    +0.277 C 
ENDBRANCH  17  19
BRANCH  16  21
ATOM     21  O   UNL     1      -0.245   1.187  -1.318  0.00  0.00    -0.491 OA
ATOM     22  C   UNL     1       0.998   1.863  -1.519  0.00  0.00    +0.277 C 
ENDBRANCH  16  21
ENDBRANCH  10  13
BRANCH   1  24
ATOM     23  C   UNL     1      -2.522 -11.013   0.989  0.00  0.00    +0.277 C 
ATOM     24  O   UNL     1      -1.239 -10.414   0.798  0.00  0.00    -0.495 OA
ENDBRANCH   1  24
BRANCH   8  25
ATOM     25  C   UNL     1       2.575  -8.229   0.663  0.00  0.00    +0.117 C 
BRANCH  25  26
ATOM     26  C   UNL     1       3.987  -8.348   1.241  0.00  0.00    +0.056 C 
BRANCH  26  27
ATOM     27  C   UNL     1       4.119  -9.653   1.982  0.00  0.00    -0.046 A 
ATOM     28  C   UNL     1       3.818  -9.717   3.329  0.00  0.00    +0.004 A 
ATOM     29  C   UNL     1       3.935 -10.916   4.008  0.00  0.00    +0.000 A 
ATOM     30  C   UNL     1       4.361 -12.049   3.340  0.00  0.00    +0.000 A 
ATOM     31  C   UNL     1       4.667 -11.984   1.994  0.00  0.00    +0.000 A 
ATOM     32  C   UNL     1       4.546 -10.786   1.315  0.00  0.00    +0.004 A 
ENDBRANCH  26  27
ENDBRANCH  25  26
ENDBRANCH   8  25
TORSDOF 7
