REMARK  Name = ZINC38902525
REMARK  14 active torsions:
REMARK  status: ('A' for Active; 'I' for Inactive)
REMARK    1  A    between atoms: C_1  and  C_2
REMARK    2  A    between atoms: C_6  and  C_8
REMARK    3  A    between atoms: C_8  and  S_9
REMARK    4  A    between atoms: S_9  and  C_10
REMARK    5  A    between atoms: C_10  and  C_11
REMARK    6  A    between atoms: C_11  and  N_12
REMARK    7  A    between atoms: C_13  and  C_15
REMARK    8  A    between atoms: N_20  and  C_22
REMARK    9  A    between atoms: C_22  and  C_23
REMARK   10  A    between atoms: C_25  and  C_28
REMARK   11  A    between atoms: C_31  and  C_34
REMARK   12  A    between atoms: C_34  and  C_35
REMARK   13  A    between atoms: C_34  and  C_36
REMARK   14  A    between atoms: C_34  and  C_37
REMARK                            x       y       z     vdW  Elec       q    Type
REMARK                         _______ _______ _______ _____ _____    ______ ____
ROOT
ATOM      1  C   UNL     1       3.867  -6.226   8.336  0.00  0.00    +0.058 C 
ATOM      2  C   UNL     1       3.117  -7.538   8.089  0.00  0.00    +0.009 C 
ATOM      3  C   UNL     1       3.062  -8.337   9.394  0.00  0.00    -0.018 C 
ATOM      4  C   UNL     1       4.486  -8.570   9.904  0.00  0.00    -0.078 C 
ATOM      5  N   UNL     1       5.140  -7.278  10.146  0.00  0.00    +0.386 N 
ATOM      6  C   UNL     1       5.261  -6.536   8.886  0.00  0.00    -0.065 C 
ATOM      7  H   UNL     1       4.589  -6.741  10.800  0.00  0.00    -0.081 HD
ENDROOT
BRANCH   1   9
ATOM      8  N   UNL     1       2.888  -5.086   6.371  0.00  0.00    -0.314 N 
ATOM      9  C   UNL     1       3.994  -5.467   7.040  0.00  0.00    +0.214 C 
ATOM     10  O   UNL     1       5.092  -5.199   6.600  0.00  0.00    -0.276 OA
ATOM     11  H   UNL     1       2.010  -5.301   6.723  0.00  0.00    +0.149 HD
BRANCH   8  12
ATOM     12  C   UNL     1       3.011  -4.349   5.111  0.00  0.00    +0.115 C 
BRANCH  12  13
ATOM     13  C   UNL     1       1.617  -4.041   4.561  0.00  0.00    +0.088 C 
BRANCH  13  14
ATOM     14  S   UNL     1       1.770  -3.127   3.002  0.00  0.00    -0.155 S 
BRANCH  14  15
ATOM     15  C   UNL     1       0.054  -2.845   2.489  0.00  0.00    +0.104 C 
BRANCH  15  21
ATOM     16  C   UNL     1      -0.018   1.503   0.010  0.00  0.00    +0.044 C 
ATOM     17  C   UNL     1       0.002  -0.004   0.002  0.00  0.00    -0.050 A 
ATOM     18  C   UNL     1       0.006  -0.689  -1.199  0.00  0.00    +0.003 A 
ATOM     19  C   UNL     1       0.025  -2.071  -1.207  0.00  0.00    +0.001 A 
ATOM     20  C   UNL     1       0.040  -2.768  -0.013  0.00  0.00    +0.004 A 
ATOM     21  C   UNL     1       0.037  -2.084   1.188  0.00  0.00    -0.037 A 
ATOM     22  C   UNL     1       0.023  -0.702   1.195  0.00  0.00    +0.007 A 
ENDBRANCH  15  21
ENDBRANCH  14  15
ENDBRANCH  13  14
ENDBRANCH  12  13
ENDBRANCH   8  12
ENDBRANCH   1   9
BRANCH   5  23
ATOM     23  C   UNL     1       6.477  -7.506  10.709  0.00  0.00    +0.022 C 
BRANCH  23  24
ATOM     24  C   UNL     1       6.349  -8.150  12.065  0.00  0.00    +0.211 A 
ATOM     25  N   UNL     1       6.316  -9.431  12.300  0.00  0.00    -0.193 NA
ATOM     26  C   UNL     1       6.195  -9.653  13.621  0.00  0.00    +0.202 A 
ATOM     27  N   UNL     1       6.150  -8.499  14.238  0.00  0.00    -0.056 NA
ATOM     28  O   UNL     1       6.255  -7.501  13.233  0.00  0.00    -0.340 OA
BRANCH  26  29
ATOM     29  C   UNL     1       6.123 -10.986  14.271  0.00  0.00    +0.022 A 
ATOM     30  C   UNL     1       6.186 -12.144  13.500  0.00  0.00    +0.012 A 
ATOM     31  C   UNL     1       6.119 -13.381  14.110  0.00  0.00    +0.005 A 
ATOM     32  C   UNL     1       5.988 -13.471  15.484  0.00  0.00    -0.042 A 
ATOM     33  C   UNL     1       5.925 -12.324  16.255  0.00  0.00    +0.005 A 
ATOM     34  C   UNL     1       5.997 -11.082  15.656  0.00  0.00    +0.012 A 
BRANCH  32  35
ATOM     35  C   UNL     1       5.914 -14.824  16.144  0.00  0.00    -0.013 C 
ATOM     36  C   UNL     1       7.191 -15.610  15.840  0.00  0.00    +0.015 C 
ATOM     37  C   UNL     1       5.773 -14.646  17.657  0.00  0.00    +0.015 C 
ATOM     38  C   UNL     1       4.704 -15.588  15.605  0.00  0.00    +0.015 C 
ENDBRANCH  32  35
ENDBRANCH  26  29
ENDBRANCH  23  24
ENDBRANCH   5  23
TORSDOF 10
