REMARK  Name = ZINC20857170
REMARK  9 active torsions:
REMARK  status: ('A' for Active; 'I' for Inactive)
REMARK    1  A    between atoms: C_4  and  S_7
REMARK    2  A    between atoms: S_7  and  C_8
REMARK    3  A    between atoms: C_13  and  N_14
REMARK    4  A    between atoms: C_15  and  C_17
REMARK    5  A    between atoms: C_17  and  O_18
REMARK    6  A    between atoms: O_18  and  C_19
REMARK    7  A    between atoms: C_19  and  C_21
REMARK    8  A    between atoms: C_23  and  N_33
REMARK    9  A    between atoms: C_26  and  N_27
REMARK                            x       y       z     vdW  Elec       q    Type
REMARK                         _______ _______ _______ _____ _____    ______ ____
ROOT
ATOM      1  C   UNL     1      -2.055  -1.197   3.893  0.00  0.00    +0.328 C 
ENDROOT
BRANCH   1   3
ATOM      2  N   UNL     1      -3.205  -3.236   4.691  0.00  0.00    -0.282 N 
ATOM      3  C   UNL     1      -3.031  -1.903   4.797  0.00  0.00    +0.255 C 
ATOM      4  O   UNL     1      -3.661  -1.274   5.621  0.00  0.00    -0.272 OA
ATOM      5  H   UNL     1      -2.596  -3.815   3.981  0.00  0.00    +0.155 HD
BRANCH   2  11
ATOM      6  C   UNL     1      -4.498  -5.213   5.229  0.00  0.00    +0.034 A 
ATOM      7  C   UNL     1      -5.444  -5.849   6.022  0.00  0.00    +0.017 A 
ATOM      8  C   UNL     1      -6.057  -5.162   7.052  0.00  0.00    +0.001 A 
ATOM      9  C   UNL     1      -5.727  -3.841   7.301  0.00  0.00    +0.002 A 
ATOM     10  C   UNL     1      -4.782  -3.201   6.520  0.00  0.00    +0.024 A 
ATOM     11  C   UNL     1      -4.162  -3.883   5.484  0.00  0.00    +0.047 A 
BRANCH   6  12
ATOM     12  S   UNL     1      -3.721  -6.084   3.910  0.00  0.00    -0.088 S 
BRANCH  12  16
ATOM     13  C   UNL     1      -5.878  -4.617   0.207  0.00  0.00    +0.000 A 
ATOM     14  C   UNL     1      -4.923  -5.612   0.101  0.00  0.00    +0.001 A 
ATOM     15  C   UNL     1      -4.263  -6.061   1.227  0.00  0.00    +0.015 A 
ATOM     16  C   UNL     1      -4.560  -5.513   2.469  0.00  0.00    +0.013 A 
ATOM     17  C   UNL     1      -5.525  -4.518   2.573  0.00  0.00    +0.015 A 
ATOM     18  C   UNL     1      -6.176  -4.069   1.442  0.00  0.00    +0.001 A 
ENDBRANCH  12  16
ENDBRANCH   6  12
ENDBRANCH   2  11
ENDBRANCH   1   3
BRANCH   1  19
ATOM     19  O   UNL     1      -2.049   0.222   4.202  0.00  0.00    -0.452 OA
BRANCH  19  20
ATOM     20  C   UNL     1      -1.223   1.003   3.477  0.00  0.00    +0.342 C 
ATOM     21  O   UNL     1      -0.527   0.511   2.611  0.00  0.00    -0.245 OA
BRANCH  20  22
ATOM     22  C   UNL     1      -1.165   2.452   3.735  0.00  0.00    +0.082 A 
ATOM     23  C   UNL     1      -1.879   3.006   4.801  0.00  0.00    +0.049 A 
ATOM     24  C   UNL     1      -1.825   4.362   5.033  0.00  0.00    +0.127 A 
ATOM     25  C   UNL     1      -1.060   5.183   4.218  0.00  0.00    +0.034 A 
ATOM     26  C   UNL     1      -0.344   4.650   3.166  0.00  0.00    +0.026 A 
ATOM     27  C   UNL     1      -0.386   3.284   2.915  0.00  0.00    +0.044 A 
BRANCH  27  28
ATOM     28  N   UNL     1       0.332   2.747   1.856  0.00  0.00    -0.325 N 
ATOM     29  C   UNL     1      -0.095   3.334   0.577  0.00  0.00    +0.133 C 
ATOM     30  C   UNL     1       0.679   2.672  -0.566  0.00  0.00    +0.178 C 
ATOM     31  O   UNL     1       2.083   2.829  -0.339  0.00  0.00    -0.377 OA
ATOM     32  C   UNL     1       2.532   2.267   0.897  0.00  0.00    +0.178 C 
ATOM     33  C   UNL     1       1.778   2.925   2.055  0.00  0.00    +0.133 C 
ENDBRANCH  27  28
BRANCH  24  34
ATOM     34  N   UNL     1      -2.587   4.948   6.158  0.00  0.00    +0.056 N 
ATOM     35  O   UNL     1      -2.542   6.147   6.366  0.00  0.00    -0.126 OA
ATOM     36  O   UNL     1      -3.261   4.231   6.876  0.00  0.00    -0.126 OA
ENDBRANCH  24  34
ENDBRANCH  20  22
ENDBRANCH  19  20
ENDBRANCH   1  19
TORSDOF 9
