REMARK  Name = ZINC08789736
REMARK  5 active torsions:
REMARK  status: ('A' for Active; 'I' for Inactive)
REMARK    1  A    between atoms: C_1  and  C_2
REMARK    2  A    between atoms: C_13  and  C_29
REMARK    3  A    between atoms: N_19  and  C_22
REMARK    4  A    between atoms: C_34  and  O_35
REMARK    5  A    between atoms: O_35  and  C_36
REMARK                            x       y       z     vdW  Elec       q    Type
REMARK                         _______ _______ _______ _____ _____    ______ ____
ROOT
ATOM      1  C   UNL     1       2.918   6.924   1.374  0.00  0.00    +0.048 C 
ATOM      2  C   UNL     1       2.211   6.679   0.039  0.00  0.00    +0.153 C 
ATOM      3  C   UNL     1       1.480   5.358   0.011  0.00  0.00    +0.054 A 
ATOM      4  C   UNL     1       0.131   5.263   0.027  0.00  0.00    -0.008 A 
ATOM      5  C   UNL     1      -0.183   3.845   0.008  0.00  0.00    +0.004 A 
ATOM      6  C   UNL     1      -1.395   3.148   0.018  0.00  0.00    +0.010 A 
ATOM      7  C   UNL     1      -1.323   1.777  -0.011  0.00  0.00    +0.001 A 
ATOM      8  C   UNL     1      -0.111   1.105  -0.036  0.00  0.00    +0.002 A 
ATOM      9  C   UNL     1       1.103   1.770  -0.047  0.00  0.00    +0.026 A 
ATOM     10  C   UNL     1       1.059   3.163  -0.025  0.00  0.00    +0.047 A 
ATOM     11  N   UNL     1       2.042   4.110  -0.028  0.00  0.00    -0.356 N 
ATOM     12  H   UNL     1       2.994   3.927  -0.053  0.00  0.00    +0.166 HD
ATOM     13  C   UNL     1      -0.846   6.410   0.044  0.00  0.00    +0.072 C 
ATOM     14  C   UNL     1      -0.126   7.716   0.414  0.00  0.00    +0.123 C 
ATOM     15  N   UNL     1       1.180   7.707  -0.246  0.00  0.00    -0.265 N 
ATOM     16  C   UNL     1       1.684   8.495  -1.196  0.00  0.00    +0.317 C 
ATOM     17  O   UNL     1       1.216   9.572  -1.508  0.00  0.00    -0.252 OA
ATOM     18  N   UNL     1       2.772   7.951  -1.767  0.00  0.00    -0.192 N 
ATOM     19  C   UNL     1       3.151   6.819  -1.134  0.00  0.00    +0.257 C 
ATOM     20  O   UNL     1       4.057   6.074  -1.442  0.00  0.00    -0.272 OA
ENDROOT
BRANCH  18  21
ATOM     21  C   UNL     1       3.430   8.491  -2.881  0.00  0.00    +0.047 A 
ATOM     22  C   UNL     1       4.621   7.930  -3.323  0.00  0.00    +0.024 A 
ATOM     23  C   UNL     1       5.268   8.463  -4.421  0.00  0.00    +0.003 A 
ATOM     24  C   UNL     1       4.731   9.554  -5.080  0.00  0.00    +0.020 A 
ATOM     25  C   UNL     1       3.545  10.115  -4.641  0.00  0.00    +0.043 A 
ATOM     26  C   UNL     1       2.891   9.582  -3.546  0.00  0.00    +0.044 A 
ATOM     27 CL   UNL     1       2.874  11.484  -5.472  0.00  0.00    -0.083 Cl
ENDBRANCH  18  21
BRANCH  13  28
ATOM     28  C   UNL     1      -1.924   6.133   1.059  0.00  0.00    +0.003 A 
ATOM     29  C   UNL     1      -1.592   5.956   2.389  0.00  0.00    +0.008 A 
ATOM     30  C   UNL     1      -2.581   5.703   3.321  0.00  0.00    +0.001 A 
ATOM     31  C   UNL     1      -3.904   5.626   2.926  0.00  0.00    +0.004 A 
ATOM     32  C   UNL     1      -4.241   5.803   1.598  0.00  0.00    +0.046 A 
ATOM     33  C   UNL     1      -3.251   6.062   0.661  0.00  0.00    +0.124 A 
BRANCH  33  34
ATOM     34  O   UNL     1      -3.580   6.242  -0.645  0.00  0.00    -0.495 OA
ATOM     35  C   UNL     1      -4.966   6.154  -0.983  0.00  0.00    +0.277 C 
ENDBRANCH  33  34
ENDBRANCH  13  28
TORSDOF 3
