REMARK  Name = ZINC38659434
REMARK  12 active torsions:
REMARK  status: ('A' for Active; 'I' for Inactive)
REMARK    1  A    between atoms: C_1  and  C_2
REMARK    2  A    between atoms: C_2  and  O_3
REMARK    3  A    between atoms: O_3  and  C_4
REMARK    4  A    between atoms: C_7  and  C_12
REMARK    5  A    between atoms: C_9  and  O_10
REMARK    6  A    between atoms: O_10  and  C_11
REMARK    7  A    between atoms: C_17  and  O_26
REMARK    8  A    between atoms: C_21  and  N_25
REMARK    9  A    between atoms: C_22  and  C_23
REMARK   10  A    between atoms: O_26  and  C_27
REMARK   11  A    between atoms: C_27  and  C_29
REMARK   12  A    between atoms: C_33  and  C_35
REMARK                            x       y       z     vdW  Elec       q    Type
REMARK                         _______ _______ _______ _____ _____    ______ ____
ROOT
ATOM      1  C   UNL     1       1.189  -6.019   1.769  0.00  0.00    +0.098 C 
ATOM      2  C   UNL     1       1.931  -6.599   0.595  0.00  0.00    +0.008 A 
ATOM      3  C   UNL     1       3.293  -6.384   0.476  0.00  0.00    +0.012 A 
ATOM      4  C   UNL     1       3.990  -6.909  -0.594  0.00  0.00    +0.047 A 
ATOM      5  C   UNL     1       3.324  -7.655  -1.556  0.00  0.00    +0.135 A 
ATOM      6  C   UNL     1       1.961  -7.873  -1.441  0.00  0.00    +0.093 A 
ATOM      7  C   UNL     1       1.262  -7.344  -0.364  0.00  0.00    +0.138 A 
ATOM      8  O   UNL     1      -0.072  -7.566  -0.265  0.00  0.00    -0.441 OA
ATOM      9  C   UNL     1      -0.691  -7.415   0.918  0.00  0.00    +0.199 C 
ATOM     10  C   UNL     1      -0.145  -6.693   1.921  0.00  0.00    +0.098 C 
ENDROOT
BRANCH   1  14
ATOM     11  C   UNL     1       0.594  -1.831   1.136  0.00  0.00    +0.162 A 
ATOM     12  C   UNL     1       0.067  -2.752   0.244  0.00  0.00    +0.050 A 
ATOM     13  C   UNL     1       0.261  -4.105   0.452  0.00  0.00    +0.008 A 
ATOM     14  C   UNL     1       0.981  -4.543   1.548  0.00  0.00    -0.031 A 
ATOM     15  C   UNL     1       1.509  -3.630   2.442  0.00  0.00    +0.054 A 
ATOM     16  C   UNL     1       1.323  -2.272   2.236  0.00  0.00    +0.162 A 
BRANCH  16  17
ATOM     17  O   UNL     1       1.847  -1.373   3.111  0.00  0.00    -0.491 OA
ATOM     18  C   UNL     1       2.584  -1.897   4.218  0.00  0.00    +0.277 C 
ENDBRANCH  16  17
BRANCH  11  19
ATOM     19  O   UNL     1       0.404  -0.500   0.934  0.00  0.00    -0.489 OA
BRANCH  19  21
ATOM     20  C   UNL     1      -0.462   1.404  -0.277  0.00  0.00    +0.048 C 
ATOM     21  C   UNL     1      -0.355  -0.121  -0.216  0.00  0.00    +0.226 C 
ENDBRANCH  19  21
ENDBRANCH  11  19
ENDBRANCH   1  14
BRANCH   9  22
ATOM     22  N   UNL     1      -1.912  -8.010   1.112  0.00  0.00    -0.328 N 
ATOM     23  H   UNL     1      -2.317  -8.530   0.400  0.00  0.00    +0.145 HD
ATOM     24  H   UNL     1      -2.372  -7.910   1.961  0.00  0.00    +0.145 HD
ENDBRANCH   9  22
BRANCH  10  25
ATOM     25  C   UNL     1      -0.857  -6.570   3.158  0.00  0.00    +0.101 C 
ATOM     26  N   UNL     1      -1.421  -6.472   4.139  0.00  0.00    -0.191 NA
ENDBRANCH  10  25
BRANCH   5  27
ATOM     27  O   UNL     1       4.009  -8.172  -2.611  0.00  0.00    -0.422 OA
BRANCH  27  28
ATOM     28  C   UNL     1       4.881  -9.171  -2.371  0.00  0.00    +0.344 C 
ATOM     29  O   UNL     1       4.960  -9.653  -1.259  0.00  0.00    -0.245 OA
BRANCH  28  30
ATOM     30  C   UNL     1       5.740  -9.678  -3.459  0.00  0.00    +0.060 A 
ATOM     31  C   UNL     1       5.655  -9.122  -4.737  0.00  0.00    +0.015 A 
ATOM     32  C   UNL     1       6.461  -9.601  -5.749  0.00  0.00    +0.001 A 
ATOM     33  C   UNL     1       7.351 -10.630  -5.501  0.00  0.00    +0.003 A 
ATOM     34  C   UNL     1       7.441 -11.186  -4.237  0.00  0.00    -0.050 A 
ATOM     35  C   UNL     1       6.645 -10.713  -3.214  0.00  0.00    +0.018 A 
ATOM     36  C   UNL     1       8.413 -12.307  -3.975  0.00  0.00    +0.044 C 
ENDBRANCH  28  30
ENDBRANCH  27  28
ENDBRANCH   5  27
TORSDOF 9
