REMARK  Name = ZINC40096324
REMARK  13 active torsions:
REMARK  status: ('A' for Active; 'I' for Inactive)
REMARK    1  A    between atoms: C_1  and  C_2
REMARK    2  A    between atoms: C_2  and  O_3
REMARK    3  A    between atoms: O_3  and  C_4
REMARK    4  A    between atoms: C_6  and  C_11
REMARK    5  A    between atoms: C_9  and  O_10
REMARK    6  A    between atoms: C_13  and  C_25
REMARK    7  A    between atoms: N_17  and  C_18
REMARK    8  A    between atoms: C_18  and  C_19
REMARK    9  A    between atoms: C_19  and  O_20
REMARK   10  A    between atoms: O_20  and  C_21
REMARK   11  A    between atoms: C_21  and  C_22
REMARK   12  A    between atoms: C_22  and  O_23
REMARK   13  A    between atoms: C_25  and  C_27
REMARK                            x       y       z     vdW  Elec       q    Type
REMARK                         _______ _______ _______ _____ _____    ______ ____
ROOT
ATOM      1  C   UNL     1      -0.353  -4.927  -0.373  0.00  0.00    +0.145 C 
ATOM      2  C   UNL     1       0.713  -5.673  -1.141  0.00  0.00    +0.076 C 
ATOM      3  C   UNL     1       0.492  -6.992  -0.936  0.00  0.00    +0.249 C 
ATOM      4  C   UNL     1      -0.685  -7.156  -0.057  0.00  0.00    +0.288 C 
ATOM      5  O   UNL     1      -1.136  -8.222   0.312  0.00  0.00    -0.266 OA
ATOM      6  N   UNL     1      -1.183  -5.949   0.274  0.00  0.00    -0.281 N 
ATOM      7  O   UNL     1       1.230  -8.001  -1.454  0.00  0.00    -0.282 OA
ENDROOT
BRANCH   1  10
ATOM      8  C   UNL     1       0.881  -1.853   1.444  0.00  0.00    +0.162 A 
ATOM      9  C   UNL     1       0.297  -2.670   0.489  0.00  0.00    +0.055 A 
ATOM     10  C   UNL     1       0.283  -4.041   0.667  0.00  0.00    -0.019 A 
ATOM     11  C   UNL     1       0.849  -4.600   1.797  0.00  0.00    +0.009 A 
ATOM     12  C   UNL     1       1.433  -3.791   2.754  0.00  0.00    +0.049 A 
ATOM     13  C   UNL     1       1.456  -2.417   2.579  0.00  0.00    +0.158 A 
BRANCH  13  14
ATOM     14  O   UNL     1       2.035  -1.620   3.517  0.00  0.00    -0.503 OA
ATOM     15  H   UNL     1       1.430  -1.326   4.211  0.00  0.00    +0.292 HD
ENDBRANCH  13  14
BRANCH   8  16
ATOM     16  O   UNL     1       0.896  -0.505   1.270  0.00  0.00    -0.489 OA
BRANCH  16  18
ATOM     17  C   UNL     1       0.217   1.541   0.178  0.00  0.00    +0.048 C 
ATOM     18  C   UNL     1       0.192   0.012   0.140  0.00  0.00    +0.226 C 
ENDBRANCH  16  18
ENDBRANCH   8  16
ENDBRANCH   1  10
BRANCH   2  19
ATOM     19  C   UNL     1       1.781  -5.081  -1.954  0.00  0.00    +0.195 C 
ATOM     20  O   UNL     1       2.942  -5.192  -1.606  0.00  0.00    -0.287 OA
BRANCH  19  21
ATOM     21  C   UNL     1       1.448  -4.352  -3.193  0.00  0.00    +0.026 A 
ATOM     22  C   UNL     1       0.112  -4.146  -3.547  0.00  0.00    +0.015 A 
ATOM     23  C   UNL     1      -0.196  -3.466  -4.704  0.00  0.00    +0.050 A 
ATOM     24  C   UNL     1       0.818  -2.981  -5.523  0.00  0.00    +0.162 A 
ATOM     25  C   UNL     1       2.152  -3.181  -5.174  0.00  0.00    +0.163 A 
ATOM     26  C   UNL     1       2.468  -3.860  -4.012  0.00  0.00    +0.061 A 
ATOM     27  O   UNL     1       3.156  -2.706  -5.962  0.00  0.00    -0.485 OA
ATOM     28  C   UNL     1       2.808  -2.350  -7.304  0.00  0.00    +0.270 C 
ATOM     29  C   UNL     1       1.518  -1.519  -7.261  0.00  0.00    +0.270 C 
ATOM     30  O   UNL     1       0.491  -2.316  -6.663  0.00  0.00    -0.485 OA
ENDBRANCH  19  21
ENDBRANCH   2  19
BRANCH   6  31
ATOM     31  C   UNL     1      -2.346  -5.701   1.129  0.00  0.00    +0.137 C 
BRANCH  31  32
ATOM     32  C   UNL     1      -3.610  -5.650   0.269  0.00  0.00    +0.179 C 
BRANCH  32  33
ATOM     33  O   UNL     1      -3.840  -6.933  -0.317  0.00  0.00    -0.376 OA
BRANCH  33  34
ATOM     34  C   UNL     1      -5.003  -6.994  -1.145  0.00  0.00    +0.187 C 
BRANCH  34  35
ATOM     35  C   UNL     1      -5.148  -8.406  -1.716  0.00  0.00    +0.184 C 
BRANCH  35  36
ATOM     36  O   UNL     1      -5.393  -9.327  -0.652  0.00  0.00    -0.393 OA
ATOM     37  H   UNL     1      -5.496 -10.244  -0.941  0.00  0.00    +0.209 HD
ENDBRANCH  35  36
ENDBRANCH  34  35
ENDBRANCH  33  34
ENDBRANCH  32  33
ENDBRANCH  31  32
ENDBRANCH   6  31
TORSDOF 12
