REMARK  Name = ZINC67187027
REMARK  5 active torsions:
REMARK  status: ('A' for Active; 'I' for Inactive)
REMARK    1  A    between atoms: C_8  and  C_10
REMARK    2  A    between atoms: C_11  and  C_16
REMARK    3  A    between atoms: C_16  and  N_17
REMARK    4  A    between atoms: N_17  and  C_18
REMARK    5  A    between atoms: C_18  and  C_19
REMARK                            x       y       z     vdW  Elec       q    Type
REMARK                         _______ _______ _______ _____ _____    ______ ____
ROOT
ATOM      1  C   UNL     1       5.737  -2.438  -1.534  0.00  0.00    +0.120 C 
ENDROOT
BRANCH   1   3
ATOM      2  C   UNL     1       3.796  -3.333  -0.053  0.00  0.00    +0.132 A 
ATOM      3  C   UNL     1       5.032  -3.488  -0.715  0.00  0.00    +0.014 A 
ATOM      4  C   UNL     1       5.470  -4.744  -0.485  0.00  0.00    +0.110 A 
ATOM      5  N   UNL     1       4.557  -5.370   0.291  0.00  0.00    -0.284 N 
ATOM      6  H   UNL     1       4.614  -6.283   0.612  0.00  0.00    +0.188 HD
ATOM      7  N   UNL     1       3.518  -4.469   0.556  0.00  0.00    -0.170 NA
BRANCH   2  15
ATOM      8  C   UNL     1      -0.017   1.363   0.009  0.00  0.00    +0.001 A 
ATOM      9  C   UNL     1       1.170   2.082   0.002  0.00  0.00    +0.004 A 
ATOM     10  C   UNL     1       2.387   1.432  -0.013  0.00  0.00    +0.047 A 
ATOM     11  C   UNL     1       2.429   0.044  -0.021  0.00  0.00    +0.136 A 
ATOM     12  C   UNL     1       1.223  -0.679  -0.013  0.00  0.00    +0.021 A 
ATOM     13  C   UNL     1       0.002  -0.004   0.002  0.00  0.00    +0.011 A 
ATOM     14  C   UNL     1       1.610  -2.092  -0.025  0.00  0.00    +0.060 A 
ATOM     15  C   UNL     1       2.964  -2.111  -0.038  0.00  0.00    +0.156 A 
ATOM     16  O   UNL     1       3.439  -0.850  -0.036  0.00  0.00    -0.453 OA
ENDBRANCH   2  15
ENDBRANCH   1   3
BRANCH   1  17
ATOM     17  N   UNL     1       6.441  -1.510  -0.639  0.00  0.00    -0.308 NA
ATOM     18  H   UNL     1       5.806  -1.101   0.029  0.00  0.00    +0.123 HD
BRANCH  17  19
ATOM     19  C   UNL     1       7.142  -0.471  -1.404  0.00  0.00    +0.116 C 
BRANCH  19  20
ATOM     20  C   UNL     1       7.851   0.461  -0.455  0.00  0.00    -0.029 A 
ATOM     21  C   UNL     1       7.210   1.587   0.045  0.00  0.00    +0.022 A 
ATOM     22  C   UNL     1       7.887   2.420   0.914  0.00  0.00    +0.084 A 
ATOM     23  N   UNL     1       9.130   2.158   1.272  0.00  0.00    -0.350 N 
ATOM     24  C   UNL     1       9.774   1.095   0.818  0.00  0.00    +0.099 A 
ATOM     25  C   UNL     1       9.151   0.209  -0.057  0.00  0.00    +0.046 A 
ATOM     26  N   UNL     1      11.083   0.858   1.222  0.00  0.00    -0.317 N 
ATOM     27  C   UNL     1      11.920  -0.273   0.795  0.00  0.00    +0.106 C 
ATOM     28  C   UNL     1      13.277  -0.136   1.516  0.00  0.00    +0.020 C 
ATOM     29  C   UNL     1      12.932   0.749   2.742  0.00  0.00    +0.020 C 
ATOM     30  C   UNL     1      11.864   1.702   2.143  0.00  0.00    +0.106 C 
ATOM     31  H   UNL     1       9.582   2.760   1.884  0.00  0.00    +0.166 HD
ENDBRANCH  19  20
ENDBRANCH  17  19
ENDBRANCH   1  17
TORSDOF 5
