REMARK  Name = ZINC16042521
REMARK  5 active torsions:
REMARK  status: ('A' for Active; 'I' for Inactive)
REMARK    1  A    between atoms: C_1  and  C_2
REMARK    2  A    between atoms: C_2  and  C_3
REMARK    3  A    between atoms: C_2  and  C_4
REMARK    4  A    between atoms: C_7  and  C_10
REMARK    5  A    between atoms: N_29  and  C_32
REMARK                            x       y       z     vdW  Elec       q    Type
REMARK                         _______ _______ _______ _____ _____    ______ ____
ROOT
ATOM      1  C   UNL     1      -2.553   3.869   0.047  0.00  0.00    +0.154 C 
ATOM      2  C   UNL     1      -3.179   3.771   1.419  0.00  0.00    +0.046 A 
ATOM      3  C   UNL     1      -4.466   3.414   1.627  0.00  0.00    -0.015 A 
ATOM      4  C   UNL     1      -4.686   3.438   3.059  0.00  0.00    +0.003 A 
ATOM      5  C   UNL     1      -5.804   3.172   3.853  0.00  0.00    +0.010 A 
ATOM      6  C   UNL     1      -5.647   3.297   5.212  0.00  0.00    +0.001 A 
ATOM      7  C   UNL     1      -4.442   3.673   5.782  0.00  0.00    +0.002 A 
ATOM      8  C   UNL     1      -3.318   3.946   5.022  0.00  0.00    +0.026 A 
ATOM      9  C   UNL     1      -3.448   3.827   3.639  0.00  0.00    +0.047 A 
ATOM     10  N   UNL     1      -2.563   4.018   2.617  0.00  0.00    -0.356 N 
ATOM     11  H   UNL     1      -1.637   4.287   2.724  0.00  0.00    +0.166 HD
ATOM     12  C   UNL     1      -5.447   3.065   0.537  0.00  0.00    +0.069 C 
ATOM     13  C   UNL     1      -4.907   3.586  -0.802  0.00  0.00    +0.167 C 
ATOM     14  N   UNL     1      -3.489   3.246  -0.913  0.00  0.00    -0.276 N 
ATOM     15  C   UNL     1      -3.010   2.406  -1.833  0.00  0.00    +0.234 C 
ATOM     16  O   UNL     1      -1.827   2.139  -1.793  0.00  0.00    -0.274 OA
ATOM     17  C   UNL     1      -3.831   1.772  -2.908  0.00  0.00    +0.204 C 
ATOM     18  N   UNL     1      -5.219   2.201  -2.859  0.00  0.00    -0.288 N 
ATOM     19  C   UNL     1      -5.711   3.013  -1.925  0.00  0.00    +0.237 C 
ATOM     20  O   UNL     1      -6.886   3.307  -1.990  0.00  0.00    -0.274 OA
ENDROOT
BRANCH   1  24
ATOM     21  C   UNL     1       1.175   1.783  -0.001  0.00  0.00    -0.045 A 
ATOM     22  C   UNL     1       1.103   3.080  -0.473  0.00  0.00    +0.004 A 
ATOM     23  C   UNL     1      -0.103   3.757  -0.452  0.00  0.00    +0.006 A 
ATOM     24  C   UNL     1      -1.238   3.133   0.030  0.00  0.00    -0.021 A 
ATOM     25  C   UNL     1      -1.165   1.836   0.503  0.00  0.00    +0.006 A 
ATOM     26  C   UNL     1       0.041   1.161   0.487  0.00  0.00    +0.004 A 
BRANCH  21  28
ATOM     27  C   UNL     1       2.871   0.651   1.411  0.00  0.00    +0.012 C 
ATOM     28  C   UNL     1       2.490   1.047  -0.017  0.00  0.00    +0.013 C 
ATOM     29  C   UNL     1       2.360  -0.211  -0.878  0.00  0.00    +0.012 C 
ENDBRANCH  21  28
ENDBRANCH   1  24
BRANCH  18  30
ATOM     30  C   UNL     1      -6.129   1.712  -3.897  0.00  0.00    +0.077 C 
ATOM     31  C   UNL     1      -6.141   0.169  -3.906  0.00  0.00    +0.022 C 
ATOM     32  C   UNL     1      -6.251  -0.201  -5.406  0.00  0.00    +0.002 C 
ATOM     33  C   UNL     1      -5.361   0.867  -6.088  0.00  0.00    +0.002 C 
ATOM     34  C   UNL     1      -5.633   2.155  -5.285  0.00  0.00    +0.022 C 
ENDBRANCH  18  30
TORSDOF 3
