REMARK  Name = ZINC35829521
REMARK  9 active torsions:
REMARK  status: ('A' for Active; 'I' for Inactive)
REMARK    1  A    between atoms: C_1  and  C_2
REMARK    2  A    between atoms: C_5  and  N_8
REMARK    3  A    between atoms: C_9  and  O_38
REMARK    4  A    between atoms: C_10  and  C_21
REMARK    5  A    between atoms: C_11  and  C_13
REMARK    6  A    between atoms: C_18  and  O_19
REMARK    7  A    between atoms: O_19  and  C_20
REMARK    8  A    between atoms: N_25  and  C_29
REMARK    9  A    between atoms: C_29  and  C_30
REMARK                            x       y       z     vdW  Elec       q    Type
REMARK                         _______ _______ _______ _____ _____    ______ ____
ROOT
ATOM      1  N   UNL     1       0.059  -4.171  -0.021  0.00  0.00    -0.200 N 
ATOM      2  C   UNL     1       0.703  -4.945   0.878  0.00  0.00    +0.224 A 
ATOM      3  C   UNL     1       0.480  -6.273   0.527  0.00  0.00    +0.066 A 
ATOM      4  C   UNL     1      -0.363  -6.242  -0.676  0.00  0.00    +0.108 A 
ATOM      5  N   UNL     1      -0.590  -4.979  -0.958  0.00  0.00    -0.162 NA
ENDROOT
BRANCH   3   6
ATOM      6  C   UNL     1       0.983  -7.460   1.215  0.00  0.00    +0.044 C 
ATOM      7  C   UNL     1       2.305  -7.558   1.526  0.00  0.00    +0.099 C 
ATOM      8  C   UNL     1       2.952  -8.637   2.183  0.00  0.00    +0.269 C 
ATOM      9  O   UNL     1       2.427  -9.662   2.580  0.00  0.00    -0.268 OA
ATOM     10  N   UNL     1       4.256  -8.315   2.284  0.00  0.00    -0.216 N 
ATOM     11  C   UNL     1       4.467  -7.107   1.734  0.00  0.00    +0.313 C 
ATOM     12  O   UNL     1       5.544  -6.545   1.673  0.00  0.00    -0.252 OA
ATOM     13  N   UNL     1       3.309  -6.614   1.256  0.00  0.00    -0.265 N 
ATOM     14  H   UNL     1       3.190  -5.761   0.808  0.00  0.00    +0.157 HD
BRANCH  10  15
ATOM     15  C   UNL     1       5.288  -9.153   2.900  0.00  0.00    +0.156 C 
BRANCH  15  16
ATOM     16  C   UNL     1       5.891 -10.056   1.856  0.00  0.00    +0.006 A 
ATOM     17  C   UNL     1       5.478 -11.372   1.758  0.00  0.00    +0.011 A 
ATOM     18  C   UNL     1       6.030 -12.201   0.801  0.00  0.00    +0.039 A 
ATOM     19  C   UNL     1       6.998 -11.715  -0.062  0.00  0.00    +0.126 A 
ATOM     20  C   UNL     1       7.413 -10.398   0.035  0.00  0.00    +0.077 A 
ATOM     21  C   UNL     1       6.855  -9.567   0.991  0.00  0.00    +0.131 A 
ATOM     22  F   UNL     1       7.254  -8.280   1.083  0.00  0.00    -0.205 F 
ATOM     23  F   UNL     1       7.539 -12.527  -0.997  0.00  0.00    -0.205 F 
ENDBRANCH  15  16
ENDBRANCH  10  15
ENDBRANCH   3   6
BRANCH   1  28
ATOM     24  C   UNL     1      -0.018   1.503   0.010  0.00  0.00    +0.044 C 
ATOM     25  C   UNL     1       0.002  -0.004   0.002  0.00  0.00    -0.050 A 
ATOM     26  C   UNL     1       0.006  -0.687  -1.200  0.00  0.00    +0.005 A 
ATOM     27  C   UNL     1       0.025  -2.068  -1.211  0.00  0.00    +0.028 A 
ATOM     28  C   UNL     1       0.041  -2.771  -0.013  0.00  0.00    +0.069 A 
ATOM     29  C   UNL     1       0.037  -2.081   1.192  0.00  0.00    +0.028 A 
ATOM     30  C   UNL     1       0.023  -0.700   1.197  0.00  0.00    +0.005 A 
ENDBRANCH   1  28
BRANCH   4  31
ATOM     31  C   UNL     1      -0.868  -7.415  -1.427  0.00  0.00    +0.044 A 
ATOM     32  C   UNL     1      -0.555  -8.706  -1.003  0.00  0.00    +0.014 A 
ATOM     33  C   UNL     1      -1.028  -9.795  -1.706  0.00  0.00    +0.001 A 
ATOM     34  C   UNL     1      -1.812  -9.611  -2.831  0.00  0.00    +0.004 A 
ATOM     35  C   UNL     1      -2.129  -8.336  -3.261  0.00  0.00    +0.046 A 
ATOM     36  C   UNL     1      -1.666  -7.233  -2.561  0.00  0.00    +0.129 A 
BRANCH  36  37
ATOM     37  O   UNL     1      -1.982  -5.980  -2.979  0.00  0.00    -0.494 OA
ATOM     38  C   UNL     1      -2.801  -5.871  -4.145  0.00  0.00    +0.277 C 
ENDBRANCH  36  37
ENDBRANCH   4  31
BRANCH   2  39
ATOM     39  O   UNL     1       1.434  -4.508   1.931  0.00  0.00    -0.492 OA
ATOM     40  H   UNL     1       0.923  -4.394   2.744  0.00  0.00    +0.294 HD
ENDBRANCH   2  39
TORSDOF 7
