REMARK  Name = ZINC13093000
REMARK  11 active torsions:
REMARK  status: ('A' for Active; 'I' for Inactive)
REMARK    1  A    between atoms: C_1  and  C_2
REMARK    2  A    between atoms: C_4  and  C_15
REMARK    3  A    between atoms: C_5  and  C_14
REMARK    4  A    between atoms: N_6  and  C_7
REMARK    5  A    between atoms: C_15  and  C_17
REMARK    6  A    between atoms: C_17  and  C_19
REMARK    7  A    between atoms: C_17  and  S_20
REMARK    8  A    between atoms: S_20  and  C_21
REMARK    9  A    between atoms: C_25  and  C_28
REMARK   10  A    between atoms: C_28  and  C_29
REMARK   11  A    between atoms: C_29  and  C_30
REMARK                            x       y       z     vdW  Elec       q    Type
REMARK                         _______ _______ _______ _____ _____    ______ ____
ROOT
ATOM      1  C   UNL     1       0.042  -3.378  -1.450  0.00  0.00    +0.178 C 
ATOM      2  O   UNL     1       0.058  -4.471  -0.923  0.00  0.00    -0.291 OA
ENDROOT
BRANCH   1   6
ATOM      3  C   UNL     1      -0.018   1.503   0.010  0.00  0.00    +0.064 C 
ATOM      4  C   UNL     1       0.002  -0.004   0.002  0.00  0.00    +0.022 A 
ATOM      5  C   UNL     1       0.008  -0.777  -1.097  0.00  0.00    +0.034 A 
ATOM      6  C   UNL     1       0.029  -2.168  -0.626  0.00  0.00    +0.040 A 
ATOM      7  C   UNL     1       0.034  -2.101   0.755  0.00  0.00    +0.031 A 
ATOM      8  N   UNL     1       0.024  -0.802   1.112  0.00  0.00    -0.317 N 
ATOM      9  C   UNL     1       0.054  -3.277   1.697  0.00  0.00    +0.064 C 
BRANCH   8  10
ATOM     10  C   UNL     1       0.030  -0.335   2.433  0.00  0.00    +0.047 A 
ATOM     11  C   UNL     1       1.133  -0.563   3.246  0.00  0.00    +0.027 A 
ATOM     12  C   UNL     1       1.137  -0.102   4.548  0.00  0.00    +0.022 A 
ATOM     13  C   UNL     1       0.043   0.586   5.043  0.00  0.00    +0.041 A 
ATOM     14  C   UNL     1      -1.058   0.813   4.235  0.00  0.00    +0.022 A 
ATOM     15  C   UNL     1      -1.064   0.360   2.931  0.00  0.00    +0.027 A 
ATOM     16 CL   UNL     1       0.051   1.164   6.680  0.00  0.00    -0.084 Cl
ENDBRANCH   8  10
ENDBRANCH   1   6
BRANCH   1  17
ATOM     17  C   UNL     1       0.035  -3.267  -2.953  0.00  0.00    +0.122 C 
ATOM     18  C   UNL     1      -1.406  -3.122  -3.447  0.00  0.00    +0.028 C 
BRANCH  17  19
ATOM     19  S   UNL     1       0.775  -4.758  -3.674  0.00  0.00    -0.073 S 
BRANCH  19  20
ATOM     20  C   UNL     1       0.829  -4.414  -5.401  0.00  0.00    +0.213 A 
ATOM     21  N   UNL     1       1.325  -5.320  -6.235  0.00  0.00    -0.180 NA
ATOM     22  C   UNL     1       1.363  -5.056  -7.537  0.00  0.00    +0.296 A 
ATOM     23  O   UNL     1       1.864  -5.962  -8.412  0.00  0.00    -0.264 OA
ATOM     24  C   UNL     1       0.877  -3.827  -7.985  0.00  0.00    +0.130 A 
ATOM     25  N   UNL     1       0.395  -2.966  -7.109  0.00  0.00    -0.146 NA
ATOM     26  N   UNL     1       0.367  -3.255  -5.855  0.00  0.00    -0.122 NA
BRANCH  24  27
ATOM     27  C   UNL     1       0.902  -3.487  -9.453  0.00  0.00    +0.074 C 
BRANCH  27  28
ATOM     28  C   UNL     1      -0.403  -3.949 -10.106  0.00  0.00    +0.131 C 
BRANCH  28  29
ATOM     29  C   UNL     1      -0.378  -3.609 -11.574  0.00  0.00    +0.356 C 
ATOM     30  O   UNL     1       0.594  -3.049 -12.053  0.00  0.00    -0.246 OA
ATOM     31  O   UNL     1      -1.329  -3.893 -12.282  0.00  0.00    -0.246 OA
ENDBRANCH  28  29
ENDBRANCH  27  28
ENDBRANCH  24  27
ENDBRANCH  19  20
ENDBRANCH  17  19
ENDBRANCH   1  17
TORSDOF 8
