REMARK  Name = ZINC36648308
REMARK  5 active torsions:
REMARK  status: ('A' for Active; 'I' for Inactive)
REMARK    1  A    between atoms: C_4  and  C_7
REMARK    2  A    between atoms: C_7  and  C_8
REMARK    3  A    between atoms: C_21  and  O_24
REMARK    4  A    between atoms: O_24  and  C_25
REMARK    5  A    between atoms: C_25  and  C_26
REMARK                            x       y       z     vdW  Elec       q    Type
REMARK                         _______ _______ _______ _____ _____    ______ ____
ROOT
ATOM      1  C   UNL     1       4.531   0.154   3.189  0.00  0.00    -0.004 C 
ATOM      2  C   UNL     1       5.961  -0.364   3.358  0.00  0.00    +0.023 C 
ATOM      3  C   UNL     1       6.040  -1.806   2.847  0.00  0.00    +0.107 C 
ATOM      4  N   UNL     1       5.021  -2.610   3.536  0.00  0.00    -0.317 N 
ATOM      5  C   UNL     1       3.626  -2.151   3.512  0.00  0.00    +0.107 C 
ATOM      6  C   UNL     1       3.573  -0.706   4.016  0.00  0.00    +0.023 C 
ATOM      7  C   UNL     1       5.370  -3.779   4.196  0.00  0.00    +0.099 A 
ATOM      8  C   UNL     1       4.401  -4.455   4.951  0.00  0.00    +0.042 A 
ATOM      9  C   UNL     1       4.729  -5.605   5.604  0.00  0.00    +0.013 A 
ATOM     10  C   UNL     1       6.052  -6.080   5.496  0.00  0.00    +0.002 A 
ATOM     11  C   UNL     1       6.458  -7.259   6.142  0.00  0.00    +0.010 A 
ATOM     12  C   UNL     1       7.744  -7.690   6.017  0.00  0.00    +0.004 A 
ATOM     13  C   UNL     1       8.666  -6.979   5.254  0.00  0.00    +0.048 A 
ATOM     14  C   UNL     1       8.307  -5.828   4.611  0.00  0.00    +0.145 A 
ATOM     15  C   UNL     1       6.984  -5.352   4.719  0.00  0.00    +0.090 A 
ATOM     16  N   UNL     1       6.603  -4.231   4.095  0.00  0.00    -0.340 N 
ATOM     17  H   UNL     1       7.248  -3.741   3.562  0.00  0.00    +0.167 HD
ENDROOT
BRANCH   1  18
ATOM     18  C   UNL     1       4.455   1.606   3.666  0.00  0.00    +0.038 C 
BRANCH  18  22
ATOM     19  C   UNL     1       6.861   4.067   1.137  0.00  0.00    +0.000 A 
ATOM     20  C   UNL     1       5.530   3.854   0.831  0.00  0.00    +0.000 A 
ATOM     21  C   UNL     1       4.752   3.058   1.649  0.00  0.00    +0.003 A 
ATOM     22  C   UNL     1       5.304   2.474   2.773  0.00  0.00    -0.047 A 
ATOM     23  C   UNL     1       6.636   2.686   3.079  0.00  0.00    +0.003 A 
ATOM     24  C   UNL     1       7.414   3.483   2.261  0.00  0.00    +0.000 A 
ENDBRANCH  18  22
ENDBRANCH   1  18
BRANCH  14  25
ATOM     25  O   UNL     1       9.220  -5.146   3.871  0.00  0.00    -0.485 OA
BRANCH  25  26
ATOM     26  C   UNL     1      10.540  -5.690   3.808  0.00  0.00    +0.265 C 
BRANCH  26  27
ATOM     27  C   UNL     1      11.408  -4.805   2.950  0.00  0.00    -0.003 A 
ATOM     28  C   UNL     1      10.889  -3.682   2.382  0.00  0.00    +0.007 A 
ATOM     29  C   UNL     1      11.675  -2.852   1.585  0.00  0.00    +0.001 A 
ATOM     30  C   UNL     1      12.984  -3.141   1.351  0.00  0.00    +0.008 A 
ATOM     31  C   UNL     1      13.555  -4.292   1.920  0.00  0.00    -0.018 A 
ATOM     32  C   UNL     1      12.757  -5.133   2.736  0.00  0.00    -0.011 A 
ATOM     33  C   UNL     1      13.329  -6.281   3.309  0.00  0.00    +0.009 A 
ATOM     34  C   UNL     1      14.640  -6.566   3.080  0.00  0.00    +0.001 A 
ATOM     35  C   UNL     1      15.427  -5.736   2.283  0.00  0.00    +0.001 A 
ATOM     36  C   UNL     1      14.903  -4.623   1.700  0.00  0.00    +0.008 A 
ENDBRANCH  26  27
ENDBRANCH  25  26
ENDBRANCH  14  25
TORSDOF 5
