REMARK  Name = ZINC23410887
REMARK  10 active torsions:
REMARK  status: ('A' for Active; 'I' for Inactive)
REMARK    1  A    between atoms: C_1  and  C_2
REMARK    2  A    between atoms: C_2  and  C_3
REMARK    3  A    between atoms: C_2  and  C_4
REMARK    4  A    between atoms: C_2  and  O_5
REMARK    5  A    between atoms: O_5  and  C_6
REMARK    6  A    between atoms: N_8  and  N_9
REMARK    7  A    between atoms: C_10  and  C_11
REMARK    8  A    between atoms: C_16  and  O_17
REMARK    9  A    between atoms: O_17  and  C_18
REMARK   10  A    between atoms: C_18  and  C_20
REMARK                            x       y       z     vdW  Elec       q    Type
REMARK                         _______ _______ _______ _____ _____    ______ ____
ROOT
ATOM      1  C   UNL     1      -0.196   1.327   0.325  0.00  0.00    +0.039 A 
ATOM      2  C   UNL     1      -0.131  -0.058   0.500  0.00  0.00    +0.028 A 
ATOM      3  C   UNL     1       1.096  -0.681   0.598  0.00  0.00    +0.020 A 
ATOM      4  C   UNL     1       2.264   0.059   0.522  0.00  0.00    +0.034 A 
ATOM      5  C   UNL     1       2.212   1.430   0.348  0.00  0.00    +0.062 A 
ATOM      6  C   UNL     1       0.988   2.072   0.248  0.00  0.00    +0.155 A 
ATOM      7 BR   UNL     1       3.814   2.430   0.247  0.00  0.00    -0.046 Br
ATOM      8 BR   UNL     1       1.183  -2.555   0.836  0.00  0.00    -0.050 Br
ENDROOT
BRANCH   1  10
ATOM      9  N   UNL     1      -2.593   1.295   0.177  0.00  0.00    -0.185 NA
ATOM     10  C   UNL     1      -1.504   1.998   0.214  0.00  0.00    +0.142 C 
BRANCH   9  13
ATOM     11  C   UNL     1      -4.968   1.211   0.029  0.00  0.00    +0.420 C 
ATOM     12  O   UNL     1      -6.030   1.738  -0.236  0.00  0.00    -0.225 OA
ATOM     13  N   UNL     1      -3.827   1.925  -0.034  0.00  0.00    -0.172 N 
ATOM     14  H   UNL     1      -3.864   3.003  -0.251  0.00  0.00    +0.181 HD
BRANCH  11  15
ATOM     15  O   UNL     1      -4.931  -0.087   0.385  0.00  0.00    -0.444 OA
BRANCH  15  17
ATOM     16  C   UNL     1      -6.767  -0.763  -1.065  0.00  0.00    +0.055 C 
ATOM     17  C   UNL     1      -6.186  -0.817   0.349  0.00  0.00    +0.107 C 
ATOM     18  C   UNL     1      -5.940  -2.275   0.744  0.00  0.00    +0.055 C 
ATOM     19  C   UNL     1      -7.173  -0.182   1.331  0.00  0.00    +0.055 C 
ENDBRANCH  15  17
ENDBRANCH  11  15
ENDBRANCH   9  13
ENDBRANCH   1  10
BRANCH   6  20
ATOM     20  O   UNL     1       0.936   3.419   0.077  0.00  0.00    -0.421 OA
BRANCH  20  21
ATOM     21  C   UNL     1       0.941   4.177   1.190  0.00  0.00    +0.345 C 
ATOM     22  O   UNL     1       1.082   3.657   2.279  0.00  0.00    -0.245 OA
BRANCH  21  23
ATOM     23  C   UNL     1       0.774   5.641   1.087  0.00  0.00    +0.062 A 
ATOM     24  C   UNL     1       0.664   6.418   2.243  0.00  0.00    +0.015 A 
ATOM     25  C   UNL     1       0.509   7.784   2.141  0.00  0.00    +0.004 A 
ATOM     26  C   UNL     1       0.463   8.388   0.897  0.00  0.00    +0.038 A 
ATOM     27  C   UNL     1       0.572   7.625  -0.254  0.00  0.00    +0.124 A 
ATOM     28  C   UNL     1       0.733   6.256  -0.165  0.00  0.00    +0.053 A 
ATOM     29  F   UNL     1       0.527   8.222  -1.465  0.00  0.00    -0.205 F 
ENDBRANCH  21  23
ENDBRANCH  20  21
ENDBRANCH   6  20
TORSDOF 7
