REMARK  Name = ZINC00902992
REMARK  10 active torsions:
REMARK  status: ('A' for Active; 'I' for Inactive)
REMARK    1  A    between atoms: C_1  and  C_2
REMARK    2  A    between atoms: C_2  and  O_3
REMARK    3  A    between atoms: O_3  and  C_4
REMARK    4  A    between atoms: C_9  and  N_10
REMARK    5  A    between atoms: C_11  and  C_13
REMARK    6  A    between atoms: C_13  and  S_14
REMARK    7  A    between atoms: S_14  and  C_15
REMARK    8  A    between atoms: C_21  and  C_30
REMARK    9  A    between atoms: C_23  and  C_29
REMARK   10  A    between atoms: C_26  and  C_28
REMARK                            x       y       z     vdW  Elec       q    Type
REMARK                         _______ _______ _______ _____ _____    ______ ____
ROOT
ATOM      1  C   UNL     1       3.526   3.697  -0.908  0.00  0.00    +0.197 A 
ATOM      2  N   UNL     1       4.298   4.728  -0.624  0.00  0.00    -0.122 NA
ATOM      3  N   UNL     1       3.617   5.628  -0.016  0.00  0.00    -0.129 NA
ATOM      4  C   UNL     1       2.373   5.212   0.127  0.00  0.00    +0.162 A 
ATOM      5  N   UNL     1       2.335   3.891  -0.275  0.00  0.00    -0.270 N 
ATOM      6  C   UNL     1       1.204   3.133  -0.034  0.00  0.00    +0.061 A 
ATOM      7  C   UNL     1       1.196   1.751   0.021  0.00  0.00    -0.026 A 
ATOM      8  C   UNL     1      -0.001   1.057   0.028  0.00  0.00    +0.008 A 
ATOM      9  C   UNL     1      -1.208   1.733   0.046  0.00  0.00    -0.050 A 
ATOM     10  C   UNL     1      -1.223   3.108   0.142  0.00  0.00    +0.013 A 
ATOM     11  C   UNL     1      -0.018   3.811   0.197  0.00  0.00    +0.002 A 
ATOM     12  C   UNL     1       0.008   5.242   0.510  0.00  0.00    -0.038 A 
ATOM     13  C   UNL     1       1.196   5.888   0.521  0.00  0.00    +0.052 A 
ATOM     14  C   UNL     1      -1.254   5.989   0.857  0.00  0.00    +0.044 C 
ATOM     15  C   UNL     1      -2.504   0.971  -0.032  0.00  0.00    +0.044 C 
ATOM     16  C   UNL     1       2.469   0.955   0.160  0.00  0.00    +0.046 C 
ENDROOT
BRANCH   1  17
ATOM     17  S   UNL     1       3.978   2.371  -1.977  0.00  0.00    -0.076 S 
BRANCH  17  18
ATOM     18  C   UNL     1       5.676   2.855  -2.377  0.00  0.00    +0.173 C 
BRANCH  18  20
ATOM     19  N   UNL     1       7.549   1.992  -3.743  0.00  0.00    -0.282 N 
ATOM     20  C   UNL     1       6.282   1.837  -3.308  0.00  0.00    +0.228 C 
ATOM     21  O   UNL     1       5.631   0.878  -3.666  0.00  0.00    -0.275 OA
ATOM     22  H   UNL     1       8.042   2.797  -3.522  0.00  0.00    +0.155 HD
BRANCH  19  28
ATOM     23  C   UNL     1       9.200   1.306  -5.375  0.00  0.00    +0.142 A 
ATOM     24  C   UNL     1       9.793   0.310  -6.135  0.00  0.00    +0.047 A 
ATOM     25  C   UNL     1       9.345  -0.994  -6.036  0.00  0.00    +0.004 A 
ATOM     26  C   UNL     1       8.306  -1.309  -5.181  0.00  0.00    +0.002 A 
ATOM     27  C   UNL     1       7.712  -0.323  -4.416  0.00  0.00    +0.027 A 
ATOM     28  C   UNL     1       8.152   0.989  -4.513  0.00  0.00    +0.076 A 
BRANCH  23  29
ATOM     29  O   UNL     1       9.640   2.589  -5.470  0.00  0.00    -0.490 OA
BRANCH  29  31
ATOM     30  C   UNL     1      11.073   4.328  -6.344  0.00  0.00    +0.048 C 
ATOM     31  C   UNL     1      10.718   2.840  -6.374  0.00  0.00    +0.226 C 
ENDBRANCH  29  31
ENDBRANCH  23  29
ENDBRANCH  19  28
ENDBRANCH  18  20
ENDBRANCH  17  18
ENDBRANCH   1  17
TORSDOF 6
