REMARK  Name = ZINC39530555
REMARK  6 active torsions:
REMARK  status: ('A' for Active; 'I' for Inactive)
REMARK    1  A    between atoms: C_4  and  C_7
REMARK    2  A    between atoms: C_7  and  C_8
REMARK    3  A    between atoms: N_11  and  C_15
REMARK    4  A    between atoms: C_20  and  S_21
REMARK    5  A    between atoms: S_21  and  O_24
REMARK    6  A    between atoms: O_24  and  C_25
REMARK                            x       y       z     vdW  Elec       q    Type
REMARK                         _______ _______ _______ _____ _____    ______ ____
ROOT
ATOM      1  C   UNL     1       7.217  -1.693   3.598  0.00  0.00    +0.058 A 
ATOM      2  C   UNL     1       7.374  -0.551   4.373  0.00  0.00    +0.026 A 
ATOM      3  C   UNL     1       8.624  -0.207   4.848  0.00  0.00    +0.017 A 
ATOM      4  C   UNL     1       9.720  -0.999   4.552  0.00  0.00    +0.020 A 
ATOM      5  C   UNL     1       9.566  -2.137   3.781  0.00  0.00    +0.047 A 
ATOM      6  C   UNL     1       8.317  -2.489   3.308  0.00  0.00    +0.150 A 
ATOM      7 BR   UNL     1      11.431  -0.525   5.204  0.00  0.00    -0.050 Br
ENDROOT
BRANCH   1  10
ATOM      8  C   UNL     1       4.086  -0.950   1.994  0.00  0.00    -0.050 C 
ATOM      9  C   UNL     1       5.480  -1.560   1.811  0.00  0.00    +0.089 C 
ATOM     10  N   UNL     1       5.952  -2.044   3.117  0.00  0.00    -0.332 N 
ATOM     11  C   UNL     1       5.057  -2.908   3.902  0.00  0.00    +0.086 C 
ATOM     12  C   UNL     1       3.684  -2.234   3.987  0.00  0.00    -0.063 C 
ATOM     13  N   UNL     1       3.202  -1.933   2.633  0.00  0.00    +0.383 N 
ATOM     14  H   UNL     1       2.267  -1.559   2.685  0.00  0.00    -0.085 HD
ATOM     15  H   UNL     1       3.193  -2.781   2.085  0.00  0.00    -0.085 HD
BRANCH   8  16
ATOM     16  C   UNL     1       3.515  -0.561   0.629  0.00  0.00    +0.021 C 
BRANCH  16  20
ATOM     17  C   UNL     1      -0.214   1.452   1.163  0.00  0.00    +0.000 A 
ATOM     18  C   UNL     1       0.964   2.175   1.135  0.00  0.00    +0.000 A 
ATOM     19  C   UNL     1       2.171   1.523   0.963  0.00  0.00    +0.003 A 
ATOM     20  C   UNL     1       2.200   0.149   0.818  0.00  0.00    -0.049 A 
ATOM     21  C   UNL     1       1.022  -0.574   0.846  0.00  0.00    +0.003 A 
ATOM     22  C   UNL     1      -0.185   0.078   1.017  0.00  0.00    +0.000 A 
ENDBRANCH  16  20
ENDBRANCH   8  16
ENDBRANCH   1  10
BRANCH   6  23
ATOM     23  S   UNL     1       8.121  -3.943   2.332  0.00  0.00    +0.153 S 
ATOM     24  O   UNL     1       7.960  -5.023   3.241  0.00  0.00    -0.131 OA
ATOM     25  O   UNL     1       7.156  -3.636   1.335  0.00  0.00    -0.131 OA
BRANCH  23  26
ATOM     26  O   UNL     1       9.437  -4.178   1.606  0.00  0.00    -0.342 OA
BRANCH  26  27
ATOM     27  C   UNL     1       9.644  -3.346   0.552  0.00  0.00    +0.157 A 
ATOM     28  C   UNL     1       9.109  -3.652  -0.691  0.00  0.00    +0.048 A 
ATOM     29  C   UNL     1       9.319  -2.804  -1.761  0.00  0.00    +0.004 A 
ATOM     30  C   UNL     1      10.064  -1.650  -1.593  0.00  0.00    +0.000 A 
ATOM     31  C   UNL     1      10.598  -1.343  -0.356  0.00  0.00    +0.004 A 
ATOM     32  C   UNL     1      10.385  -2.185   0.718  0.00  0.00    +0.048 A 
ENDBRANCH  26  27
ENDBRANCH  23  26
ENDBRANCH   6  23
TORSDOF 6
