REMARK  Name = ZINC12152795
REMARK  11 active torsions:
REMARK  status: ('A' for Active; 'I' for Inactive)
REMARK    1  A    between atoms: C_1  and  C_2
REMARK    2  A    between atoms: C_2  and  O_3
REMARK    3  A    between atoms: O_3  and  C_4
REMARK    4  A    between atoms: C_4  and  C_6
REMARK    5  A    between atoms: C_12  and  C_13
REMARK    6  A    between atoms: C_12  and  N_58
REMARK    7  A    between atoms: C_17  and  N_26
REMARK    8  A    between atoms: C_18  and  C_22
REMARK    9  A    between atoms: C_22  and  O_24
REMARK   10  A    between atoms: O_24  and  C_25
REMARK   11  A    between atoms: C_27  and  C_29
REMARK                            x       y       z     vdW  Elec       q    Type
REMARK                         _______ _______ _______ _____ _____    ______ ____
ROOT
ATOM      1  C   UNL     1       0.205   0.900  -9.899  0.00  0.00    +0.026 A 
ATOM      2  C   UNL     1       0.789   2.032 -10.448  0.00  0.00    +0.022 A 
ATOM      3  C   UNL     1       0.022   2.951 -11.125  0.00  0.00    +0.014 A 
ATOM      4  C   UNL     1      -1.372   2.728 -11.244  0.00  0.00    +0.030 A 
ATOM      5  C   UNL     1      -2.371   3.555 -11.903  0.00  0.00    +0.064 A 
ATOM      6  C   UNL     1      -3.682   3.132 -11.890  0.00  0.00    +0.120 A 
ATOM      7  S   UNL     1      -3.612   1.598 -10.985  0.00  0.00    -0.060 S 
ATOM      8  C   UNL     1      -1.869   1.548 -10.645  0.00  0.00    +0.111 A 
ATOM      9  N   UNL     1      -1.093   0.696 -10.011  0.00  0.00    -0.246 NA
ENDROOT
BRANCH   5  10
ATOM     10  N   UNL     1      -2.012   4.743 -12.530  0.00  0.00    -0.280 N 
ATOM     11  C   UNL     1      -1.146   5.585 -11.933  0.00  0.00    +0.251 C 
ATOM     12  O   UNL     1      -0.604   5.263 -10.892  0.00  0.00    -0.270 OA
ATOM     13  H   UNL     1      -2.385   4.965 -13.397  0.00  0.00    +0.155 HD
BRANCH  11  14
ATOM     14  C   UNL     1      -0.854   6.895 -12.540  0.00  0.00    +0.075 A 
ATOM     15  C   UNL     1       0.053   7.931 -12.026  0.00  0.00    +0.054 A 
ATOM     16  C   UNL     1      -0.001   8.940 -12.909  0.00  0.00    +0.195 A 
ATOM     17  O   UNL     1      -0.854   8.617 -13.894  0.00  0.00    -0.470 OA
ATOM     18  C   UNL     1      -1.375   7.403 -13.695  0.00  0.00    +0.207 A 
ENDBRANCH  11  14
ENDBRANCH   5  10
BRANCH   6  19
ATOM     19  C   UNL     1      -4.815   3.764 -12.459  0.00  0.00    +0.348 C 
ATOM     20  O   UNL     1      -4.707   4.865 -12.966  0.00  0.00    -0.244 OA
BRANCH  19  21
ATOM     21  O   UNL     1      -6.014   3.145 -12.440  0.00  0.00    -0.464 OA
ATOM     22  C   UNL     1      -7.113   3.841 -13.032  0.00  0.00    +0.280 C 
ENDBRANCH  19  21
ENDBRANCH   6  19
BRANCH   1  23
ATOM     23  C   UNL     1       1.059  -0.101  -9.164  0.00  0.00    -0.022 C 
BRANCH  23  29
ATOM     24  C   UNL     1       2.070  -0.171  -5.538  0.00  0.00    +0.081 C 
ATOM     25  C   UNL     1       0.686  -0.366  -4.913  0.00  0.00    +0.011 C 
ATOM     26  C   UNL     1      -0.344   0.437  -5.712  0.00  0.00    -0.018 C 
ATOM     27  C   UNL     1      -0.315  -0.015  -7.173  0.00  0.00    -0.078 C 
ATOM     28  C   UNL     1       2.029  -0.606  -7.005  0.00  0.00    -0.064 C 
ATOM     29  N   UNL     1       1.037   0.222  -7.723  0.00  0.00    +0.384 N 
ATOM     30  H   UNL     1       1.277   1.212  -7.599  0.00  0.00    -0.081 HD
BRANCH  24  31
ATOM     31  C   UNL     1       3.080  -1.005  -4.794  0.00  0.00    +0.308 C 
ATOM     32  O   UNL     1       3.704  -1.860  -5.376  0.00  0.00    -0.251 OA
BRANCH  31  33
ATOM     33  O   UNL     1       3.288  -0.798  -3.484  0.00  0.00    -0.465 OA
BRANCH  33  35
ATOM     34  C   UNL     1       4.372  -1.259  -1.353  0.00  0.00    +0.048 C 
ATOM     35  C   UNL     1       4.276  -1.639  -2.832  0.00  0.00    +0.229 C 
ENDBRANCH  33  35
ENDBRANCH  31  33
ENDBRANCH  24  31
ENDBRANCH  23  29
ENDBRANCH   1  23
TORSDOF 9
