REMARK  Name = ZINC37264175
REMARK  9 active torsions:
REMARK  status: ('A' for Active; 'I' for Inactive)
REMARK    1  A    between atoms: C_1  and  C_2
REMARK    2  A    between atoms: C_2  and  C_3
REMARK    3  A    between atoms: C_3  and  N_4
REMARK    4  A    between atoms: C_5  and  C_7
REMARK    5  A    between atoms: C_7  and  N_8
REMARK    6  A    between atoms: C_11  and  C_21
REMARK    7  A    between atoms: N_13  and  C_14
REMARK    8  A    between atoms: C_27  and  C_33
REMARK    9  A    between atoms: C_38  and  C_39
REMARK                            x       y       z     vdW  Elec       q    Type
REMARK                         _______ _______ _______ _____ _____    ______ ____
ROOT
ATOM      1  N   UNL     1       1.205  -4.623  -3.102  0.00  0.00    -0.246 N 
ATOM      2  C   UNL     1       0.731  -4.697  -4.421  0.00  0.00    +0.137 A 
ATOM      3  C   UNL     1       0.684  -5.839  -5.139  0.00  0.00    +0.038 A 
ATOM      4  C   UNL     1       0.165  -5.530  -6.408  0.00  0.00    +0.100 A 
ATOM      5  N   UNL     1      -0.094  -4.236  -6.437  0.00  0.00    -0.164 NA
ATOM      6  N   UNL     1       0.253  -3.689  -5.191  0.00  0.00    -0.217 N 
ATOM      7  C   UNL     1       1.115  -7.193  -4.635  0.00  0.00    +0.112 C 
ATOM      8  S   UNL     1       2.942  -7.232  -4.560  0.00  0.00    -0.138 S 
ATOM      9  C   UNL     1       3.327  -5.572  -3.908  0.00  0.00    +0.166 C 
ATOM     10  C   UNL     1       2.379  -5.194  -2.813  0.00  0.00    +0.231 C 
ATOM     11  O   UNL     1       2.676  -5.413  -1.657  0.00  0.00    -0.274 OA
ENDROOT
BRANCH   6  12
ATOM     12  C   UNL     1       0.128  -2.345  -4.814  0.00  0.00    +0.068 A 
ATOM     13  C   UNL     1       1.150  -1.724  -4.108  0.00  0.00    +0.030 A 
ATOM     14  C   UNL     1       1.025  -0.400  -3.736  0.00  0.00    +0.040 A 
ATOM     15  C   UNL     1      -0.119   0.308  -4.067  0.00  0.00    +0.124 A 
ATOM     16  C   UNL     1      -1.139  -0.310  -4.771  0.00  0.00    +0.040 A 
ATOM     17  C   UNL     1      -1.014  -1.632  -5.150  0.00  0.00    +0.030 A 
ATOM     18  F   UNL     1      -0.239   1.603  -3.703  0.00  0.00    -0.205 F 
ENDBRANCH   6  12
BRANCH   7  19
ATOM     19  C   UNL     1       0.621  -8.264  -5.573  0.00  0.00    -0.027 A 
ATOM     20  C   UNL     1       1.512  -8.928  -6.395  0.00  0.00    +0.005 A 
ATOM     21  C   UNL     1       1.058  -9.910  -7.255  0.00  0.00    +0.000 A 
ATOM     22  C   UNL     1      -0.287 -10.228  -7.293  0.00  0.00    +0.000 A 
ATOM     23  C   UNL     1      -1.177  -9.565  -6.470  0.00  0.00    +0.003 A 
ATOM     24  C   UNL     1      -0.723  -8.586  -5.607  0.00  0.00    -0.046 A 
ATOM     25  C   UNL     1      -1.693  -7.866  -4.706  0.00  0.00    +0.044 C 
ENDBRANCH   7  19
BRANCH   4  26
ATOM     26  C   UNL     1      -0.054  -6.488  -7.519  0.00  0.00    +0.002 A 
ATOM     27  C   UNL     1      -1.334  -6.684  -8.033  0.00  0.00    +0.010 A 
ATOM     28  C   UNL     1      -1.531  -7.576  -9.067  0.00  0.00    +0.001 A 
ATOM     29  C   UNL     1      -0.461  -8.276  -9.594  0.00  0.00    +0.000 A 
ATOM     30  C   UNL     1       0.813  -8.086  -9.088  0.00  0.00    +0.001 A 
ATOM     31  C   UNL     1       1.022  -7.192  -8.057  0.00  0.00    +0.010 A 
ENDBRANCH   4  26
BRANCH   1  32
ATOM     32  C   UNL     1       0.435  -3.930  -2.066  0.00  0.00    +0.210 C 
BRANCH  32  34
ATOM     33  N   UNL     1      -1.449  -4.442  -0.547  0.00  0.00    -0.314 N 
ATOM     34  C   UNL     1      -0.552  -4.887  -1.449  0.00  0.00    +0.231 C 
ATOM     35  O   UNL     1      -0.539  -6.058  -1.764  0.00  0.00    -0.274 OA
ATOM     36  H   UNL     1      -1.504  -3.494  -0.345  0.00  0.00    +0.149 HD
BRANCH  33  37
ATOM     37  C   UNL     1      -2.340  -5.388   0.129  0.00  0.00    +0.104 C 
BRANCH  37  39
ATOM     38  C   UNL     1      -4.095  -5.636   1.889  0.00  0.00    +0.005 C 
ATOM     39  C   UNL     1      -3.165  -4.648   1.183  0.00  0.00    +0.015 C 
ENDBRANCH  37  39
ENDBRANCH  33  37
ENDBRANCH  32  34
ENDBRANCH   1  32
TORSDOF 7
