REMARK  Name = ZINC05968895
REMARK  5 active torsions:
REMARK  status: ('A' for Active; 'I' for Inactive)
REMARK    1  A    between atoms: C_1  and  C_2
REMARK    2  A    between atoms: C_5  and  C_8
REMARK    3  A    between atoms: N_14  and  N_15
REMARK    4  A    between atoms: C_16  and  C_17
REMARK    5  A    between atoms: C_22  and  O_23
REMARK                            x       y       z     vdW  Elec       q    Type
REMARK                         _______ _______ _______ _____ _____    ______ ____
ROOT
ATOM      1  C   UNL     1       0.298  -4.270  -0.014  0.00  0.00    +0.184 A 
ATOM      2  N   UNL     1       0.248  -5.022  -1.078  0.00  0.00    -0.152 NA
ATOM      3  N   UNL     1       0.002  -6.339  -0.668  0.00  0.00    -0.253 N 
ATOM      4  H   UNL     1      -0.085  -7.113  -1.246  0.00  0.00    +0.191 HD
ATOM      5  C   UNL     1      -0.093  -6.334   0.678  0.00  0.00    +0.197 A 
ATOM      6  S   UNL     1      -0.388  -7.694   1.675  0.00  0.00    -0.010 S 
ATOM      7  N   UNL     1       0.093  -5.066   1.096  0.00  0.00    -0.188 N 
ENDROOT
BRANCH   1  12
ATOM      8  C   UNL     1       1.233   1.409   0.049  0.00  0.00    +0.044 C 
ATOM      9  C   UNL     1       0.988  -0.078   0.033  0.00  0.00    -0.050 A 
ATOM     10  C   UNL     1       0.955  -0.757  -1.172  0.00  0.00    +0.004 A 
ATOM     11  C   UNL     1       0.732  -2.119  -1.194  0.00  0.00    +0.012 A 
ATOM     12  C   UNL     1       0.538  -2.810   0.002  0.00  0.00    +0.021 A 
ATOM     13  C   UNL     1       0.573  -2.119   1.214  0.00  0.00    +0.012 A 
ATOM     14  C   UNL     1       0.802  -0.759   1.222  0.00  0.00    +0.004 A 
ENDBRANCH   1  12
BRANCH   7  15
ATOM     15  N   UNL     1       0.077  -4.631   2.428  0.00  0.00    -0.170 NA
ATOM     16  C   UNL     1      -0.005  -5.496   3.393  0.00  0.00    +0.145 C 
BRANCH  16  17
ATOM     17  C   UNL     1      -0.115  -5.035   4.788  0.00  0.00    +0.036 A 
ATOM     18  C   UNL     1      -0.197  -5.962   5.830  0.00  0.00    +0.013 A 
ATOM     19  C   UNL     1      -0.300  -5.523   7.133  0.00  0.00    +0.001 A 
ATOM     20  C   UNL     1      -0.323  -4.168   7.414  0.00  0.00    +0.004 A 
ATOM     21  C   UNL     1      -0.243  -3.240   6.392  0.00  0.00    +0.046 A 
ATOM     22  C   UNL     1      -0.133  -3.663   5.077  0.00  0.00    +0.125 A 
BRANCH  22  23
ATOM     23  O   UNL     1      -0.048  -2.753   4.073  0.00  0.00    -0.506 OA
ATOM     24  H   UNL     1      -0.903  -2.486   3.711  0.00  0.00    +0.292 HD
ENDBRANCH  22  23
ENDBRANCH  16  17
ENDBRANCH   7  15
TORSDOF 4
