REMARK  Name = ZINC06014957
REMARK  11 active torsions:
REMARK  status: ('A' for Active; 'I' for Inactive)
REMARK    1  A    between atoms: C_1  and  C_2
REMARK    2  A    between atoms: C_2  and  C_3
REMARK    3  A    between atoms: C_2  and  C_4
REMARK    4  A    between atoms: C_2  and  N_5
REMARK    5  A    between atoms: C_6  and  C_10
REMARK    6  A    between atoms: C_10  and  C_12
REMARK    7  A    between atoms: C_10  and  N_65
REMARK    8  A    between atoms: C_27  and  C_28
REMARK    9  A    between atoms: C_27  and  N_65
REMARK   10  A    between atoms: C_34  and  C_35
REMARK   11  A    between atoms: C_34  and  N_65
REMARK                            x       y       z     vdW  Elec       q    Type
REMARK                         _______ _______ _______ _____ _____    ______ ____
ROOT
ATOM      1  C   UNL     1      -0.787   1.939  -0.046  0.00  0.00    +0.040 C 
ENDROOT
BRANCH   1   2
ATOM      2  C   UNL     1      -1.778   2.346   1.013  0.00  0.00    +0.011 A 
ATOM      3  C   UNL     1      -1.806   3.629   1.457  0.00  0.00    +0.017 A 
ATOM      4  C   UNL     1      -2.780   3.993   2.485  0.00  0.00    +0.002 A 
ATOM      5  C   UNL     1      -2.854   5.301   2.979  0.00  0.00    +0.059 A 
ATOM      6  C   UNL     1      -3.783   5.614   3.947  0.00  0.00    +0.167 A 
ATOM      7  C   UNL     1      -4.650   4.629   4.438  0.00  0.00    +0.168 A 
ATOM      8  C   UNL     1      -4.583   3.335   3.956  0.00  0.00    +0.075 A 
ATOM      9  C   UNL     1      -3.652   3.003   2.979  0.00  0.00    +0.053 A 
ATOM     10  N   UNL     1      -3.572   1.717   2.486  0.00  0.00    -0.322 N 
ATOM     11  H   UNL     1      -4.189   1.014   2.840  0.00  0.00    +0.169 HD
ATOM     12  C   UNL     1      -2.677   1.395   1.536  0.00  0.00    +0.251 A 
ATOM     13  O   UNL     1      -2.639   0.249   1.119  0.00  0.00    -0.268 OA
ATOM     14  O   UNL     1      -5.460   5.196   5.378  0.00  0.00    -0.453 OA
ATOM     15  C   UNL     1      -5.364   6.616   5.164  0.00  0.00    +0.466 C 
ATOM     16  O   UNL     1      -4.058   6.790   4.584  0.00  0.00    -0.453 OA
ENDBRANCH   1   2
BRANCH   1  18
ATOM     17  N   UNL     1      -1.780   2.151  -2.385  0.00  0.00    -0.225 N 
ATOM     18  C   UNL     1      -1.526   1.450  -1.265  0.00  0.00    +0.143 A 
ATOM     19  N   UNL     1      -2.041   0.258  -1.441  0.00  0.00    -0.115 NA
ATOM     20  N   UNL     1      -2.590   0.230  -2.606  0.00  0.00    -0.023 NA
ATOM     21  N   UNL     1      -2.432   1.371  -3.181  0.00  0.00    -0.043 NA
BRANCH  17  23
ATOM     22  C   UNL     1       0.135   3.637  -2.706  0.00  0.00    +0.036 C 
ATOM     23  C   UNL     1      -1.391   3.538  -2.652  0.00  0.00    +0.059 C 
ATOM     24  C   UNL     1      -1.979   3.984  -3.992  0.00  0.00    +0.036 C 
ATOM     25  C   UNL     1      -1.921   4.440  -1.536  0.00  0.00    +0.036 C 
ENDBRANCH  17  23
ENDBRANCH   1  18
BRANCH   1  26
ATOM     26  N   UNL     1       0.055   0.839   0.471  0.00  0.00    +0.397 N 
ATOM     27  H   UNL     1      -0.481  -0.036   0.435  0.00  0.00    -0.079 HD
BRANCH  26  28
ATOM     28  C   UNL     1       0.436   1.111   1.873  0.00  0.00    -0.039 C 
BRANCH  28  29
ATOM     29  C   UNL     1       0.685  -0.203   2.567  0.00  0.00    -0.046 A 
ATOM     30  C   UNL     1      -0.366  -0.907   3.135  0.00  0.00    +0.005 A 
ATOM     31  C   UNL     1      -0.091  -2.114   3.760  0.00  0.00    +0.020 A 
ATOM     32  C   UNL     1       1.214  -2.568   3.802  0.00  0.00    +0.111 A 
ATOM     33  N   UNL     1       2.190  -1.869   3.255  0.00  0.00    -0.263 NA
ATOM     34  C   UNL     1       1.964  -0.720   2.649  0.00  0.00    +0.112 A 
ENDBRANCH  28  29
ENDBRANCH  26  28
BRANCH  26  35
ATOM     35  C   UNL     1       1.266   0.695  -0.364  0.00  0.00    -0.001 C 
BRANCH  35  36
ATOM     36  C   UNL     1       2.175   1.883  -0.185  0.00  0.00    +0.089 A 
ATOM     37  C   UNL     1       3.238   1.944   0.637  0.00  0.00    +0.042 A 
ATOM     38  C   UNL     1       3.797   3.234   0.489  0.00  0.00    +0.041 A 
ATOM     39  C   UNL     1       3.043   3.884  -0.416  0.00  0.00    +0.195 A 
ATOM     40  O   UNL     1       2.066   3.059  -0.825  0.00  0.00    -0.470 OA
ENDBRANCH  35  36
ENDBRANCH  26  35
ENDBRANCH   1  26
TORSDOF 8
