REMARK  Name = ZINC12637658
REMARK  7 active torsions:
REMARK  status: ('A' for Active; 'I' for Inactive)
REMARK    1  A    between atoms: C_3  and  O_37
REMARK    2  A    between atoms: C_6  and  C_7
REMARK    3  A    between atoms: C_7  and  C_9
REMARK    4  A    between atoms: C_7  and  N_17
REMARK    5  A    between atoms: N_11  and  C_12
REMARK    6  A    between atoms: N_17  and  C_18
REMARK    7  A    between atoms: C_25  and  C_27
REMARK                            x       y       z     vdW  Elec       q    Type
REMARK                         _______ _______ _______ _____ _____    ______ ____
ROOT
ATOM      1  N   UNL     1       4.025  -1.781   0.136  0.00  0.00    -0.251 N 
ATOM      2  C   UNL     1       3.777  -0.767  -0.717  0.00  0.00    +0.252 C 
ATOM      3  O   UNL     1       3.290   0.268  -0.305  0.00  0.00    -0.270 OA
ENDROOT
BRANCH   2   4
ATOM      4  C   UNL     1       4.097  -0.913  -2.150  0.00  0.00    +0.041 A 
ATOM      5  C   UNL     1       5.082  -1.816  -2.559  0.00  0.00    +0.017 A 
ATOM      6  C   UNL     1       5.380  -1.948  -3.898  0.00  0.00    +0.050 A 
ATOM      7  C   UNL     1       4.704  -1.187  -4.845  0.00  0.00    +0.162 A 
ATOM      8  C   UNL     1       3.719  -0.288  -4.443  0.00  0.00    +0.163 A 
ATOM      9  C   UNL     1       3.417  -0.149  -3.101  0.00  0.00    +0.062 A 
ATOM     10  O   UNL     1       3.042   0.458  -5.359  0.00  0.00    -0.485 OA
ATOM     11  C   UNL     1       3.629   0.566  -6.660  0.00  0.00    +0.270 C 
ATOM     12  C   UNL     1       4.067  -0.835  -7.107  0.00  0.00    +0.270 C 
ATOM     13  O   UNL     1       5.020  -1.329  -6.159  0.00  0.00    -0.485 OA
ENDBRANCH   2   4
BRANCH   1  14
ATOM     14  C   UNL     1       3.487  -1.757   1.427  0.00  0.00    +0.038 A 
ATOM     15  C   UNL     1       2.129  -1.978   1.619  0.00  0.00    +0.025 A 
ATOM     16  C   UNL     1       1.601  -1.960   2.895  0.00  0.00    +0.022 A 
ATOM     17  C   UNL     1       2.421  -1.710   3.981  0.00  0.00    +0.041 A 
ATOM     18  C   UNL     1       3.774  -1.484   3.792  0.00  0.00    +0.022 A 
ATOM     19  C   UNL     1       4.308  -1.507   2.519  0.00  0.00    +0.025 A 
ATOM     20 CL   UNL     1       1.753  -1.681   5.583  0.00  0.00    -0.084 Cl
ENDBRANCH   1  14
BRANCH   1  21
ATOM     21  C   UNL     1       4.858  -2.909  -0.289  0.00  0.00    +0.197 C 
BRANCH  21  27
ATOM     22  C   UNL     1       3.806  -4.639   1.181  0.00  0.00    +0.009 A 
ATOM     23  C   UNL     1       3.874  -5.575   2.195  0.00  0.00    +0.046 A 
ATOM     24  C   UNL     1       5.073  -5.789   2.861  0.00  0.00    +0.117 A 
ATOM     25  C   UNL     1       6.201  -5.066   2.502  0.00  0.00    +0.046 A 
ATOM     26  C   UNL     1       6.130  -4.136   1.483  0.00  0.00    +0.009 A 
ATOM     27  C   UNL     1       4.934  -3.925   0.821  0.00  0.00    -0.018 A 
BRANCH  24  28
ATOM     28  O   UNL     1       5.141  -6.704   3.863  0.00  0.00    -0.507 OA
ATOM     29  H   UNL     1       4.946  -6.343   4.739  0.00  0.00    +0.292 HD
ENDBRANCH  24  28
ENDBRANCH  21  27
BRANCH  21  30
ATOM     30  C   UNL     1       4.253  -3.547  -1.513  0.00  0.00    +0.239 C 
ATOM     31  O   UNL     1       3.227  -3.103  -1.984  0.00  0.00    -0.273 OA
ATOM     32  N   UNL     1       4.853  -4.610  -2.085  0.00  0.00    -0.311 N 
ATOM     33  H   UNL     1       5.673  -4.965  -1.708  0.00  0.00    +0.149 HD
BRANCH  32  34
ATOM     34  C   UNL     1       4.265  -5.231  -3.275  0.00  0.00    +0.073 C 
ATOM     35  C   UNL     1       3.240  -6.306  -2.858  0.00  0.00    +0.022 C 
ATOM     36  C   UNL     1       3.423  -7.431  -3.908  0.00  0.00    +0.002 C 
ATOM     37  C   UNL     1       4.955  -7.441  -4.135  0.00  0.00    +0.002 C 
ATOM     38  C   UNL     1       5.355  -5.952  -4.086  0.00  0.00    +0.022 C 
ENDBRANCH  32  34
ENDBRANCH  21  30
ENDBRANCH   1  21
TORSDOF 7
