REMARK  Name = ZINC19898558
REMARK  9 active torsions:
REMARK  status: ('A' for Active; 'I' for Inactive)
REMARK    1  A    between atoms: C_1  and  O_2
REMARK    2  A    between atoms: O_2  and  C_3
REMARK    3  A    between atoms: C_3  and  C_4
REMARK    4  A    between atoms: C_4  and  C_5
REMARK    5  A    between atoms: C_5  and  N_6
REMARK    6  A    between atoms: C_7  and  C_18
REMARK    7  A    between atoms: N_11  and  C_12
REMARK    8  A    between atoms: C_21  and  S_24
REMARK    9  A    between atoms: S_24  and  N_27
REMARK                            x       y       z     vdW  Elec       q    Type
REMARK                         _______ _______ _______ _____ _____    ______ ____
ROOT
ATOM      1  N   UNL     1      -3.403  -1.682   0.712  0.00  0.00    -0.321 N 
ATOM      2  C   UNL     1      -2.629  -2.504  -0.061  0.00  0.00    +0.058 A 
ATOM      3  C   UNL     1      -1.722  -1.968  -0.903  0.00  0.00    +0.075 A 
ATOM      4  S   UNL     1      -1.944  -0.217  -0.628  0.00  0.00    -0.059 S 
ATOM      5  C   UNL     1      -3.232  -0.322   0.605  0.00  0.00    +0.152 A 
ATOM      6  N   UNL     1      -3.858   0.649   1.242  0.00  0.00    -0.336 N 
ATOM      7  H   UNL     1      -4.593   0.410   2.024  0.00  0.00    +0.168 HD
ENDROOT
BRANCH   6   8
ATOM      8  C   UNL     1      -3.593   1.954   0.929  0.00  0.00    +0.041 A 
ATOM      9  C   UNL     1      -2.599   2.653   1.618  0.00  0.00    +0.025 A 
ATOM     10  C   UNL     1      -2.333   3.967   1.293  0.00  0.00    +0.002 A 
ATOM     11  C   UNL     1      -3.056   4.596   0.295  0.00  0.00    +0.000 A 
ATOM     12  C   UNL     1      -4.046   3.911  -0.389  0.00  0.00    +0.002 A 
ATOM     13  C   UNL     1      -4.319   2.595  -0.079  0.00  0.00    +0.025 A 
ENDBRANCH   6   8
BRANCH   2  14
ATOM     14  C   UNL     1      -2.784  -3.972   0.027  0.00  0.00    -0.001 A 
ATOM     15  C   UNL     1      -1.659  -4.798   0.025  0.00  0.00    +0.012 A 
ATOM     16  C   UNL     1      -1.811  -6.166   0.112  0.00  0.00    +0.029 A 
ATOM     17  C   UNL     1      -3.076  -6.721   0.190  0.00  0.00    +0.106 A 
ATOM     18  C   UNL     1      -4.196  -5.908   0.187  0.00  0.00    +0.029 A 
ATOM     19  C   UNL     1      -4.058  -4.538   0.106  0.00  0.00    +0.012 A 
BRANCH  17  20
ATOM     20  S   UNL     1      -3.262  -8.470   0.294  0.00  0.00    +0.061 S 
ATOM     21  O   UNL     1      -2.047  -8.976   0.829  0.00  0.00    -0.153 OA
ATOM     22  O   UNL     1      -4.522  -8.709   0.907  0.00  0.00    -0.153 OA
BRANCH  20  23
ATOM     23  N   UNL     1      -3.373  -9.044  -1.255  0.00  0.00    -0.177 NA
ATOM     24  C   UNL     1      -4.681  -9.153  -1.861  0.00  0.00    +0.109 C 
ATOM     25  C   UNL     1      -5.288 -10.538  -1.554  0.00  0.00    +0.017 C 
ATOM     26  C   UNL     1      -4.582 -11.584  -2.309  0.00  0.00    +0.001 C 
ATOM     27  C   UNL     1      -3.106 -11.729  -1.951  0.00  0.00    +0.001 C 
ATOM     28  C   UNL     1      -2.297 -10.738  -2.750  0.00  0.00    +0.017 C 
ATOM     29  C   UNL     1      -2.133  -9.428  -1.958  0.00  0.00    +0.109 C 
ENDBRANCH  20  23
ENDBRANCH  17  20
ENDBRANCH   2  14
BRANCH   1  30
ATOM     30  C   UNL     1      -4.396  -2.240   1.633  0.00  0.00    +0.126 C 
BRANCH  30  31
ATOM     31  C   UNL     1      -4.449  -1.388   2.903  0.00  0.00    +0.050 C 
BRANCH  31  32
ATOM     32  C   UNL     1      -5.485  -1.971   3.865  0.00  0.00    +0.161 C 
BRANCH  32  34
ATOM     33  C   UNL     1      -6.477  -1.635   6.022  0.00  0.00    +0.193 C 
ATOM     34  O   UNL     1      -5.535  -1.175   5.051  0.00  0.00    -0.383 OA
ENDBRANCH  32  34
ENDBRANCH  31  32
ENDBRANCH  30  31
ENDBRANCH   1  30
TORSDOF 8
