REMARK  Name = ZINC01427804
REMARK  5 active torsions:
REMARK  status: ('A' for Active; 'I' for Inactive)
REMARK    1  A    between atoms: C_1  and  C_2
REMARK    2  A    between atoms: C_3  and  C_29
REMARK    3  A    between atoms: C_4  and  C_20
REMARK    4  A    between atoms: C_10  and  C_15
REMARK    5  A    between atoms: N_31  and  C_32
REMARK                            x       y       z     vdW  Elec       q    Type
REMARK                         _______ _______ _______ _____ _____    ______ ____
ROOT
ATOM      1  C   UNL     1      -5.966   1.646  -0.017  0.00  0.00    +0.061 C 
ATOM      2  C   UNL     1      -5.994   3.148  -0.130  0.00  0.00    +0.014 C 
ATOM      3  C   UNL     1      -4.842   3.838  -0.143  0.00  0.00    +0.043 C 
ATOM      4  C   UNL     1      -4.832   5.335  -0.241  0.00  0.00    +0.090 C 
ATOM      5  C   UNL     1      -6.155   5.851  -0.754  0.00  0.00    +0.024 C 
ATOM      6  C   UNL     1      -7.260   5.076  -0.709  0.00  0.00    +0.016 C 
ATOM      7  N   UNL     1      -7.194   3.800  -0.219  0.00  0.00    -0.321 N 
ATOM      8  C   UNL     1      -8.592   5.594  -1.192  0.00  0.00    +0.060 C 
ATOM      9  C   UNL     1      -8.372   6.600  -2.324  0.00  0.00    +0.039 C 
ATOM     10  C   UNL     1      -7.489   7.737  -1.800  0.00  0.00    +0.088 C 
ATOM     11  C   UNL     1      -6.206   7.157  -1.270  0.00  0.00    +0.162 C 
ATOM     12  O   UNL     1      -5.195   7.831  -1.289  0.00  0.00    -0.292 OA
ATOM     13  H   UNL     1      -8.117   3.298   0.106  0.00  0.00    +0.152 HD
ENDROOT
BRANCH   4  14
ATOM     14  C   UNL     1      -4.563   5.919   1.122  0.00  0.00    -0.032 A 
ATOM     15  C   UNL     1      -5.426   5.654   2.168  0.00  0.00    +0.008 A 
ATOM     16  C   UNL     1      -5.184   6.188   3.420  0.00  0.00    +0.050 A 
ATOM     17  C   UNL     1      -4.074   6.990   3.629  0.00  0.00    +0.166 A 
ATOM     18  C   UNL     1      -3.204   7.257   2.575  0.00  0.00    +0.167 A 
ATOM     19  C   UNL     1      -3.450   6.714   1.324  0.00  0.00    +0.054 A 
ATOM     20  O   UNL     1      -2.200   8.062   3.030  0.00  0.00    -0.453 OA
ATOM     21  C   UNL     1      -2.240   7.951   4.465  0.00  0.00    +0.466 C 
ATOM     22  O   UNL     1      -3.615   7.628   4.745  0.00  0.00    -0.453 OA
ENDBRANCH   4  14
BRANCH   9  23
ATOM     23  C   UNL     1      -9.699   7.152  -2.777  0.00  0.00    -0.006 A 
ATOM     24  C   UNL     1     -10.277   7.090  -4.001  0.00  0.00    +0.011 A 
ATOM     25  C   UNL     1     -11.516   7.673  -4.189  0.00  0.00    +0.008 A 
ATOM     26  C   UNL     1     -12.117   8.289  -3.142  0.00  0.00    +0.045 A 
ATOM     27  S   UNL     1     -10.923   8.049  -1.836  0.00  0.00    -0.101 S 
ENDBRANCH   9  23
BRANCH   3  28
ATOM     28  C   UNL     1      -3.613   3.139  -0.055  0.00  0.00    +0.247 C 
ATOM     29  O   UNL     1      -3.603   1.922  -0.066  0.00  0.00    -0.270 OA
ATOM     30  N   UNL     1      -2.455   3.822   0.039  0.00  0.00    -0.282 N 
ATOM     31  H   UNL     1      -2.468   4.919   0.123  0.00  0.00    +0.155 HD
BRANCH  30  32
ATOM     32  C   UNL     1      -1.236   3.136   0.031  0.00  0.00    +0.034 A 
ATOM     33  C   UNL     1      -0.122   3.704  -0.574  0.00  0.00    +0.023 A 
ATOM     34  C   UNL     1       1.079   3.022  -0.585  0.00  0.00    +0.002 A 
ATOM     35  C   UNL     1       1.175   1.779   0.014  0.00  0.00    +0.000 A 
ATOM     36  C   UNL     1       0.069   1.214   0.623  0.00  0.00    +0.002 A 
ATOM     37  C   UNL     1      -1.136   1.889   0.633  0.00  0.00    +0.023 A 
ENDBRANCH  30  32
ENDBRANCH   3  28
TORSDOF 4
