REMARK  Name = ZINC23617961
REMARK  7 active torsions:
REMARK  status: ('A' for Active; 'I' for Inactive)
REMARK    1  A    between atoms: C_1  and  C_2
REMARK    2  A    between atoms: C_11  and  N_22
REMARK    3  A    between atoms: C_13  and  C_15
REMARK    4  A    between atoms: C_15  and  N_16
REMARK    5  A    between atoms: N_22  and  C_23
REMARK    6  A    between atoms: C_23  and  C_24
REMARK    7  A    between atoms: C_24  and  C_25
REMARK                            x       y       z     vdW  Elec       q    Type
REMARK                         _______ _______ _______ _____ _____    ______ ____
ROOT
ATOM      1  C   UNL     1       6.482  13.380   1.710  0.00  0.00    +0.008 C 
ATOM      2  C   UNL     1       5.301  12.801   0.929  0.00  0.00    -0.009 C 
ATOM      3  C   UNL     1       5.543  11.313   0.656  0.00  0.00    +0.008 C 
ATOM      4  C   UNL     1       4.269  10.674   0.100  0.00  0.00    +0.037 C 
ATOM      5  C   UNL     1       3.786  11.494  -1.093  0.00  0.00    -0.025 A 
ATOM      6  C   UNL     1       4.213  12.759  -1.278  0.00  0.00    -0.004 A 
ATOM      7  S   UNL     1       3.408  13.309  -2.759  0.00  0.00    -0.073 S 
ATOM      8  C   UNL     1       2.495  11.834  -3.129  0.00  0.00    +0.114 A 
ATOM      9  C   UNL     1       2.850  10.958  -2.083  0.00  0.00    +0.051 A 
ATOM     10  C   UNL     1       2.247   9.671  -2.134  0.00  0.00    +0.131 A 
ATOM     11  N   UNL     1       1.423   9.385  -3.129  0.00  0.00    -0.216 NA
ATOM     12  C   UNL     1       1.131  10.259  -4.075  0.00  0.00    +0.146 A 
ATOM     13  N   UNL     1       1.660  11.468  -4.081  0.00  0.00    -0.223 NA
ATOM     14  C   UNL     1       5.164  13.531  -0.414  0.00  0.00    +0.046 C 
ENDROOT
BRANCH  10  15
ATOM     15  N   UNL     1       2.524   8.728  -1.160  0.00  0.00    -0.328 N 
ATOM     16  H   UNL     1       3.138   9.001  -0.289  0.00  0.00    +0.147 HD
BRANCH  15  17
ATOM     17  C   UNL     1       1.998   7.367  -1.287  0.00  0.00    +0.109 C 
BRANCH  17  18
ATOM     18  C   UNL     1       2.447   6.532  -0.086  0.00  0.00    +0.073 C 
BRANCH  18  19
ATOM     19  C   UNL     1       1.906   5.132  -0.217  0.00  0.00    +0.036 A 
ATOM     20  C   UNL     1       2.639   3.998  -0.190  0.00  0.00    +0.113 A 
ATOM     21  N   UNL     1       1.771   2.951  -0.341  0.00  0.00    -0.308 N 
ATOM     22  C   UNL     1       1.954   1.599  -0.387  0.00  0.00    +0.092 A 
ATOM     23  C   UNL     1       0.903   0.769  -0.549  0.00  0.00    +0.018 A 
ATOM     24  C   UNL     1      -0.396   1.287  -0.678  0.00  0.00    +0.005 A 
ATOM     25  C   UNL     1      -0.593   2.632  -0.628  0.00  0.00    +0.045 A 
ATOM     26  C   UNL     1       0.515   3.486  -0.458  0.00  0.00    +0.115 A 
ATOM     27  N   UNL     1       0.622   4.805  -0.381  0.00  0.00    -0.343 N 
ATOM     28  H   UNL     1      -0.144   5.593  -0.430  0.00  0.00    +0.167 HD
ENDBRANCH  18  19
ENDBRANCH  17  18
ENDBRANCH  15  17
ENDBRANCH  10  15
BRANCH  12  29
ATOM     29  C   UNL     1       0.179   9.866  -5.174  0.00  0.00    +0.160 C 
BRANCH  29  30
ATOM     30  N   UNL     1       0.932   9.269  -6.285  0.00  0.00    -0.291 NA
ATOM     31  C   UNL     1       1.803  10.265  -6.926  0.00  0.00    +0.113 C 
ATOM     32  C   UNL     1       2.612   9.590  -8.036  0.00  0.00    +0.175 C 
ATOM     33  O   UNL     1       1.715   8.976  -8.966  0.00  0.00    -0.377 OA
ATOM     34  C   UNL     1       0.853   8.000  -8.376  0.00  0.00    +0.175 C 
ATOM     35  C   UNL     1       0.026   8.659  -7.269  0.00  0.00    +0.113 C 
ENDBRANCH  29  30
ENDBRANCH  12  29
TORSDOF 6
