REMARK  Name = ZINC10130436
REMARK  4 active torsions:
REMARK  status: ('A' for Active; 'I' for Inactive)
REMARK    1  A    between atoms: C_1  and  C_2
REMARK    2  A    between atoms: N_4  and  C_27
REMARK    3  A    between atoms: C_8  and  N_9
REMARK    4  A    between atoms: N_9  and  N_10
REMARK                            x       y       z     vdW  Elec       q    Type
REMARK                         _______ _______ _______ _____ _____    ______ ____
ROOT
ATOM      1  N   UNL     1       0.164   0.807   2.840  0.00  0.00    -0.261 N 
ATOM      2  H   UNL     1      -0.058   1.468   2.166  0.00  0.00    +0.170 HD
ENDROOT
BRANCH   1   3
ATOM      3  N   UNL     1       0.392   1.205   4.164  0.00  0.00    -0.150 N 
ATOM      4  C   UNL     1      -0.565   0.954   5.081  0.00  0.00    +0.270 C 
ATOM      5  O   UNL     1      -1.593   0.395   4.749  0.00  0.00    -0.268 OA
ATOM      6  C   UNL     1      -0.365   1.353   6.480  0.00  0.00    +0.047 A 
ATOM      7  C   UNL     1      -1.284   1.141   7.497  0.00  0.00    +0.014 A 
ATOM      8  C   UNL     1      -1.024   1.551   8.806  0.00  0.00    +0.005 A 
ATOM      9  C   UNL     1       0.145   2.176   9.136  0.00  0.00    -0.039 A 
ATOM     10  C   UNL     1       1.076   2.395   8.124  0.00  0.00    -0.010 A 
ATOM     11  C   UNL     1       0.849   1.999   6.808  0.00  0.00    +0.007 A 
ATOM     12  C   UNL     1       1.837   2.253   5.830  0.00  0.00    +0.047 A 
ATOM     13  C   UNL     1       3.000   2.893   6.231  0.00  0.00    +0.014 A 
ATOM     14  C   UNL     1       3.195   3.276   7.559  0.00  0.00    +0.005 A 
ATOM     15  C   UNL     1       2.248   3.036   8.514  0.00  0.00    -0.039 A 
ATOM     16  C   UNL     1       2.124   3.301   9.995  0.00  0.00    +0.040 C 
ATOM     17  C   UNL     1       0.744   2.737  10.402  0.00  0.00    +0.040 C 
ATOM     18  C   UNL     1       1.560   1.815   4.455  0.00  0.00    +0.270 C 
ATOM     19  O   UNL     1       2.381   2.006   3.579  0.00  0.00    -0.268 OA
ENDBRANCH   1   3
BRANCH   1  27
ATOM     20  C   UNL     1       0.039   1.504   0.006  0.00  0.00    +0.068 C 
ATOM     21  C   UNL     1       0.036  -0.003  -0.001  0.00  0.00    +0.070 C 
ATOM     22  N   UNL     1      -0.051  -0.764  -1.048  0.00  0.00    -0.176 NA
ATOM     23  N   UNL     1      -0.025  -2.114  -0.697  0.00  0.00    -0.155 N 
ATOM     24  C   UNL     1       0.084  -2.243   0.641  0.00  0.00    +0.273 C 
ATOM     25  O   UNL     1       0.134  -3.283   1.276  0.00  0.00    -0.268 OA
ATOM     26  C   UNL     1       0.136  -0.877   1.177  0.00  0.00    +0.076 C 
ATOM     27  C   UNL     1       0.252  -0.496   2.503  0.00  0.00    +0.103 C 
BRANCH  23  28
ATOM     28  C   UNL     1      -0.101  -3.180  -1.602  0.00  0.00    +0.080 A 
ATOM     29  C   UNL     1       0.881  -4.162  -1.605  0.00  0.00    +0.047 A 
ATOM     30  C   UNL     1       0.803  -5.213  -2.499  0.00  0.00    +0.043 A 
ATOM     31  C   UNL     1      -0.253  -5.287  -3.392  0.00  0.00    +0.021 A 
ATOM     32  C   UNL     1      -1.231  -4.311  -3.392  0.00  0.00    +0.023 A 
ATOM     33  C   UNL     1      -1.162  -3.260  -2.496  0.00  0.00    +0.064 A 
ATOM     34 CL   UNL     1      -2.395  -2.039  -2.493  0.00  0.00    -0.082 Cl
ATOM     35 CL   UNL     1       2.030  -6.441  -2.503  0.00  0.00    -0.083 Cl
ENDBRANCH  23  28
ENDBRANCH   1  27
TORSDOF 3
