REMARK  Name = ZINC39938809
REMARK  8 active torsions:
REMARK  status: ('A' for Active; 'I' for Inactive)
REMARK    1  A    between atoms: C_1  and  C_2
REMARK    2  A    between atoms: C_4  and  C_39
REMARK    3  A    between atoms: C_5  and  C_37
REMARK    4  A    between atoms: C_6  and  N_16
REMARK    5  A    between atoms: N_8  and  C_9
REMARK    6  A    between atoms: C_17  and  C_19
REMARK    7  A    between atoms: C_19  and  N_20
REMARK    8  A    between atoms: C_23  and  N_26
REMARK                            x       y       z     vdW  Elec       q    Type
REMARK                         _______ _______ _______ _____ _____    ______ ____
ROOT
ATOM      1  N   UNL     1       1.562  -2.505   1.303  0.00  0.00    -0.294 N 
ATOM      2  C   UNL     1       2.313  -2.939   2.334  0.00  0.00    +0.198 C 
ATOM      3  O   UNL     1       3.085  -2.182   2.884  0.00  0.00    -0.278 OA
ATOM      4  H   UNL     1       0.904  -3.093   0.900  0.00  0.00    +0.151 HD
ENDROOT
BRANCH   1   9
ATOM      5  C   UNL     1       0.022   1.643  -0.243  0.00  0.00    +0.033 C 
ATOM      6  C   UNL     1       0.007   0.115  -0.165  0.00  0.00    +0.099 C 
ATOM      7  C   UNL     1       0.875  -0.462  -1.251  0.00  0.00    -0.036 C 
ATOM      8  C   UNL     1       1.855  -1.174  -0.712  0.00  0.00    +0.068 C 
ATOM      9  C   UNL     1       1.739  -1.144   0.790  0.00  0.00    +0.203 C 
ATOM     10  N   UNL     1       0.562  -0.325   1.122  0.00  0.00    -0.300 N 
ATOM     11  C   UNL     1       0.663  -0.261  -2.729  0.00  0.00    +0.042 C 
BRANCH  10  12
ATOM     12  C   UNL     1       0.074  -0.025   2.396  0.00  0.00    +0.035 A 
ATOM     13  C   UNL     1      -1.131   0.651   2.538  0.00  0.00    +0.023 A 
ATOM     14  C   UNL     1      -1.612   0.946   3.799  0.00  0.00    +0.005 A 
ATOM     15  C   UNL     1      -0.897   0.569   4.920  0.00  0.00    +0.038 A 
ATOM     16  C   UNL     1       0.305  -0.106   4.783  0.00  0.00    +0.125 A 
ATOM     17  C   UNL     1       0.789  -0.409   3.523  0.00  0.00    +0.061 A 
ATOM     18  F   UNL     1       1.002  -0.473   5.881  0.00  0.00    -0.205 F 
ENDBRANCH  10  12
BRANCH   8  19
ATOM     19  C   UNL     1       2.870  -1.867  -1.446  0.00  0.00    +0.098 C 
ATOM     20  N   UNL     1       3.675  -2.418  -2.029  0.00  0.00    -0.191 NA
ENDBRANCH   8  19
ENDBRANCH   1   9
BRANCH   2  21
ATOM     21  C   UNL     1       2.194  -4.366   2.804  0.00  0.00    +0.019 C 
BRANCH  21  22
ATOM     22  N   UNL     1       3.110  -4.588   3.931  0.00  0.00    +0.386 N 
ATOM     23  C   UNL     1       2.694  -3.760   5.069  0.00  0.00    -0.076 C 
ATOM     24  C   UNL     1       3.691  -3.926   6.217  0.00  0.00    +0.006 C 
ATOM     25  C   UNL     1       3.731  -5.397   6.642  0.00  0.00    +0.089 C 
ATOM     26  C   UNL     1       4.094  -6.259   5.429  0.00  0.00    +0.006 C 
ATOM     27  C   UNL     1       3.082  -6.006   4.310  0.00  0.00    -0.076 C 
ATOM     28  H   UNL     1       4.047  -4.333   3.657  0.00  0.00    -0.081 HD
BRANCH  25  29
ATOM     29  N   UNL     1       4.739  -5.577   7.690  0.00  0.00    -0.289 N 
ATOM     30  C   UNL     1       4.501  -6.054   8.977  0.00  0.00    +0.070 A 
ATOM     31  C   UNL     1       3.358  -6.478   9.638  0.00  0.00    +0.028 A 
ATOM     32  C   UNL     1       3.441  -6.907  10.948  0.00  0.00    +0.002 A 
ATOM     33  C   UNL     1       4.660  -6.917  11.604  0.00  0.00    +0.002 A 
ATOM     34  C   UNL     1       5.804  -6.496  10.953  0.00  0.00    +0.028 A 
ATOM     35  C   UNL     1       5.731  -6.064   9.638  0.00  0.00    +0.067 A 
ATOM     36  N   UNL     1       6.678  -5.592   8.732  0.00  0.00    -0.306 N 
ATOM     37  H   UNL     1       7.626  -5.486   8.906  0.00  0.00    +0.170 HD
ATOM     38  C   UNL     1       6.054  -5.314   7.572  0.00  0.00    +0.328 A 
ATOM     39  O   UNL     1       6.596  -4.886   6.570  0.00  0.00    -0.247 OA
ENDBRANCH  25  29
ENDBRANCH  21  22
ENDBRANCH   2  21
TORSDOF 6
