REMARK  Name = ZINC13527576
REMARK  11 active torsions:
REMARK  status: ('A' for Active; 'I' for Inactive)
REMARK    1  A    between atoms: C_1  and  C_2
REMARK    2  A    between atoms: C_2  and  C_3
REMARK    3  A    between atoms: C_2  and  C_4
REMARK    4  A    between atoms: C_2  and  C_5
REMARK    5  A    between atoms: C_7  and  N_16
REMARK    6  A    between atoms: C_9  and  C_12
REMARK    7  A    between atoms: C_10  and  O_11
REMARK    8  A    between atoms: C_12  and  C_13
REMARK    9  A    between atoms: C_12  and  C_14
REMARK   10  A    between atoms: C_12  and  C_15
REMARK   11  A    between atoms: C_24  and  C_25
REMARK                            x       y       z     vdW  Elec       q    Type
REMARK                         _______ _______ _______ _____ _____    ______ ____
ROOT
ATOM      1  N   UNL     1       2.529  -2.629   0.012  0.00  0.00    -0.292 N 
ATOM      2  C   UNL     1       3.040  -3.415   1.031  0.00  0.00    +0.078 A 
ATOM      3  C   UNL     1       2.665  -3.643   2.347  0.00  0.00    +0.077 A 
ATOM      4  C   UNL     1       3.401  -4.510   3.136  0.00  0.00    +0.164 A 
ATOM      5  C   UNL     1       4.520  -5.159   2.612  0.00  0.00    +0.164 A 
ATOM      6  C   UNL     1       4.903  -4.939   1.304  0.00  0.00    +0.079 A 
ATOM      7  C   UNL     1       4.167  -4.065   0.498  0.00  0.00    +0.094 A 
ATOM      8  N   UNL     1       4.293  -3.659  -0.789  0.00  0.00    -0.227 NA
ATOM      9  C   UNL     1       3.331  -2.819  -1.085  0.00  0.00    +0.148 A 
ATOM     10  O   UNL     1       5.246  -6.019   3.380  0.00  0.00    -0.485 OA
ATOM     11  C   UNL     1       5.059  -5.933   4.796  0.00  0.00    +0.270 C 
ATOM     12  C   UNL     1       3.551  -5.874   5.079  0.00  0.00    +0.270 C 
ATOM     13  O   UNL     1       3.018  -4.716   4.427  0.00  0.00    -0.485 OA
ENDROOT
BRANCH   9  14
ATOM     14  C   UNL     1       3.141  -2.171  -2.399  0.00  0.00    +0.036 A 
ATOM     15  C   UNL     1       1.881  -2.164  -3.002  0.00  0.00    +0.014 A 
ATOM     16  C   UNL     1       1.709  -1.554  -4.226  0.00  0.00    +0.021 A 
ATOM     17  C   UNL     1       2.784  -0.958  -4.865  0.00  0.00    +0.042 A 
ATOM     18  C   UNL     1       4.037  -0.966  -4.276  0.00  0.00    +0.040 A 
ATOM     19  C   UNL     1       4.221  -1.569  -3.047  0.00  0.00    +0.053 A 
ATOM     20 CL   UNL     1       5.793  -1.577  -2.309  0.00  0.00    -0.083 Cl
ATOM     21 CL   UNL     1       2.560  -0.199  -6.409  0.00  0.00    -0.083 Cl
ENDBRANCH   9  14
BRANCH   1  24
ATOM     22  C   UNL     1       0.434   0.394   0.066  0.00  0.00    +0.002 A 
ATOM     23  C   UNL     1       1.545  -0.422  -0.005  0.00  0.00    +0.034 A 
ATOM     24  C   UNL     1       1.401  -1.800   0.085  0.00  0.00    +0.049 A 
ATOM     25  C   UNL     1       0.140  -2.356   0.248  0.00  0.00    +0.034 A 
ATOM     26  C   UNL     1      -0.971  -1.539   0.319  0.00  0.00    +0.002 A 
ATOM     27  C   UNL     1      -0.826  -0.162   0.234  0.00  0.00    +0.124 A 
BRANCH  22  29
ATOM     28  C   UNL     1       2.070   2.238  -0.206  0.00  0.00    +0.015 C 
ATOM     29  C   UNL     1       0.590   1.890  -0.032  0.00  0.00    -0.009 C 
ATOM     30  C   UNL     1      -0.200   2.407  -1.236  0.00  0.00    +0.015 C 
ATOM     31  C   UNL     1       0.060   2.543   1.246  0.00  0.00    +0.015 C 
ENDBRANCH  22  29
BRANCH  26  32
ATOM     32  C   UNL     1      -2.340  -2.143   0.496  0.00  0.00    -0.009 C 
ATOM     33  C   UNL     1      -2.221  -3.666   0.567  0.00  0.00    +0.015 C 
ATOM     34  C   UNL     1      -2.965  -1.619   1.791  0.00  0.00    +0.015 C 
ATOM     35  C   UNL     1      -3.225  -1.755  -0.690  0.00  0.00    +0.015 C 
ENDBRANCH  26  32
BRANCH  27  36
ATOM     36  O   UNL     1      -1.919   0.643   0.311  0.00  0.00    -0.506 OA
ATOM     37  H   UNL     1      -2.332   0.828  -0.544  0.00  0.00    +0.292 HD
ENDBRANCH  27  36
ENDBRANCH   1  24
TORSDOF 5
