REMARK  Name = ZINC34759345
REMARK  9 active torsions:
REMARK  status: ('A' for Active; 'I' for Inactive)
REMARK    1  A    between atoms: C_1  and  C_2
REMARK    2  A    between atoms: C_5  and  C_36
REMARK    3  A    between atoms: C_6  and  C_8
REMARK    4  A    between atoms: C_8  and  S_9
REMARK    5  A    between atoms: S_9  and  C_10
REMARK    6  A    between atoms: C_14  and  C_20
REMARK    7  A    between atoms: C_15  and  C_19
REMARK    8  A    between atoms: N_24  and  C_27
REMARK    9  A    between atoms: C_27  and  C_28
REMARK                            x       y       z     vdW  Elec       q    Type
REMARK                         _______ _______ _______ _____ _____    ______ ____
ROOT
ATOM      1  C   UNL     1       1.641  -3.639   4.663  0.00  0.00    +0.191 A 
ATOM      2  N   UNL     1       2.742  -3.960   5.333  0.00  0.00    -0.206 NA
ATOM      3  C   UNL     1       2.699  -4.587   6.497  0.00  0.00    +0.134 A 
ATOM      4  C   UNL     1       1.436  -4.931   7.056  0.00  0.00    +0.051 A 
ATOM      5  C   UNL     1       1.129  -5.611   8.303  0.00  0.00    -0.028 A 
ATOM      6  C   UNL     1      -0.152  -5.832   8.630  0.00  0.00    -0.008 A 
ATOM      7  S   UNL     1      -1.058  -5.130   7.263  0.00  0.00    -0.073 S 
ATOM      8  C   UNL     1       0.310  -4.560   6.290  0.00  0.00    +0.115 A 
ATOM      9  N   UNL     1       0.438  -3.930   5.138  0.00  0.00    -0.215 NA
ATOM     10  C   UNL     1      -0.698  -6.511   9.859  0.00  0.00    +0.052 C 
ATOM     11  C   UNL     1       2.238  -6.064   9.217  0.00  0.00    +0.045 C 
ATOM     12  N   UNL     1       3.868  -4.904   7.163  0.00  0.00    -0.318 N 
ATOM     13  C   UNL     1       4.630  -6.115   6.820  0.00  0.00    +0.088 C 
ATOM     14  C   UNL     1       6.095  -5.721   6.602  0.00  0.00    -0.059 C 
ATOM     15  N   UNL     1       6.590  -5.009   7.787  0.00  0.00    +0.387 N 
ATOM     16  C   UNL     1       5.862  -3.745   7.951  0.00  0.00    -0.059 C 
ATOM     17  C   UNL     1       4.389  -4.037   8.232  0.00  0.00    +0.088 C 
ATOM     18  H   UNL     1       6.453  -5.584   8.605  0.00  0.00    -0.081 HD
ENDROOT
BRANCH   1  19
ATOM     19  S   UNL     1       1.783  -2.804   3.118  0.00  0.00    -0.081 S 
BRANCH  19  20
ATOM     20  C   UNL     1       0.064  -2.570   2.587  0.00  0.00    +0.112 C 
BRANCH  20  26
ATOM     21  C   UNL     1      -0.071   1.683  -0.047  0.00  0.00    +0.044 C 
ATOM     22  C   UNL     1      -0.024   0.178  -0.001  0.00  0.00    -0.050 A 
ATOM     23  C   UNL     1      -0.002  -0.550  -1.176  0.00  0.00    +0.003 A 
ATOM     24  C   UNL     1       0.041  -1.930  -1.134  0.00  0.00    +0.004 A 
ATOM     25  C   UNL     1       0.062  -2.584   0.084  0.00  0.00    -0.046 A 
ATOM     26  C   UNL     1       0.041  -1.857   1.259  0.00  0.00    -0.034 A 
ATOM     27  C   UNL     1       0.003  -0.476   1.217  0.00  0.00    +0.008 A 
ATOM     28  C   UNL     1       0.108  -4.090   0.130  0.00  0.00    +0.044 C 
ENDBRANCH  20  26
ENDBRANCH  19  20
ENDBRANCH   1  19
BRANCH  15  29
ATOM     29  C   UNL     1       8.023  -4.729   7.624  0.00  0.00    +0.019 C 
BRANCH  29  30
ATOM     30  C   UNL     1       8.561  -4.109   8.888  0.00  0.00    +0.199 C 
ATOM     31  O   UNL     1       7.823  -3.919   9.831  0.00  0.00    -0.278 OA
ATOM     32  N   UNL     1       9.861  -3.766   8.970  0.00  0.00    -0.299 N 
ATOM     33  C   UNL     1      10.774  -3.981   7.836  0.00  0.00    +0.136 C 
ATOM     34  C   UNL     1      11.525  -2.673   7.564  0.00  0.00    +0.179 C 
ATOM     35  O   UNL     1      12.120  -2.210   8.779  0.00  0.00    -0.377 OA
ATOM     36  C   UNL     1      11.179  -1.895   9.808  0.00  0.00    +0.179 C 
ATOM     37  C   UNL     1      10.409  -3.159  10.193  0.00  0.00    +0.136 C 
ENDBRANCH  29  30
ENDBRANCH  15  29
TORSDOF 5
