REMARK  Name = ZINC63111163
REMARK  11 active torsions:
REMARK  status: ('A' for Active; 'I' for Inactive)
REMARK    1  A    between atoms: C_1  and  O_2
REMARK    2  A    between atoms: O_2  and  C_3
REMARK    3  A    between atoms: C_6  and  C_20
REMARK    4  A    between atoms: C_8  and  C_9
REMARK    5  A    between atoms: C_9  and  S_10
REMARK    6  A    between atoms: S_10  and  C_11
REMARK    7  A    between atoms: N_21  and  N_22
REMARK    8  A    between atoms: N_22  and  C_23
REMARK    9  A    between atoms: C_23  and  N_25
REMARK   10  A    between atoms: N_25  and  C_26
REMARK   11  A    between atoms: C_26  and  C_27
REMARK                            x       y       z     vdW  Elec       q    Type
REMARK                         _______ _______ _______ _____ _____    ______ ____
ROOT
ATOM      1  C   UNL     1       0.626  -0.618   1.041  0.00  0.00    +0.124 A 
ATOM      2  C   UNL     1       1.202   0.143   2.050  0.00  0.00    +0.046 A 
ATOM      3  C   UNL     1       1.835  -0.476   3.107  0.00  0.00    +0.013 A 
ATOM      4  C   UNL     1       1.897  -1.871   3.161  0.00  0.00    -0.005 A 
ATOM      5  C   UNL     1       1.316  -2.632   2.144  0.00  0.00    +0.017 A 
ATOM      6  C   UNL     1       0.680  -2.005   1.094  0.00  0.00    +0.005 A 
ENDROOT
BRANCH   1   8
ATOM      7  C   UNL     1      -0.017   1.425   0.010  0.00  0.00    +0.277 C 
ATOM      8  O   UNL     1       0.002  -0.004   0.002  0.00  0.00    -0.495 OA
ENDBRANCH   1   8
BRANCH   4   9
ATOM      9  C   UNL     1       2.573  -2.537   4.289  0.00  0.00    +0.138 C 
ATOM     10  N   UNL     1       3.113  -1.828   5.233  0.00  0.00    -0.188 NA
BRANCH  10  11
ATOM     11  N   UNL     1       3.756  -2.461   6.304  0.00  0.00    -0.218 N 
ATOM     12  H   UNL     1       3.798  -3.430   6.341  0.00  0.00    +0.176 HD
BRANCH  11  13
ATOM     13  C   UNL     1       4.316  -1.725   7.285  0.00  0.00    +0.150 C 
ATOM     14  S   UNL     1       5.101  -2.499   8.594  0.00  0.00    -0.017 S 
BRANCH  13  15
ATOM     15  N   UNL     1       4.257  -0.380   7.234  0.00  0.00    -0.322 N 
ATOM     16  H   UNL     1       3.812   0.059   6.492  0.00  0.00    +0.148 HD
BRANCH  15  17
ATOM     17  C   UNL     1       4.866   0.421   8.299  0.00  0.00    +0.130 C 
BRANCH  17  18
ATOM     18  C   UNL     1       4.662   1.885   8.006  0.00  0.00    -0.016 C 
ATOM     19  C   UNL     1       4.091   2.658   8.896  0.00  0.00    +0.005 C 
ENDBRANCH  17  18
ENDBRANCH  15  17
ENDBRANCH  13  15
ENDBRANCH  11  13
ENDBRANCH  10  11
ENDBRANCH   4   9
BRANCH   6  20
ATOM     20  C   UNL     1       0.048  -2.825  -0.001  0.00  0.00    +0.111 C 
BRANCH  20  21
ATOM     21  S   UNL     1       1.267  -3.129  -1.309  0.00  0.00    -0.110 S 
BRANCH  21  22
ATOM     22  C   UNL     1       0.360  -4.114  -2.533  0.00  0.00    +0.236 C 
ATOM     23  N   UNL     1      -0.838  -3.390  -2.975  0.00  0.00    -0.355 N 
ATOM     24  C   UNL     1      -1.871  -4.119  -2.666  0.00  0.00    +0.061 A 
ATOM     25  C   UNL     1      -3.317  -3.932  -2.849  0.00  0.00    +0.027 A 
ATOM     26  C   UNL     1      -4.171  -4.881  -2.417  0.00  0.00    +0.002 A 
ATOM     27  C   UNL     1      -3.737  -6.062  -1.789  0.00  0.00    +0.002 A 
ATOM     28  C   UNL     1      -2.434  -6.333  -1.572  0.00  0.00    +0.027 A 
ATOM     29  C   UNL     1      -1.412  -5.369  -2.001  0.00  0.00    +0.061 A 
ATOM     30  N   UNL     1      -0.112  -5.364  -1.924  0.00  0.00    -0.355 N 
ATOM     31  H   UNL     1      -0.857  -2.526  -3.417  0.00  0.00    +0.162 HD
ATOM     32  H   UNL     1       0.442  -6.059  -1.536  0.00  0.00    +0.162 HD
ENDBRANCH  21  22
ENDBRANCH  20  21
ENDBRANCH   6  20
TORSDOF 10
