REMARK  Name = ZINC01149467
REMARK  7 active torsions:
REMARK  status: ('A' for Active; 'I' for Inactive)
REMARK    1  A    between atoms: C_7  and  C_19
REMARK    2  A    between atoms: C_7  and  O_33
REMARK    3  A    between atoms: N_10  and  C_11
REMARK    4  A    between atoms: C_11  and  C_12
REMARK    5  A    between atoms: C_19  and  C_20
REMARK    6  A    between atoms: C_20  and  C_22
REMARK    7  A    between atoms: C_23  and  C_24
REMARK                            x       y       z     vdW  Elec       q    Type
REMARK                         _______ _______ _______ _____ _____    ______ ____
ROOT
ATOM      1  C   UNL     1       3.011   7.478  -3.925  0.00  0.00    +0.000 A 
ATOM      2  C   UNL     1       3.368   7.030  -2.666  0.00  0.00    +0.002 A 
ATOM      3  C   UNL     1       2.398   6.684  -1.748  0.00  0.00    +0.024 A 
ATOM      4  C   UNL     1       1.049   6.783  -2.084  0.00  0.00    +0.043 A 
ATOM      5  C   UNL     1       0.704   7.230  -3.353  0.00  0.00    +0.015 A 
ATOM      6  C   UNL     1       1.674   7.569  -4.270  0.00  0.00    +0.009 A 
ATOM      7  C   UNL     1      -0.807   7.234  -3.406  0.00  0.00    +0.175 C 
ATOM      8  C   UNL     1      -1.224   6.738  -2.038  0.00  0.00    +0.257 C 
ATOM      9  O   UNL     1      -2.361   6.584  -1.643  0.00  0.00    -0.272 OA
ATOM     10  N   UNL     1      -0.099   6.499  -1.344  0.00  0.00    -0.264 N 
ENDROOT
BRANCH   7  11
ATOM     11  O   UNL     1      -1.296   8.558  -3.629  0.00  0.00    -0.374 OA
ATOM     12  H   UNL     1      -2.260   8.629  -3.613  0.00  0.00    +0.211 HD
ENDBRANCH   7  11
BRANCH  10  13
ATOM     13  C   UNL     1      -0.079   6.003   0.035  0.00  0.00    +0.148 C 
BRANCH  13  14
ATOM     14  C   UNL     1      -0.059   4.497   0.026  0.00  0.00    -0.030 A 
ATOM     15  C   UNL     1       1.148   3.822   0.012  0.00  0.00    +0.006 A 
ATOM     16  C   UNL     1       1.167   2.440   0.004  0.00  0.00    +0.020 A 
ATOM     17  C   UNL     1      -0.021   1.732   0.012  0.00  0.00    +0.041 A 
ATOM     18  C   UNL     1      -1.229   2.407   0.021  0.00  0.00    +0.020 A 
ATOM     19  C   UNL     1      -1.247   3.789   0.034  0.00  0.00    +0.006 A 
ATOM     20 CL   UNL     1       0.002  -0.004   0.002  0.00  0.00    -0.084 Cl
ENDBRANCH  13  14
ENDBRANCH  10  13
BRANCH   7  21
ATOM     21  C   UNL     1      -1.307   6.285  -4.497  0.00  0.00    +0.128 C 
BRANCH  21  22
ATOM     22  C   UNL     1      -2.813   6.234  -4.465  0.00  0.00    +0.160 C 
ATOM     23  O   UNL     1      -3.426   6.893  -3.650  0.00  0.00    -0.293 OA
BRANCH  22  24
ATOM     24  C   UNL     1      -3.509   5.423  -5.382  0.00  0.00    +0.047 C 
ATOM     25  C   UNL     1      -4.864   5.377  -5.354  0.00  0.00    +0.011 C 
BRANCH  25  26
ATOM     26  C   UNL     1      -5.589   4.531  -6.309  0.00  0.00    -0.021 A 
ATOM     27  C   UNL     1      -4.885   3.774  -7.254  0.00  0.00    +0.012 A 
ATOM     28  C   UNL     1      -5.568   2.978  -8.145  0.00  0.00    +0.050 A 
ATOM     29  C   UNL     1      -6.957   2.929  -8.118  0.00  0.00    +0.166 A 
ATOM     30  C   UNL     1      -7.666   3.685  -7.183  0.00  0.00    +0.167 A 
ATOM     31  C   UNL     1      -6.989   4.482  -6.282  0.00  0.00    +0.057 A 
ATOM     32  O   UNL     1      -9.001   3.462  -7.366  0.00  0.00    -0.453 OA
ATOM     33  C   UNL     1      -9.117   2.886  -8.680  0.00  0.00    +0.466 C 
ATOM     34  O   UNL     1      -7.848   2.236  -8.883  0.00  0.00    -0.453 OA
ENDBRANCH  25  26
ENDBRANCH  22  24
ENDBRANCH  21  22
ENDBRANCH   7  21
TORSDOF 7
