REMARK  Name = ZINC50136459
REMARK  6 active torsions:
REMARK  status: ('A' for Active; 'I' for Inactive)
REMARK    1  A    between atoms: C_2  and  C_3
REMARK    2  A    between atoms: C_3  and  N_4
REMARK    3  A    between atoms: C_5  and  C_7
REMARK    4  A    between atoms: C_7  and  C_8
REMARK    5  A    between atoms: C_8  and  N_9
REMARK    6  A    between atoms: C_15  and  N_18
REMARK                            x       y       z     vdW  Elec       q    Type
REMARK                         _______ _______ _______ _____ _____    ______ ____
ROOT
ATOM      1  N   UNL     1       4.352   5.862  -0.007  0.00  0.00    -0.299 N 
ATOM      2  C   UNL     1       4.580   7.190  -0.003  0.00  0.00    +0.302 C 
ATOM      3  O   UNL     1       3.649   7.967  -0.083  0.00  0.00    -0.253 OA
ATOM      4  N   UNL     1       5.841   7.657   0.089  0.00  0.00    -0.286 N 
ATOM      5  C   UNL     1       6.985   6.734   0.069  0.00  0.00    +0.111 C 
ATOM      6  C   UNL     1       7.856   7.001   1.300  0.00  0.00    +0.044 C 
ATOM      7  C   UNL     1       8.244   8.481   1.334  0.00  0.00    +0.095 C 
ATOM      8  C   UNL     1       6.981   9.339   1.441  0.00  0.00    +0.044 C 
ATOM      9  C   UNL     1       6.099   9.098   0.206  0.00  0.00    +0.111 C 
ATOM     10  H   UNL     1       5.098   5.241  -0.018  0.00  0.00    +0.150 HD
ENDROOT
BRANCH   7  11
ATOM     11  N   UNL     1       9.104   8.734   2.493  0.00  0.00    -0.289 N 
ATOM     12  C   UNL     1      10.405   9.230   2.449  0.00  0.00    +0.070 A 
ATOM     13  C   UNL     1      11.242   9.614   1.413  0.00  0.00    +0.028 A 
ATOM     14  C   UNL     1      12.513  10.079   1.692  0.00  0.00    +0.002 A 
ATOM     15  C   UNL     1      12.954  10.162   3.001  0.00  0.00    +0.002 A 
ATOM     16  C   UNL     1      12.127   9.781   4.040  0.00  0.00    +0.028 A 
ATOM     17  C   UNL     1      10.850   9.314   3.770  0.00  0.00    +0.067 A 
ATOM     18  N   UNL     1       9.805   8.866   4.575  0.00  0.00    -0.306 N 
ATOM     19  H   UNL     1       9.819   8.809   5.543  0.00  0.00    +0.170 HD
ATOM     20  C   UNL     1       8.771   8.531   3.781  0.00  0.00    +0.328 A 
ATOM     21  O   UNL     1       7.699   8.105   4.169  0.00  0.00    -0.247 OA
ENDBRANCH   7  11
BRANCH   1  22
ATOM     22  C   UNL     1       2.978   5.355   0.005  0.00  0.00    +0.115 C 
BRANCH  22  23
ATOM     23  C   UNL     1       2.998   3.825  -0.003  0.00  0.00    +0.114 C 
BRANCH  23  25
ATOM     24  N   UNL     1       1.356   1.975   0.006  0.00  0.00    -0.304 N 
ATOM     25  C   UNL     1       1.585   3.303   0.010  0.00  0.00    +0.215 C 
ATOM     26  O   UNL     1       0.652   4.079   0.023  0.00  0.00    -0.276 OA
ATOM     27  H   UNL     1       2.102   1.355  -0.005  0.00  0.00    +0.150 HD
BRANCH  24  28
ATOM     28  C   UNL     1      -0.018   1.468   0.018  0.00  0.00    +0.193 C 
BRANCH  28  30
ATOM     29  C   UNL     1       0.018  -1.178   0.004  0.00  0.00    +0.005 C 
ATOM     30  C   UNL     1       0.002  -0.004   0.010  0.00  0.00    -0.087 C 
ENDBRANCH  28  30
ENDBRANCH  24  28
ENDBRANCH  23  25
ENDBRANCH  22  23
ENDBRANCH   1  22
TORSDOF 6
