REMARK  Name = ZINC10168033
REMARK  6 active torsions:
REMARK  status: ('A' for Active; 'I' for Inactive)
REMARK    1  A    between atoms: C_1  and  N_44
REMARK    2  A    between atoms: C_2  and  C_3
REMARK    3  A    between atoms: C_2  and  N_44
REMARK    4  A    between atoms: N_5  and  C_6
REMARK    5  A    between atoms: C_13  and  N_44
REMARK    6  A    between atoms: N_18  and  C_21
REMARK                            x       y       z     vdW  Elec       q    Type
REMARK                         _______ _______ _______ _____ _____    ______ ____
ROOT
ATOM      1  C   UNL     1      -0.367   0.864  -0.082  0.00  0.00    +0.029 C 
ATOM      2  C   UNL     1       1.073   1.413  -0.041  0.00  0.00    +0.090 C 
ATOM      3  C   UNL     1       1.170   2.055   1.326  0.00  0.00    +0.225 C 
ATOM      4  O   UNL     1       2.149   2.613   1.772  0.00  0.00    -0.275 OA
ATOM      5  N   UNL     1       0.002   1.909   1.964  0.00  0.00    -0.212 N 
ATOM      6  C   UNL     1      -0.934   1.254   1.266  0.00  0.00    +0.213 C 
ATOM      7  O   UNL     1      -2.057   1.012   1.653  0.00  0.00    -0.277 OA
ENDROOT
BRANCH   5   8
ATOM      8  C   UNL     1      -0.222   2.400   3.259  0.00  0.00    +0.045 A 
ATOM      9  C   UNL     1      -0.020   3.746   3.535  0.00  0.00    +0.025 A 
ATOM     10  C   UNL     1      -0.241   4.229   4.811  0.00  0.00    +0.023 A 
ATOM     11  C   UNL     1      -0.663   3.372   5.812  0.00  0.00    +0.059 A 
ATOM     12  C   UNL     1      -0.865   2.030   5.539  0.00  0.00    +0.061 A 
ATOM     13  C   UNL     1      -0.651   1.544   4.263  0.00  0.00    +0.045 A 
ATOM     14 CL   UNL     1      -1.395   0.959   6.798  0.00  0.00    -0.082 Cl
ATOM     15 CL   UNL     1      -0.939   3.982   7.414  0.00  0.00    -0.082 Cl
ENDBRANCH   5   8
BRANCH   1  17
ATOM     16  C   UNL     1      -1.179   2.952  -1.000  0.00  0.00    -0.094 C 
ATOM     17  N   UNL     1      -1.116   1.488  -1.193  0.00  0.00    +0.392 N 
ATOM     18  H   UNL     1      -0.632   1.288  -2.075  0.00  0.00    -0.080 HD
BRANCH  17  19
ATOM     19  C   UNL     1      -2.483   0.928  -1.258  0.00  0.00    +0.020 C 
BRANCH  19  20
ATOM     20  C   UNL     1      -3.147   1.412  -2.521  0.00  0.00    +0.201 C 
ATOM     21  O   UNL     1      -2.551   2.155  -3.273  0.00  0.00    -0.278 OA
ATOM     22  N   UNL     1      -4.402   1.020  -2.816  0.00  0.00    -0.286 N 
ATOM     23  H   UNL     1      -4.909   0.495  -2.176  0.00  0.00    +0.155 HD
BRANCH  22  24
ATOM     24  C   UNL     1      -4.974   1.370  -4.044  0.00  0.00    +0.052 A 
ATOM     25  C   UNL     1      -4.182   1.460  -5.181  0.00  0.00    +0.025 A 
ATOM     26  C   UNL     1      -4.751   1.800  -6.393  0.00  0.00    +0.002 A 
ATOM     27  C   UNL     1      -6.106   2.061  -6.473  0.00  0.00    +0.002 A 
ATOM     28  C   UNL     1      -6.898   1.977  -5.343  0.00  0.00    +0.022 A 
ATOM     29  C   UNL     1      -6.336   1.632  -4.128  0.00  0.00    +0.062 A 
ATOM     30 CL   UNL     1      -7.331   1.528  -2.709  0.00  0.00    -0.082 Cl
ENDBRANCH  22  24
ENDBRANCH  19  20
ENDBRANCH  17  19
ENDBRANCH   1  17
TORSDOF 5
