REMARK  Name = ZINC02694770
REMARK  7 active torsions:
REMARK  status: ('A' for Active; 'I' for Inactive)
REMARK    1  A    between atoms: C_1  and  C_2
REMARK    2  A    between atoms: C_2  and  C_3
REMARK    3  A    between atoms: C_3  and  C_4
REMARK    4  A    between atoms: C_4  and  C_5
REMARK    5  A    between atoms: C_8  and  N_11
REMARK    6  A    between atoms: C_12  and  C_14
REMARK    7  A    between atoms: C_15  and  N_28
REMARK                            x       y       z     vdW  Elec       q    Type
REMARK                         _______ _______ _______ _____ _____    ______ ____
ROOT
ATOM      1  C   UNL     1       4.813   0.466  -0.019  0.00  0.00    +0.097 A 
ATOM      2  C   UNL     1       3.786  -0.452  -0.014  0.00  0.00    +0.053 A 
ATOM      3  C   UNL     1       2.417   0.044  -0.020  0.00  0.00    +0.030 A 
ATOM      4  C   UNL     1       1.213  -0.692  -0.019  0.00  0.00    +0.025 A 
ATOM      5  C   UNL     1       0.002  -0.003  -0.025  0.00  0.00    +0.039 A 
ATOM      6  C   UNL     1      -0.017   1.399  -0.025  0.00  0.00    +0.053 A 
ATOM      7  N   UNL     1       1.121   2.065  -0.031  0.00  0.00    -0.244 NA
ATOM      8  C   UNL     1       2.289   1.455  -0.028  0.00  0.00    +0.111 A 
ATOM      9  S   UNL     1       3.968   2.034  -0.031  0.00  0.00    -0.062 S 
ATOM     10  C   UNL     1      -1.310   2.168  -0.013  0.00  0.00    +0.056 C 
ATOM     11  C   UNL     1      -2.461   1.324  -0.555  0.00  0.00    +0.014 C 
ATOM     12  C   UNL     1      -2.542   0.009   0.231  0.00  0.00    +0.080 C 
ATOM     13  C   UNL     1      -1.264  -0.758  -0.035  0.00  0.00    +0.165 C 
ATOM     14  O   UNL     1      -1.281  -1.952  -0.249  0.00  0.00    -0.292 OA
ENDROOT
BRANCH   1  16
ATOM     15  N   UNL     1       7.074   1.253  -0.021  0.00  0.00    -0.281 N 
ATOM     16  C   UNL     1       6.209   0.220  -0.015  0.00  0.00    +0.257 C 
ATOM     17  O   UNL     1       6.626  -0.924  -0.007  0.00  0.00    -0.269 OA
ATOM     18  H   UNL     1       6.744   2.162  -0.096  0.00  0.00    +0.155 HD
BRANCH  15  22
ATOM     19  C   UNL     1      11.168   0.542   0.279  0.00  0.00    -0.047 A 
ATOM     20  C   UNL     1      10.362  -0.345  -0.411  0.00  0.00    +0.005 A 
ATOM     21  C   UNL     1       9.004  -0.112  -0.512  0.00  0.00    +0.023 A 
ATOM     22  C   UNL     1       8.448   1.014   0.080  0.00  0.00    +0.034 A 
ATOM     23  C   UNL     1       9.261   1.906   0.767  0.00  0.00    +0.023 A 
ATOM     24  C   UNL     1      10.617   1.665   0.870  0.00  0.00    +0.005 A 
BRANCH  19  25
ATOM     25  C   UNL     1      12.648   0.285   0.388  0.00  0.00    +0.035 C 
BRANCH  25  26
ATOM     26  C   UNL     1      13.368   0.944  -0.790  0.00  0.00    +0.004 C 
BRANCH  26  28
ATOM     27  C   UNL     1      15.592   1.341  -1.858  0.00  0.00    +0.004 C 
ATOM     28  C   UNL     1      14.872   0.683  -0.680  0.00  0.00    -0.003 C 
ENDBRANCH  26  28
ENDBRANCH  25  26
ENDBRANCH  19  25
ENDBRANCH  15  22
ENDBRANCH   1  16
BRANCH   2  29
ATOM     29  N   UNL     1       4.048  -1.813  -0.004  0.00  0.00    -0.356 N 
ATOM     30  H   UNL     1       3.315  -2.449   0.000  0.00  0.00    +0.142 HD
ATOM     31  H   UNL     1       4.965  -2.131   0.000  0.00  0.00    +0.142 HD
ENDBRANCH   2  29
TORSDOF 6
