REMARK  Name = ZINC33808612
REMARK  4 active torsions:
REMARK  status: ('A' for Active; 'I' for Inactive)
REMARK    1  A    between atoms: C_1  and  C_2
REMARK    2  A    between atoms: C_5  and  C_22
REMARK    3  A    between atoms: C_6  and  C_7
REMARK    4  A    between atoms: C_6  and  C_8
REMARK                            x       y       z     vdW  Elec       q    Type
REMARK                         _______ _______ _______ _____ _____    ______ ____
ROOT
ATOM      1  C   UNL     1      -0.012   1.526   0.005  0.00  0.00    +0.018 C 
ATOM      2  C   UNL     1       0.007  -0.004  -0.002  0.00  0.00    +0.018 C 
ATOM      3  C   UNL     1      -1.383  -0.711   0.057  0.00  0.00    +0.015 C 
ATOM      4  C   UNL     1      -1.052  -2.157   0.498  0.00  0.00    +0.024 C 
ATOM      5  C   UNL     1       0.501  -2.159   0.657  0.00  0.00    +0.097 C 
ATOM      6  C   UNL     1       0.731  -0.704   1.207  0.00  0.00    -0.005 C 
ATOM      7  C   UNL     1      -0.002  -0.479   2.531  0.00  0.00    +0.013 C 
ATOM      8  C   UNL     1       2.210  -0.324   1.298  0.00  0.00    +0.013 C 
ATOM      9  C   UNL     1       1.028  -1.991  -0.770  0.00  0.00    +0.079 A 
ATOM     10  C   UNL     1       0.741  -0.666  -1.171  0.00  0.00    +0.071 A 
ATOM     11  N   UNL     1       1.076  -0.224  -2.356  0.00  0.00    -0.248 NA
ATOM     12  C   UNL     1       1.729  -1.032  -3.201  0.00  0.00    +0.093 A 
ATOM     13  C   UNL     1       2.099  -0.590  -4.482  0.00  0.00    +0.079 A 
ATOM     14  C   UNL     1       2.770  -1.429  -5.323  0.00  0.00    +0.168 A 
ATOM     15  C   UNL     1       3.096  -2.738  -4.922  0.00  0.00    +0.168 A 
ATOM     16  C   UNL     1       2.745  -3.195  -3.686  0.00  0.00    +0.079 A 
ATOM     17  C   UNL     1       2.051  -2.354  -2.799  0.00  0.00    +0.093 A 
ATOM     18  N   UNL     1       1.652  -2.812  -1.575  0.00  0.00    -0.247 NA
ATOM     19  O   UNL     1       3.764  -3.347  -5.946  0.00  0.00    -0.453 OA
ATOM     20  C   UNL     1       3.478  -2.559  -7.115  0.00  0.00    +0.466 C 
ATOM     21  O   UNL     1       3.233  -1.240  -6.594  0.00  0.00    -0.453 OA
ENDROOT
BRANCH   5  22
ATOM     22  C   UNL     1       1.085  -3.286   1.470  0.00  0.00    +0.231 C 
ATOM     23  O   UNL     1       1.709  -3.044   2.481  0.00  0.00    -0.274 OA
ATOM     24  N   UNL     1       0.912  -4.562   1.074  0.00  0.00    -0.270 N 
ATOM     25  C   UNL     1       1.540  -5.598   1.765  0.00  0.00    +0.125 A 
ATOM     26  C   UNL     1       1.444  -6.901   1.289  0.00  0.00    +0.045 A 
ATOM     27  C   UNL     1       2.072  -7.919   1.984  0.00  0.00    +0.020 A 
ATOM     28  C   UNL     1       2.778  -7.598   3.137  0.00  0.00    +0.036 A 
ATOM     29  C   UNL     1       2.831  -6.281   3.552  0.00  0.00    +0.128 A 
ATOM     30  N   UNL     1       2.226  -5.331   2.865  0.00  0.00    -0.239 NA
ATOM     31 BR   UNL     1       3.655  -8.948   4.128  0.00  0.00    -0.049 Br
ATOM     32  H   UNL     1       0.351  -4.761   0.308  0.00  0.00    +0.156 HD
ENDBRANCH   5  22
TORSDOF 1
