REMARK  Name = ZINC36516094
REMARK  16 active torsions:
REMARK  status: ('A' for Active; 'I' for Inactive)
REMARK    1  A    between atoms: C_1  and  C_2
REMARK    2  A    between atoms: C_2  and  C_3
REMARK    3  A    between atoms: C_3  and  C_4
REMARK    4  A    between atoms: C_4  and  C_5
REMARK    5  A    between atoms: C_5  and  C_6
REMARK    6  A    between atoms: C_6  and  N_7
REMARK    7  A    between atoms: N_7  and  C_8
REMARK    8  A    between atoms: C_8  and  C_10
REMARK    9  A    between atoms: C_8  and  C_20
REMARK   10  A    between atoms: C_13  and  C_16
REMARK   11  A    between atoms: N_22  and  C_23
REMARK   12  A    between atoms: C_23  and  C_24
REMARK   13  A    between atoms: C_23  and  C_25
REMARK   14  A    between atoms: C_23  and  C_26
REMARK   15  A    between atoms: C_27  and  C_29
REMARK   16  A    between atoms: C_29  and  C_30
REMARK                            x       y       z     vdW  Elec       q    Type
REMARK                         _______ _______ _______ _____ _____    ______ ____
ROOT
ATOM      1  N   UNL     1       2.267  -3.688   4.319  0.00  0.00    -0.286 N 
ATOM      2  C   UNL     1       3.599  -3.487   4.376  0.00  0.00    +0.221 C 
ATOM      3  O   UNL     1       4.319  -4.330   4.868  0.00  0.00    -0.275 OA
ENDROOT
BRANCH   1   4
ATOM      4  C   UNL     1       1.398  -2.670   3.724  0.00  0.00    +0.109 C 
BRANCH   4   5
ATOM      5  C   UNL     1       0.646  -1.931   4.833  0.00  0.00    +0.019 C 
BRANCH   5   6
ATOM      6  C   UNL     1      -0.330  -0.931   4.210  0.00  0.00    +0.002 C 
BRANCH   6   7
ATOM      7  C   UNL     1      -1.081  -0.192   5.319  0.00  0.00    -0.000 C 
BRANCH   7   9
ATOM      8  C   UNL     1      -2.808   1.547   5.803  0.00  0.00    +0.004 C 
ATOM      9  C   UNL     1      -2.057   0.808   4.694  0.00  0.00    -0.003 C 
ENDBRANCH   7   9
ENDBRANCH   6   7
ENDBRANCH   5   6
ENDBRANCH   4   5
ENDBRANCH   1   4
BRANCH   1  10
ATOM     10  C   UNL     1       1.690  -4.925   4.850  0.00  0.00    +0.192 C 
BRANCH  10  11
ATOM     11  C   UNL     1       2.010  -5.039   6.318  0.00  0.00    -0.018 A 
ATOM     12  C   UNL     1       2.032  -3.906   7.111  0.00  0.00    +0.006 A 
ATOM     13  C   UNL     1       2.325  -4.010   8.457  0.00  0.00    +0.013 A 
ATOM     14  C   UNL     1       2.597  -5.247   9.012  0.00  0.00    +0.055 A 
ATOM     15  C   UNL     1       2.574  -6.380   8.220  0.00  0.00    +0.013 A 
ATOM     16  C   UNL     1       2.276  -6.276   6.874  0.00  0.00    +0.006 A 
BRANCH  14  17
ATOM     17  C   UNL     1       2.918  -5.361  10.480  0.00  0.00    +0.417 C 
ATOM     18  F   UNL     1       1.736  -5.557  11.202  0.00  0.00    -0.166 F 
ATOM     19  F   UNL     1       3.776  -6.446  10.687  0.00  0.00    -0.166 F 
ATOM     20  F   UNL     1       3.540  -4.185  10.914  0.00  0.00    -0.166 F 
ENDBRANCH  14  17
ENDBRANCH  10  11
BRANCH  10  21
ATOM     21  C   UNL     1       0.195  -4.902   4.662  0.00  0.00    +0.238 C 
ATOM     22  O   UNL     1      -0.275  -4.716   3.560  0.00  0.00    -0.273 OA
ATOM     23  N   UNL     1      -0.620  -5.089   5.719  0.00  0.00    -0.309 N 
ATOM     24  H   UNL     1      -0.245  -5.238   6.601  0.00  0.00    +0.149 HD
BRANCH  23  25
ATOM     25  C   UNL     1      -2.074  -5.067   5.537  0.00  0.00    +0.026 C 
ATOM     26  C   UNL     1      -2.482  -6.169   4.557  0.00  0.00    +0.031 C 
ATOM     27  C   UNL     1      -2.761  -5.302   6.883  0.00  0.00    +0.031 C 
ATOM     28  C   UNL     1      -2.497  -3.706   4.979  0.00  0.00    +0.031 C 
ENDBRANCH  23  25
ENDBRANCH  10  21
ENDBRANCH   1  10
BRANCH   2  29
ATOM     29  C   UNL     1       4.193  -2.215   3.830  0.00  0.00    +0.131 C 
BRANCH  29  30
ATOM     30  C   UNL     1       5.689  -2.239   4.015  0.00  0.00    -0.035 A 
ATOM     31  C   UNL     1       6.248  -1.736   5.175  0.00  0.00    +0.008 A 
ATOM     32  C   UNL     1       7.619  -1.756   5.350  0.00  0.00    +0.050 A 
ATOM     33  C   UNL     1       8.436  -2.280   4.362  0.00  0.00    +0.166 A 
ATOM     34  C   UNL     1       7.873  -2.787   3.194  0.00  0.00    +0.166 A 
ATOM     35  C   UNL     1       6.498  -2.769   3.028  0.00  0.00    +0.053 A 
ATOM     36  O   UNL     1       8.876  -3.240   2.387  0.00  0.00    -0.453 OA
ATOM     37  C   UNL     1      10.081  -2.635   2.894  0.00  0.00    +0.466 C 
ATOM     38  O   UNL     1       9.793  -2.416   4.287  0.00  0.00    -0.453 OA
ENDBRANCH  29  30
ENDBRANCH   2  29
TORSDOF 12
