REMARK  Name = ZINC03256744
REMARK  9 active torsions:
REMARK  status: ('A' for Active; 'I' for Inactive)
REMARK    1  A    between atoms: C_1  and  C_2
REMARK    2  A    between atoms: C_8  and  S_19
REMARK    3  A    between atoms: N_10  and  C_13
REMARK    4  A    between atoms: N_11  and  C_12
REMARK    5  A    between atoms: S_19  and  C_20
REMARK    6  A    between atoms: N_33  and  C_34
REMARK    7  A    between atoms: C_34  and  C_35
REMARK    8  A    between atoms: C_35  and  C_36
REMARK    9  A    between atoms: C_35  and  C_37
REMARK                            x       y       z     vdW  Elec       q    Type
REMARK                         _______ _______ _______ _____ _____    ______ ____
ROOT
ATOM      1  S   UNL     1      -1.659  -1.522  -2.704  0.00  0.00    -0.044 S 
ENDROOT
BRANCH   1   2
ATOM      2  C   UNL     1      -0.421  -2.539  -1.970  0.00  0.00    +0.178 A 
ATOM      3  N   UNL     1      -0.526  -3.851  -2.049  0.00  0.00    -0.216 NA
ATOM      4  C   UNL     1       0.392  -4.641  -1.505  0.00  0.00    +0.117 A 
ATOM      5  C   UNL     1       1.510  -4.129  -0.824  0.00  0.00    +0.076 A 
ATOM      6  C   UNL     1       2.435  -5.123  -0.278  0.00  0.00    -0.023 A 
ATOM      7  C   UNL     1       2.128  -6.421  -0.478  0.00  0.00    -0.004 A 
ATOM      8  S   UNL     1       0.611  -6.399  -1.394  0.00  0.00    -0.073 S 
ATOM      9  C   UNL     1       2.906  -7.618  -0.024  0.00  0.00    +0.043 C 
ATOM     10  C   UNL     1       4.309  -7.156   0.392  0.00  0.00    +0.005 C 
ATOM     11  C   UNL     1       4.174  -5.932   1.302  0.00  0.00    +0.005 C 
ATOM     12  C   UNL     1       3.695  -4.729   0.488  0.00  0.00    +0.037 C 
ATOM     13  C   UNL     1       1.601  -2.703  -0.758  0.00  0.00    +0.263 A 
ATOM     14  O   UNL     1       2.539  -2.169  -0.191  0.00  0.00    -0.267 OA
ATOM     15  N   UNL     1       0.634  -1.958  -1.325  0.00  0.00    -0.287 N 
BRANCH  15  16
ATOM     16  C   UNL     1       0.718  -0.497  -1.257  0.00  0.00    +0.130 C 
BRANCH  16  17
ATOM     17  C   UNL     1       0.002  -0.004   0.002  0.00  0.00    +0.003 C 
ATOM     18  C   UNL     1      -0.019   1.526   0.010  0.00  0.00    +0.009 C 
ATOM     19  C   UNL     1       0.742  -0.511   1.242  0.00  0.00    +0.009 C 
ENDBRANCH  16  17
ENDBRANCH  15  16
ENDBRANCH   1   2
BRANCH   1  27
ATOM     20  C   UNL     1      -6.306  -5.929  -3.580  0.00  0.00    +0.067 C 
ATOM     21  C   UNL     1      -5.416  -4.870  -2.982  0.00  0.00    +0.058 A 
ATOM     22  C   UNL     1      -4.365  -4.285  -3.604  0.00  0.00    +0.090 A 
ATOM     23  N   UNL     1      -3.617  -4.240  -4.786  0.00  0.00    -0.318 N 
ATOM     24  H   UNL     1      -3.779  -4.776  -5.578  0.00  0.00    +0.169 HD
ATOM     25  C   UNL     1      -2.640  -3.326  -4.643  0.00  0.00    +0.265 A 
ATOM     26  O   UNL     1      -1.811  -3.037  -5.492  0.00  0.00    -0.267 OA
ATOM     27  C   UNL     1      -2.723  -2.762  -3.362  0.00  0.00    +0.107 A 
ATOM     28  C   UNL     1      -3.791  -3.346  -2.709  0.00  0.00    +0.108 A 
ATOM     29  N   UNL     1      -4.533  -3.392  -1.538  0.00  0.00    -0.249 N 
ATOM     30  N   UNL     1      -5.543  -4.347  -1.724  0.00  0.00    -0.285 N 
ATOM     31  C   UNL     1      -6.560  -4.721  -0.739  0.00  0.00    +0.171 C 
BRANCH  29  32
ATOM     32  C   UNL     1      -4.315  -2.629  -0.388  0.00  0.00    +0.064 A 
ATOM     33  C   UNL     1      -3.029  -2.481   0.116  0.00  0.00    +0.028 A 
ATOM     34  C   UNL     1      -2.816  -1.722   1.250  0.00  0.00    +0.002 A 
ATOM     35  C   UNL     1      -3.883  -1.119   1.890  0.00  0.00    +0.000 A 
ATOM     36  C   UNL     1      -5.166  -1.269   1.395  0.00  0.00    +0.002 A 
ATOM     37  C   UNL     1      -5.385  -2.022   0.258  0.00  0.00    +0.028 A 
ENDBRANCH  29  32
ENDBRANCH   1  27
TORSDOF 5
