REMARK  Name = ZINC08878567
REMARK  8 active torsions:
REMARK  status: ('A' for Active; 'I' for Inactive)
REMARK    1  A    between atoms: C_3  and  C_6
REMARK    2  A    between atoms: C_6  and  N_7
REMARK    3  A    between atoms: C_13  and  C_18
REMARK    4  A    between atoms: C_18  and  O_20
REMARK    5  A    between atoms: O_20  and  C_21
REMARK    6  A    between atoms: C_21  and  C_22
REMARK    7  A    between atoms: N_24  and  C_25
REMARK    8  A    between atoms: C_26  and  C_34
REMARK                            x       y       z     vdW  Elec       q    Type
REMARK                         _______ _______ _______ _____ _____    ______ ____
ROOT
ATOM      1  C   UNL     1      -3.298   9.857  -5.262  0.00  0.00    +0.340 C 
ATOM      2  O   UNL     1      -3.361  10.836  -4.547  0.00  0.00    -0.245 OA
ENDROOT
BRANCH   1   9
ATOM      3  N   UNL     1      -4.825  11.941 -10.725  0.00  0.00    -0.227 N 
ATOM      4  C   UNL     1      -4.558  10.623 -10.774  0.00  0.00    +0.254 C 
ATOM      5  O   UNL     1      -4.609   9.926 -11.767  0.00  0.00    -0.270 OA
ATOM      6  C   UNL     1      -4.191  10.166  -9.414  0.00  0.00    +0.049 A 
ATOM      7  C   UNL     1      -3.826   8.944  -8.873  0.00  0.00    +0.014 A 
ATOM      8  C   UNL     1      -3.531   8.846  -7.524  0.00  0.00    +0.016 A 
ATOM      9  C   UNL     1      -3.609   9.971  -6.703  0.00  0.00    +0.060 A 
ATOM     10  C   UNL     1      -3.976  11.209  -7.241  0.00  0.00    +0.028 A 
ATOM     11  C   UNL     1      -4.266  11.309  -8.591  0.00  0.00    +0.050 A 
ATOM     12  C   UNL     1      -4.676  12.419  -9.477  0.00  0.00    +0.254 C 
ATOM     13  O   UNL     1      -4.849  13.572  -9.134  0.00  0.00    -0.270 OA
BRANCH   3  14
ATOM     14  C   UNL     1      -5.225  12.749 -11.880  0.00  0.00    +0.191 C 
BRANCH  14  17
ATOM     15  C   UNL     1      -8.877  13.237 -11.806  0.00  0.00    +0.041 A 
ATOM     16  C   UNL     1      -7.569  13.614 -11.425  0.00  0.00    +0.046 A 
ATOM     17  C   UNL     1      -6.727  12.739 -12.003  0.00  0.00    +0.123 A 
ATOM     18  O   UNL     1      -7.452  11.852 -12.704  0.00  0.00    -0.466 OA
ATOM     19  C   UNL     1      -8.757  12.149 -12.588  0.00  0.00    +0.195 A 
ENDBRANCH  14  17
ENDBRANCH   3  14
ENDBRANCH   1   9
BRANCH   1  20
ATOM     20  O   UNL     1      -2.944   8.665  -4.742  0.00  0.00    -0.452 OA
BRANCH  20  21
ATOM     21  C   UNL     1      -2.653   8.627  -3.320  0.00  0.00    +0.328 C 
BRANCH  21  22
ATOM     22  C   UNL     1      -2.279   7.222  -2.922  0.00  0.00    +0.255 C 
ATOM     23  O   UNL     1      -2.260   6.341  -3.755  0.00  0.00    -0.272 OA
ATOM     24  N   UNL     1      -1.965   6.946  -1.641  0.00  0.00    -0.276 N 
ATOM     25  H   UNL     1      -1.980   7.652  -0.975  0.00  0.00    +0.155 HD
BRANCH  24  26
ATOM     26  C   UNL     1      -1.621   5.653  -1.274  0.00  0.00    +0.090 A 
ATOM     27  C   UNL     1      -1.271   5.177  -0.019  0.00  0.00    +0.084 A 
ATOM     28  C   UNL     1      -0.951   3.765   0.100  0.00  0.00    -0.018 A 
ATOM     29  C   UNL     1      -1.032   3.059  -1.049  0.00  0.00    -0.004 A 
ATOM     30  S   UNL     1      -1.524   4.240  -2.273  0.00  0.00    -0.077 S 
ATOM     31  C   UNL     1      -0.761   1.597  -1.232  0.00  0.00    +0.043 C 
ATOM     32  C   UNL     1      -0.013   1.086   0.008  0.00  0.00    +0.005 C 
ATOM     33  C   UNL     1      -0.735   1.583   1.264  0.00  0.00    +0.005 C 
ATOM     34  C   UNL     1      -0.551   3.094   1.407  0.00  0.00    +0.037 C 
BRANCH  27  35
ATOM     35  C   UNL     1      -1.226   6.046   1.118  0.00  0.00    +0.102 C 
ATOM     36  N   UNL     1      -1.191   6.736   2.020  0.00  0.00    -0.191 NA
ENDBRANCH  27  35
ENDBRANCH  24  26
ENDBRANCH  21  22
ENDBRANCH  20  21
ENDBRANCH   1  20
TORSDOF 8
