REMARK  Name = ZINC16612928
REMARK  10 active torsions:
REMARK  status: ('A' for Active; 'I' for Inactive)
REMARK    1  A    between atoms: C_1  and  C_2
REMARK    2  A    between atoms: C_2  and  C_4
REMARK    3  A    between atoms: C_2  and  N_10
REMARK    4  A    between atoms: C_11  and  C_13
REMARK    5  A    between atoms: C_13  and  N_14
REMARK    6  A    between atoms: N_16  and  C_32
REMARK    7  A    between atoms: C_25  and  C_27
REMARK    8  A    between atoms: C_27  and  C_28
REMARK    9  A    between atoms: C_27  and  C_29
REMARK   10  A    between atoms: C_27  and  C_30
REMARK                            x       y       z     vdW  Elec       q    Type
REMARK                         _______ _______ _______ _____ _____    ______ ____
ROOT
ATOM      1  N   UNL     1       4.223   7.478   3.619  0.00  0.00    -0.275 N 
ATOM      2  C   UNL     1       4.683   8.781   3.123  0.00  0.00    +0.217 C 
ATOM      3  N   UNL     1       3.585   9.738   3.403  0.00  0.00    -0.300 N 
ATOM      4  C   UNL     1       2.907   9.135   4.570  0.00  0.00    +0.115 C 
ATOM      5  C   UNL     1       3.195   7.657   4.475  0.00  0.00    +0.241 C 
ATOM      6  O   UNL     1       2.603   6.779   5.066  0.00  0.00    -0.273 OA
ATOM      7  C   UNL     1       3.484   9.707   5.862  0.00  0.00    +0.054 C 
ATOM      8  C   UNL     1       2.808   9.035   7.062  0.00  0.00    +0.110 C 
ATOM      9  N   UNL     1       1.352   9.175   6.923  0.00  0.00    -0.301 N 
ATOM     10  C   UNL     1       0.712   8.717   5.682  0.00  0.00    +0.110 C 
ATOM     11  C   UNL     1       1.405   9.390   4.492  0.00  0.00    +0.054 C 
ATOM     12  C   UNL     1       0.616   9.715   7.915  0.00  0.00    +0.222 C 
ATOM     13  O   UNL     1      -0.593   9.742   7.827  0.00  0.00    -0.275 OA
ENDROOT
BRANCH   3  14
ATOM     14  C   UNL     1       4.093  11.001   3.716  0.00  0.00    +0.032 A 
ATOM     15  C   UNL     1       3.242  12.000   4.173  0.00  0.00    +0.023 A 
ATOM     16  C   UNL     1       3.749  13.246   4.487  0.00  0.00    +0.002 A 
ATOM     17  C   UNL     1       5.099  13.503   4.336  0.00  0.00    +0.000 A 
ATOM     18  C   UNL     1       5.948  12.512   3.877  0.00  0.00    +0.002 A 
ATOM     19  C   UNL     1       5.449  11.262   3.566  0.00  0.00    +0.023 A 
ENDBRANCH   3  14
BRANCH  12  20
ATOM     20  C   UNL     1       1.296  10.285   9.133  0.00  0.00    +0.055 C 
ATOM     21  C   UNL     1       2.079   9.179   9.844  0.00  0.00    +0.022 C 
ATOM     22  C   UNL     1       2.257  11.397   8.707  0.00  0.00    +0.022 C 
BRANCH  20  23
ATOM     23  C   UNL     1       0.243  10.857  10.084  0.00  0.00    +0.124 C 
ATOM     24 CL   UNL     1       1.057  11.539  11.541  0.00  0.00    -0.124 Cl
ENDBRANCH  20  23
ENDBRANCH  12  20
BRANCH   1  25
ATOM     25  C   UNL     1       4.796   6.182   3.245  0.00  0.00    +0.205 C 
BRANCH  25  27
ATOM     26  N   UNL     1       4.435   4.456   1.511  0.00  0.00    -0.307 N 
ATOM     27  C   UNL     1       4.075   5.644   2.036  0.00  0.00    +0.231 C 
ATOM     28  O   UNL     1       3.172   6.280   1.535  0.00  0.00    -0.274 OA
ATOM     29  H   UNL     1       5.157   3.947   1.911  0.00  0.00    +0.149 HD
BRANCH  26  31
ATOM     30  C   UNL     1       4.361   4.516  -0.933  0.00  0.00    +0.033 C 
ATOM     31  C   UNL     1       3.735   3.933   0.335  0.00  0.00    +0.100 C 
BRANCH  31  32
ATOM     32  C   UNL     1       3.852   2.430   0.308  0.00  0.00    -0.027 A 
ATOM     33  C   UNL     1       2.768   1.659  -0.068  0.00  0.00    +0.005 A 
ATOM     34  C   UNL     1       2.876   0.281  -0.094  0.00  0.00    +0.000 A 
ATOM     35  C   UNL     1       4.068  -0.325   0.256  0.00  0.00    +0.000 A 
ATOM     36  C   UNL     1       5.152   0.446   0.632  0.00  0.00    +0.000 A 
ATOM     37  C   UNL     1       5.044   1.824   0.657  0.00  0.00    +0.005 A 
ENDBRANCH  31  32
ENDBRANCH  26  31
ENDBRANCH  25  27
ENDBRANCH   1  25
TORSDOF 7
