REMARK  Name = ZINC63446530
REMARK  5 active torsions:
REMARK  status: ('A' for Active; 'I' for Inactive)
REMARK    1  A    between atoms: C_4  and  C_7
REMARK    2  A    between atoms: C_11  and  S_20
REMARK    3  A    between atoms: N_13  and  C_14
REMARK    4  A    between atoms: S_20  and  C_21
REMARK    5  A    between atoms: C_21  and  C_22
REMARK                            x       y       z     vdW  Elec       q    Type
REMARK                         _______ _______ _______ _____ _____    ______ ____
ROOT
ATOM      1  C   UNL     1       3.701  -0.692  -0.015  0.00  0.00    +0.188 C 
ATOM      2  N   UNL     1       4.772   0.108   0.635  0.00  0.00    -0.230 NA
ATOM      3  N   UNL     1       5.758  -0.914   1.023  0.00  0.00    -0.226 NA
ATOM      4  C   UNL     1       4.940  -2.071   1.451  0.00  0.00    +0.217 C 
ATOM      5  N   UNL     1       3.630  -1.930   0.786  0.00  0.00    -0.284 N 
ATOM      6  H   UNL     1       5.173   0.770  -0.012  0.00  0.00    +0.143 HD
ATOM      7  H   UNL     1       6.342  -0.585   1.777  0.00  0.00    +0.143 HD
ENDROOT
BRANCH   1  11
ATOM      8  C   UNL     1      -0.020   1.400   0.129  0.00  0.00    +0.000 A 
ATOM      9  C   UNL     1       0.616   1.039   1.302  0.00  0.00    +0.000 A 
ATOM     10  C   UNL     1       1.820   0.362   1.255  0.00  0.00    +0.007 A 
ATOM     11  C   UNL     1       2.388   0.045   0.035  0.00  0.00    -0.012 A 
ATOM     12  C   UNL     1       1.752   0.406  -1.138  0.00  0.00    +0.007 A 
ATOM     13  C   UNL     1       0.548   1.084  -1.091  0.00  0.00    +0.000 A 
ENDBRANCH   1  11
BRANCH   5  14
ATOM     14  C   UNL     1       2.538  -2.795   0.894  0.00  0.00    +0.033 A 
ATOM     15  C   UNL     1       1.415  -2.601   0.100  0.00  0.00    +0.023 A 
ATOM     16  C   UNL     1       0.338  -3.457   0.209  0.00  0.00    +0.002 A 
ATOM     17  C   UNL     1       0.375  -4.507   1.109  0.00  0.00    +0.000 A 
ATOM     18  C   UNL     1       1.491  -4.703   1.901  0.00  0.00    +0.002 A 
ATOM     19  C   UNL     1       2.574  -3.853   1.793  0.00  0.00    +0.023 A 
ENDBRANCH   5  14
BRANCH   4  20
ATOM     20  S   UNL     1       5.733  -3.619   0.935  0.00  0.00    -0.118 S 
BRANCH  20  21
ATOM     21  C   UNL     1       5.862  -3.465  -0.868  0.00  0.00    +0.119 C 
BRANCH  21  22
ATOM     22  C   UNL     1       6.524  -4.721  -1.441  0.00  0.00    +0.184 C 
ATOM     23  N   UNL     1       5.761  -5.914  -1.052  0.00  0.00    -0.363 N 
ATOM     24  C   UNL     1       6.553  -6.673  -0.352  0.00  0.00    +0.060 A 
ATOM     25  C   UNL     1       6.368  -7.976   0.301  0.00  0.00    +0.027 A 
ATOM     26  C   UNL     1       7.395  -8.534   0.974  0.00  0.00    +0.002 A 
ATOM     27  C   UNL     1       8.655  -7.919   1.081  0.00  0.00    +0.002 A 
ATOM     28  C   UNL     1       8.931  -6.725   0.520  0.00  0.00    +0.027 A 
ATOM     29  C   UNL     1       7.887  -6.022  -0.239  0.00  0.00    +0.060 A 
ATOM     30  N   UNL     1       7.868  -4.886  -0.873  0.00  0.00    -0.363 N 
ATOM     31  H   UNL     1       4.836  -6.101  -1.276  0.00  0.00    +0.162 HD
ATOM     32  H   UNL     1       8.606  -4.262  -0.956  0.00  0.00    +0.162 HD
ENDBRANCH  21  22
ENDBRANCH  20  21
ENDBRANCH   4  20
TORSDOF 5
