REMARK  Name = ZINC08740460
REMARK  8 active torsions:
REMARK  status: ('A' for Active; 'I' for Inactive)
REMARK    1  A    between atoms: C_1  and  C_2
REMARK    2  A    between atoms: C_6  and  N_9
REMARK    3  A    between atoms: C_7  and  C_8
REMARK    4  A    between atoms: C_14  and  C_15
REMARK    5  A    between atoms: C_14  and  N_70
REMARK    6  A    between atoms: C_26  and  C_33
REMARK    7  A    between atoms: C_28  and  C_32
REMARK    8  A    between atoms: C_29  and  O_31
REMARK                            x       y       z     vdW  Elec       q    Type
REMARK                         _______ _______ _______ _____ _____    ______ ____
ROOT
ATOM      1  C   UNL     1      -1.237   0.427  -7.420  0.00  0.00    +0.090 C 
ATOM      2  C   UNL     1      -1.197   1.077  -8.811  0.00  0.00    +0.071 C 
ATOM      3  C   UNL     1      -2.679   1.202  -9.171  0.00  0.00    +0.187 C 
ATOM      4  C   UNL     1      -3.205  -0.096  -9.801  0.00  0.00    +0.076 C 
ATOM      5  C   UNL     1      -2.291  -0.422 -10.966  0.00  0.00    -0.061 C 
ATOM      6  C   UNL     1      -2.789  -0.387 -12.165  0.00  0.00    -0.027 C 
ATOM      7  C   UNL     1      -1.956  -0.607 -13.398  0.00  0.00    +0.027 C 
ATOM      8  C   UNL     1      -0.523  -0.162 -13.068  0.00  0.00    +0.008 C 
ATOM      9  C   UNL     1      -0.044  -1.003 -11.886  0.00  0.00    -0.001 C 
ATOM     10  C   UNL     1      -0.854  -0.719 -10.631  0.00  0.00    +0.018 C 
ATOM     11  C   UNL     1      -0.281   0.415  -9.800  0.00  0.00    +0.132 C 
ATOM     12  C   UNL     1      -0.822  -2.008  -9.792  0.00  0.00    +0.018 C 
ATOM     13  C   UNL     1       1.448  -0.787 -11.677  0.00  0.00    +0.008 C 
ATOM     14  O   UNL     1      -3.356   1.325  -7.875  0.00  0.00    -0.460 OA
ATOM     15  C   UNL     1      -2.602   0.831  -6.885  0.00  0.00    +0.309 C 
ATOM     16  O   UNL     1      -2.947   0.719  -5.727  0.00  0.00    -0.251 OA
ENDROOT
BRANCH  11  17
ATOM     17  O   UNL     1       0.853  -0.077  -9.062  0.00  0.00    -0.391 OA
ATOM     18  H   UNL     1       1.348   0.611  -8.597  0.00  0.00    +0.210 HD
ENDBRANCH  11  17
BRANCH   1  19
ATOM     19  C   UNL     1      -0.143   1.008  -6.515  0.00  0.00    -0.064 C 
BRANCH  19  25
ATOM     20  N   UNL     1       1.022  -0.957  -2.961  0.00  0.00    -0.333 N 
ATOM     21  C   UNL     1       0.421   0.379  -2.844  0.00  0.00    +0.086 C 
ATOM     22  C   UNL     1       0.525   1.102  -4.189  0.00  0.00    -0.060 C 
ATOM     23  C   UNL     1       0.446  -1.026  -5.339  0.00  0.00    -0.060 C 
ATOM     24  C   UNL     1       0.342  -1.749  -3.995  0.00  0.00    +0.086 C 
ATOM     25  N   UNL     1      -0.182   0.306  -5.214  0.00  0.00    +0.382 N 
ATOM     26  H   UNL     1      -1.161   0.188  -4.928  0.00  0.00    -0.082 HD
BRANCH  20  32
ATOM     27  C   UNL     1       3.488  -2.967   0.785  0.00  0.00    +0.044 C 
ATOM     28  C   UNL     1       2.191  -2.608   0.107  0.00  0.00    -0.046 A 
ATOM     29  C   UNL     1       0.986  -2.932   0.704  0.00  0.00    +0.004 A 
ATOM     30  C   UNL     1      -0.206  -2.605   0.085  0.00  0.00    +0.002 A 
ATOM     31  C   UNL     1      -0.198  -1.952  -1.132  0.00  0.00    +0.023 A 
ATOM     32  C   UNL     1       1.010  -1.621  -1.732  0.00  0.00    +0.033 A 
ATOM     33  C   UNL     1       2.207  -1.956  -1.110  0.00  0.00    -0.027 A 
ATOM     34  C   UNL     1       3.520  -1.603  -1.760  0.00  0.00    +0.046 C 
ENDBRANCH  20  32
ENDBRANCH  19  25
ENDBRANCH   1  19
TORSDOF 4
