REMARK  Name = ZINC16789117
REMARK  10 active torsions:
REMARK  status: ('A' for Active; 'I' for Inactive)
REMARK    1  A    between atoms: C_1  and  C_2
REMARK    2  A    between atoms: C_3  and  C_7
REMARK    3  A    between atoms: C_10  and  S_13
REMARK    4  A    between atoms: N_11  and  N_12
REMARK    5  A    between atoms: S_13  and  C_14
REMARK    6  A    between atoms: C_14  and  C_16
REMARK    7  A    between atoms: C_14  and  C_17
REMARK    8  A    between atoms: N_19  and  C_20
REMARK    9  A    between atoms: C_25  and  S_26
REMARK   10  A    between atoms: S_26  and  C_27
REMARK                            x       y       z     vdW  Elec       q    Type
REMARK                         _______ _______ _______ _____ _____    ______ ____
ROOT
ATOM      1  C   UNL     1       1.196   2.207  -0.927  0.00  0.00    +0.137 C 
ATOM      2  C   UNL     1       1.066   3.152  -2.123  0.00  0.00    +0.029 C 
ENDROOT
BRANCH   1   3
ATOM      3  C   UNL     1      -0.056   1.377  -0.803  0.00  0.00    +0.230 C 
ATOM      4  O   UNL     1      -0.073   0.239  -1.221  0.00  0.00    -0.274 OA
ATOM      5  N   UNL     1      -1.158   1.902  -0.232  0.00  0.00    -0.284 N 
ATOM      6  H   UNL     1      -1.123   2.785   0.169  0.00  0.00    +0.155 HD
BRANCH   5   7
ATOM      7  C   UNL     1      -2.354   1.173  -0.217  0.00  0.00    +0.047 A 
ATOM      8  C   UNL     1      -2.323  -0.214  -0.229  0.00  0.00    +0.024 A 
ATOM      9  C   UNL     1      -3.504  -0.932  -0.208  0.00  0.00    +0.002 A 
ATOM     10  C   UNL     1      -4.720  -0.272  -0.186  0.00  0.00    +0.001 A 
ATOM     11  C   UNL     1      -4.761   1.109  -0.179  0.00  0.00    +0.017 A 
ATOM     12  C   UNL     1      -3.580   1.839  -0.194  0.00  0.00    +0.034 A 
BRANCH  12  13
ATOM     13  S   UNL     1      -3.628   3.600  -0.185  0.00  0.00    -0.088 S 
BRANCH  13  14
ATOM     14  C   UNL     1      -3.187   4.030   1.466  0.00  0.00    +0.013 A 
ATOM     15  C   UNL     1      -3.028   3.037   2.425  0.00  0.00    +0.015 A 
ATOM     16  C   UNL     1      -2.678   3.377   3.717  0.00  0.00    +0.001 A 
ATOM     17  C   UNL     1      -2.496   4.705   4.059  0.00  0.00    +0.000 A 
ATOM     18  C   UNL     1      -2.658   5.696   3.108  0.00  0.00    +0.001 A 
ATOM     19  C   UNL     1      -3.003   5.363   1.813  0.00  0.00    +0.015 A 
ENDBRANCH  13  14
ENDBRANCH  12  13
ENDBRANCH   5   7
ENDBRANCH   1   3
BRANCH   1  20
ATOM     20  S   UNL     1       2.620   1.117  -1.171  0.00  0.00    -0.072 S 
BRANCH  20  24
ATOM     21  C   UNL     1       5.884   3.266  -1.171  0.00  0.00    +0.185 A 
ATOM     22  N   UNL     1       4.946   4.165  -0.987  0.00  0.00    -0.127 NA
ATOM     23  N   UNL     1       3.793   3.598  -0.964  0.00  0.00    -0.121 NA
ATOM     24  C   UNL     1       3.924   2.303  -1.132  0.00  0.00    +0.209 A 
ATOM     25  N   UNL     1       5.260   2.044  -1.263  0.00  0.00    -0.224 N 
BRANCH  21  28
ATOM     26  C   UNL     1       7.302   6.054  -0.959  0.00  0.00    +0.087 C 
ATOM     27  C   UNL     1       7.971   4.720  -1.167  0.00  0.00    +0.112 A 
ATOM     28  C   UNL     1       7.339   3.518  -1.256  0.00  0.00    +0.061 A 
ATOM     29  C   UNL     1       8.401   2.525  -1.461  0.00  0.00    +0.053 A 
ATOM     30  C   UNL     1       9.555   3.212  -1.470  0.00  0.00    +0.196 A 
ATOM     31  O   UNL     1       9.290   4.515  -1.292  0.00  0.00    -0.467 OA
ENDBRANCH  21  28
BRANCH  25  32
ATOM     32  N   UNL     1       5.851   0.827  -1.450  0.00  0.00    -0.295 N 
ATOM     33  H   UNL     1       5.937   0.614  -2.433  0.00  0.00    +0.163 HD
ATOM     34  H   UNL     1       6.748   0.786  -0.992  0.00  0.00    +0.163 HD
ENDBRANCH  25  32
ENDBRANCH  20  24
ENDBRANCH   1  20
TORSDOF 8
