REMARK  Name = ZINC09059057
REMARK  8 active torsions:
REMARK  status: ('A' for Active; 'I' for Inactive)
REMARK    1  A    between atoms: C_1  and  C_2
REMARK    2  A    between atoms: C_2  and  N_58
REMARK    3  A    between atoms: C_15  and  C_17
REMARK    4  A    between atoms: C_18  and  O_33
REMARK    5  A    between atoms: C_20  and  O_32
REMARK    6  A    between atoms: N_21  and  C_24
REMARK    7  A    between atoms: C_24  and  C_25
REMARK    8  A    between atoms: C_25  and  C_26
REMARK                            x       y       z     vdW  Elec       q    Type
REMARK                         _______ _______ _______ _____ _____    ______ ____
ROOT
ATOM      1  C   UNL     1      -1.078   3.199  -2.861  0.00  0.00    +0.071 A 
ATOM      2  C   UNL     1      -2.082   2.400  -3.378  0.00  0.00    +0.224 A 
ATOM      3  N   UNL     1      -2.369   1.233  -2.792  0.00  0.00    -0.161 NA
ATOM      4  C   UNL     1      -1.712   0.823  -1.730  0.00  0.00    +0.302 A 
ATOM      5  N   UNL     1      -0.721   1.571  -1.179  0.00  0.00    -0.262 N 
ATOM      6  C   UNL     1      -0.385   2.758  -1.726  0.00  0.00    +0.262 A 
ATOM      7  O   UNL     1       0.507   3.435  -1.240  0.00  0.00    -0.267 OA
ENDROOT
BRANCH   1  20
ATOM      8  C   UNL     1      -0.296   6.861  -3.035  0.00  0.00    -0.073 C 
ATOM      9  C   UNL     1       1.230   6.769  -3.171  0.00  0.00    +0.019 C 
ATOM     10  C   UNL     1       1.556   5.484  -3.889  0.00  0.00    -0.022 A 
ATOM     11  C   UNL     1       2.789   5.078  -4.526  0.00  0.00    +0.003 A 
ATOM     12  C   UNL     1       4.029   5.705  -4.683  0.00  0.00    +0.010 A 
ATOM     13  C   UNL     1       4.997   5.007  -5.362  0.00  0.00    +0.001 A 
ATOM     14  C   UNL     1       4.769   3.740  -5.873  0.00  0.00    +0.002 A 
ATOM     15  C   UNL     1       3.551   3.096  -5.735  0.00  0.00    +0.026 A 
ATOM     16  C   UNL     1       2.549   3.780  -5.049  0.00  0.00    +0.047 A 
ATOM     17  N   UNL     1       1.262   3.447  -4.737  0.00  0.00    -0.359 N 
ATOM     18  H   UNL     1       0.830   2.611  -4.972  0.00  0.00    +0.166 HD
ATOM     19  C   UNL     1       0.675   4.470  -4.043  0.00  0.00    +0.011 A 
ATOM     20  C   UNL     1      -0.736   4.518  -3.505  0.00  0.00    +0.021 C 
ATOM     21  N   UNL     1      -0.801   5.585  -2.479  0.00  0.00    +0.388 N 
ATOM     22  H   UNL     1      -0.215   5.316  -1.681  0.00  0.00    -0.080 HD
BRANCH  21  24
ATOM     23  C   UNL     1      -2.200   6.697  -0.810  0.00  0.00    -0.017 C 
ATOM     24  C   UNL     1      -2.194   5.754  -2.016  0.00  0.00    -0.081 C 
ENDBRANCH  21  24
ENDBRANCH   1  20
BRANCH   4  25
ATOM     25  O   UNL     1      -2.031  -0.363  -1.173  0.00  0.00    -0.479 OA
ATOM     26  H   UNL     1      -2.741  -0.868  -1.593  0.00  0.00    +0.295 HD
ENDBRANCH   4  25
BRANCH   2  27
ATOM     27  O   UNL     1      -2.770   2.797  -4.473  0.00  0.00    -0.492 OA
ATOM     28  H   UNL     1      -3.450   2.172  -4.759  0.00  0.00    +0.294 HD
ENDBRANCH   2  27
BRANCH   5  29
ATOM     29  C   UNL     1      -0.013   1.086   0.008  0.00  0.00    +0.134 C 
BRANCH  29  30
ATOM     30  C   UNL     1      -0.729   1.579   1.267  0.00  0.00    +0.057 C 
BRANCH  30  31
ATOM     31  C   UNL     1       0.000   1.080   2.488  0.00  0.00    -0.046 A 
ATOM     32  C   UNL     1      -0.347  -0.133   3.052  0.00  0.00    +0.004 A 
ATOM     33  C   UNL     1       0.325  -0.593   4.169  0.00  0.00    +0.000 A 
ATOM     34  C   UNL     1       1.337   0.165   4.728  0.00  0.00    +0.000 A 
ATOM     35  C   UNL     1       1.680   1.380   4.167  0.00  0.00    +0.000 A 
ATOM     36  C   UNL     1       1.012   1.838   3.046  0.00  0.00    +0.004 A 
ENDBRANCH  30  31
ENDBRANCH  29  30
ENDBRANCH   5  29
TORSDOF 7
