REMARK  Name = ZINC58983124
REMARK  10 active torsions:
REMARK  status: ('A' for Active; 'I' for Inactive)
REMARK    1  A    between atoms: C_1  and  C_2
REMARK    2  A    between atoms: C_4  and  O_12
REMARK    3  A    between atoms: C_5  and  C_9
REMARK    4  A    between atoms: C_9  and  C_10
REMARK    5  A    between atoms: C_9  and  C_11
REMARK    6  A    between atoms: O_12  and  C_13
REMARK    7  A    between atoms: C_13  and  C_14
REMARK    8  A    between atoms: N_16  and  C_17
REMARK    9  A    between atoms: C_21  and  C_23
REMARK   10  A    between atoms: C_23  and  C_30
REMARK                            x       y       z     vdW  Elec       q    Type
REMARK                         _______ _______ _______ _____ _____    ______ ____
ROOT
ATOM      1  C   UNL     1       0.018  -2.878  -4.780  0.00  0.00    +0.255 C 
ATOM      2  O   UNL     1       0.043  -4.081  -4.626  0.00  0.00    -0.272 OA
ATOM      3  N   UNL     1       0.004  -2.358  -6.023  0.00  0.00    -0.283 N 
ATOM      4  H   UNL     1      -0.084  -1.400  -6.147  0.00  0.00    +0.155 HD
ENDROOT
BRANCH   3   5
ATOM      5  C   UNL     1       0.115  -3.200  -7.135  0.00  0.00    +0.034 A 
ATOM      6  C   UNL     1      -0.464  -4.462  -7.113  0.00  0.00    +0.023 A 
ATOM      7  C   UNL     1      -0.352  -5.291  -8.213  0.00  0.00    +0.002 A 
ATOM      8  C   UNL     1       0.336  -4.865  -9.334  0.00  0.00    +0.006 A 
ATOM      9  C   UNL     1       0.914  -3.609  -9.359  0.00  0.00    -0.014 A 
ATOM     10  C   UNL     1       0.800  -2.773  -8.265  0.00  0.00    +0.029 A 
BRANCH   9  11
ATOM     11  C   UNL     1       1.663  -3.149 -10.583  0.00  0.00    +0.135 C 
ATOM     12  C   UNL     1       3.136  -2.973 -10.272  0.00  0.00    +0.248 C 
ATOM     13  O   UNL     1       3.629  -2.211  -9.469  0.00  0.00    -0.273 OA
ATOM     14  N   UNL     1       3.784  -3.842 -11.074  0.00  0.00    -0.238 N 
ATOM     15  C   UNL     1       2.934  -4.534 -11.840  0.00  0.00    +0.307 C 
ATOM     16  O   UNL     1       3.281  -5.377 -12.644  0.00  0.00    -0.252 OA
ATOM     17  N   UNL     1       1.651  -4.194 -11.621  0.00  0.00    -0.282 N 
ATOM     18  C   UNL     1       1.064  -1.848 -11.121  0.00  0.00    +0.047 C 
ATOM     19  H   UNL     1       4.747  -3.951 -11.093  0.00  0.00    +0.159 HD
ATOM     20  H   UNL     1       0.870  -4.565 -12.061  0.00  0.00    +0.152 HD
ENDBRANCH   9  11
ENDBRANCH   3   5
BRANCH   1  21
ATOM     21  C   UNL     1       0.004  -1.966  -3.581  0.00  0.00    +0.324 C 
BRANCH  21  22
ATOM     22  O   UNL     1       0.024  -2.749  -2.386  0.00  0.00    -0.482 OA
BRANCH  22  26
ATOM     23  C   UNL     1      -0.055   1.503   0.010  0.00  0.00    +0.045 C 
ATOM     24  C   UNL     1      -0.024  -0.004   0.002  0.00  0.00    -0.029 A 
ATOM     25  C   UNL     1      -0.014  -0.688  -1.199  0.00  0.00    +0.050 A 
ATOM     26  C   UNL     1       0.014  -2.075  -1.206  0.00  0.00    +0.125 A 
ATOM     27  C   UNL     1       0.032  -2.772  -0.007  0.00  0.00    -0.002 A 
ATOM     28  C   UNL     1       0.021  -2.085   1.192  0.00  0.00    +0.027 A 
ATOM     29  C   UNL     1      -0.001  -0.702   1.196  0.00  0.00    +0.044 A 
ATOM     30 CL   UNL     1      -0.007   0.160   2.704  0.00  0.00    -0.083 Cl
BRANCH  27  31
ATOM     31  C   UNL     1       0.062  -4.279  -0.011  0.00  0.00    +0.016 C 
ATOM     32  C   UNL     1       1.323  -4.766   0.704  0.00  0.00    +0.012 C 
ATOM     33  C   UNL     1      -1.175  -4.816   0.712  0.00  0.00    +0.012 C 
ENDBRANCH  27  31
ENDBRANCH  22  26
ENDBRANCH  21  22
ENDBRANCH   1  21
TORSDOF 6
