REMARK  Name = ZINC30503637
REMARK  10 active torsions:
REMARK  status: ('A' for Active; 'I' for Inactive)
REMARK    1  A    between atoms: C_1  and  C_2
REMARK    2  A    between atoms: C_2  and  C_30
REMARK    3  A    between atoms: C_7  and  C_29
REMARK    4  A    between atoms: C_8  and  N_11
REMARK    5  A    between atoms: C_12  and  C_14
REMARK    6  A    between atoms: C_14  and  O_15
REMARK    7  A    between atoms: O_15  and  C_16
REMARK    8  A    between atoms: C_16  and  C_18
REMARK    9  A    between atoms: C_21  and  C_24
REMARK   10  A    between atoms: C_24  and  N_25
REMARK                            x       y       z     vdW  Elec       q    Type
REMARK                         _______ _______ _______ _____ _____    ______ ____
ROOT
ATOM      1  O   UNL     1      -3.638   4.551   5.176  0.00  0.00    -0.452 OA
ENDROOT
BRANCH   1   2
ATOM      2  C   UNL     1      -2.302   4.423   5.296  0.00  0.00    +0.340 C 
ATOM      3  O   UNL     1      -1.778   4.521   6.388  0.00  0.00    -0.245 OA
BRANCH   2   4
ATOM      4  C   UNL     1      -1.475   4.161   4.101  0.00  0.00    +0.059 A 
ATOM      5  C   UNL     1      -0.090   4.027   4.222  0.00  0.00    +0.015 A 
ATOM      6  C   UNL     1       0.677   3.783   3.102  0.00  0.00    +0.006 A 
ATOM      7  C   UNL     1       0.077   3.671   1.860  0.00  0.00    -0.030 A 
ATOM      8  C   UNL     1      -1.294   3.808   1.732  0.00  0.00    +0.006 A 
ATOM      9  C   UNL     1      -2.073   4.047   2.845  0.00  0.00    +0.015 A 
BRANCH   7  10
ATOM     10  C   UNL     1       0.921   3.404   0.640  0.00  0.00    +0.141 C 
BRANCH  10  11
ATOM     11  N   UNL     1       1.046   1.958   0.440  0.00  0.00    -0.295 N 
ATOM     12  C   UNL     1       1.762   1.481  -0.598  0.00  0.00    +0.297 C 
ATOM     13  O   UNL     1       2.304   2.251  -1.367  0.00  0.00    -0.253 OA
ATOM     14  N   UNL     1       1.876   0.151  -0.783  0.00  0.00    -0.313 N 
ATOM     15  H   UNL     1       0.555   1.262   1.136  0.00  0.00    +0.151 HD
ATOM     16  H   UNL     1       2.461  -0.238  -1.629  0.00  0.00    +0.146 HD
ATOM     17  H   UNL     1       1.386  -0.545  -0.086  0.00  0.00    +0.146 HD
ENDBRANCH  10  11
ENDBRANCH   7  10
ENDBRANCH   2   4
ENDBRANCH   1   2
BRANCH   1  18
ATOM     18  C   UNL     1      -4.388   4.807   6.393  0.00  0.00    +0.328 C 
BRANCH  18  20
ATOM     19  N   UNL     1      -6.748   5.159   7.045  0.00  0.00    -0.309 N 
ATOM     20  C   UNL     1      -5.854   4.921   6.064  0.00  0.00    +0.251 C 
ATOM     21  O   UNL     1      -6.230   4.798   4.918  0.00  0.00    -0.272 OA
ATOM     22  H   UNL     1      -6.407   5.270   8.085  0.00  0.00    +0.149 HD
BRANCH  19  29
ATOM     23  C   UNL     1     -10.189   4.905   9.944  0.00  0.00    +0.012 C 
ATOM     24  C   UNL     1      -9.220   4.620   8.795  0.00  0.00    -0.025 C 
ATOM     25  C   UNL     1      -9.892   3.777   7.654  0.00  0.00    -0.003 C 
ATOM     26  C   UNL     1     -11.003   4.764   7.183  0.00  0.00    +0.005 C 
ATOM     27  C   UNL     1     -10.380   6.168   7.360  0.00  0.00    +0.009 C 
ATOM     28  C   UNL     1      -8.951   5.900   7.921  0.00  0.00    -0.008 C 
ATOM     29  C   UNL     1      -8.173   5.269   6.726  0.00  0.00    +0.080 C 
ATOM     30  C   UNL     1      -8.796   3.865   6.548  0.00  0.00    +0.027 C 
ATOM     31  C   UNL     1      -8.269   7.082   8.613  0.00  0.00    +0.013 C 
ATOM     32  C   UNL     1      -7.922   3.982   9.293  0.00  0.00    +0.012 C 
ENDBRANCH  19  29
ENDBRANCH  18  20
ENDBRANCH   1  18
TORSDOF 7
