REMARK  Name = ZINC16204099
REMARK  7 active torsions:
REMARK  status: ('A' for Active; 'I' for Inactive)
REMARK    1  A    between atoms: C_1  and  C_2
REMARK    2  A    between atoms: C_2  and  C_3
REMARK    3  A    between atoms: C_2  and  C_4
REMARK    4  A    between atoms: C_2  and  C_5
REMARK    5  A    between atoms: C_12  and  C_14
REMARK    6  A    between atoms: N_16  and  N_17
REMARK    7  A    between atoms: C_18  and  C_20
REMARK                            x       y       z     vdW  Elec       q    Type
REMARK                         _______ _______ _______ _____ _____    ______ ____
ROOT
ATOM      1  C   UNL     1       7.099  -0.156  -0.529  0.00  0.00    -0.001 C 
ATOM      2  C   UNL     1       6.804  -1.405   0.307  0.00  0.00    +0.009 C 
ATOM      3  C   UNL     1       5.407  -1.926  -0.059  0.00  0.00    +0.043 C 
ATOM      4  C   UNL     1       4.454  -0.771  -0.045  0.00  0.00    -0.006 A 
ATOM      5  C   UNL     1       4.770   0.558  -0.041  0.00  0.00    -0.036 A 
ATOM      6  C   UNL     1       3.711   1.451  -0.031  0.00  0.00    +0.024 A 
ATOM      7  C   UNL     1       2.426   0.940  -0.016  0.00  0.00    +0.076 A 
ATOM      8  S   UNL     1       2.732  -0.818  -0.029  0.00  0.00    -0.088 S 
ATOM      9  C   UNL     1       6.229   1.007  -0.053  0.00  0.00    +0.040 C 
ENDROOT
BRANCH   1  11
ATOM     10  C   UNL     1       8.879   0.517   1.090  0.00  0.00    +0.011 C 
ATOM     11  C   UNL     1       8.575   0.219  -0.380  0.00  0.00    -0.035 C 
ATOM     12  C   UNL     1       9.447  -0.945  -0.856  0.00  0.00    +0.011 C 
ATOM     13  C   UNL     1       8.873   1.459  -1.224  0.00  0.00    +0.011 C 
ENDBRANCH   1  11
BRANCH   7  14
ATOM     14  C   UNL     1       1.147   1.655   0.000  0.00  0.00    +0.267 C 
ATOM     15  O   UNL     1       1.130   2.872   0.007  0.00  0.00    -0.268 OA
ATOM     16  N   UNL     1      -0.011   0.966   0.007  0.00  0.00    -0.230 N 
ATOM     17  H   UNL     1       0.002  -0.004   0.002  0.00  0.00    +0.173 HD
BRANCH  16  18
ATOM     18  N   UNL     1      -1.234   1.650   0.017  0.00  0.00    -0.230 N 
ATOM     19  C   UNL     1      -2.392   0.960   0.019  0.00  0.00    +0.263 C 
ATOM     20  O   UNL     1      -2.375  -0.256   0.012  0.00  0.00    -0.269 OA
ATOM     21  H   UNL     1      -1.247   2.620   0.022  0.00  0.00    +0.173 HD
BRANCH  19  22
ATOM     22  C   UNL     1      -3.678   1.680   0.029  0.00  0.00    +0.076 A 
ATOM     23  C   UNL     1      -5.025   1.091   0.032  0.00  0.00    +0.054 A 
ATOM     24  C   UNL     1      -5.879   2.126   0.042  0.00  0.00    +0.195 A 
ATOM     25  O   UNL     1      -5.181   3.272   0.045  0.00  0.00    -0.470 OA
ATOM     26  C   UNL     1      -3.867   3.030   0.043  0.00  0.00    +0.208 A 
ENDBRANCH  19  22
ENDBRANCH  16  18
ENDBRANCH   7  14
TORSDOF 4
