REMARK  Name = ZINC46898687
REMARK  9 active torsions:
REMARK  status: ('A' for Active; 'I' for Inactive)
REMARK    1  A    between atoms: C_1  and  C_2
REMARK    2  A    between atoms: C_6  and  C_7
REMARK    3  A    between atoms: N_9  and  C_10
REMARK    4  A    between atoms: C_10  and  C_11
REMARK    5  A    between atoms: C_11  and  C_13
REMARK    6  A    between atoms: C_11  and  N_18
REMARK    7  A    between atoms: C_21  and  C_24
REMARK    8  A    between atoms: C_26  and  C_30
REMARK    9  A    between atoms: C_26  and  C_31
REMARK                            x       y       z     vdW  Elec       q    Type
REMARK                         _______ _______ _______ _____ _____    ______ ____
ROOT
ATOM      1  C   UNL     1      -0.238  -0.403   2.491  0.00  0.00    +0.280 C 
ATOM      2  O   UNL     1      -0.465   0.762   2.760  0.00  0.00    -0.267 OA
ATOM      3  N   UNL     1      -0.063  -1.301   3.481  0.00  0.00    -0.310 N 
ATOM      4  H   UNL     1       0.117  -2.230   3.267  0.00  0.00    +0.149 HD
ENDROOT
BRANCH   1  10
ATOM      5  C   UNL     1      -0.601   1.459   0.011  0.00  0.00    +0.048 C 
ATOM      6  C   UNL     1      -0.315  -0.021   0.003  0.00  0.00    +0.011 A 
ATOM      7  C   UNL     1      -0.151  -0.841  -1.124  0.00  0.00    +0.062 A 
ATOM      8  C   UNL     1       0.094  -2.129  -0.661  0.00  0.00    +0.117 A 
ATOM      9  O   UNL     1       0.085  -2.092   0.664  0.00  0.00    -0.454 OA
ATOM     10  C   UNL     1      -0.157  -0.831   1.089  0.00  0.00    +0.193 A 
ATOM     11  C   UNL     1       0.317  -3.300  -1.583  0.00  0.00    +0.082 C 
ATOM     12  C   UNL     1      -0.259  -2.973  -2.964  0.00  0.00    -0.021 C 
ATOM     13  C   UNL     1       0.292  -1.640  -3.479  0.00  0.00    +0.086 C 
ATOM     14  C   UNL     1      -0.202  -0.531  -2.561  0.00  0.00    +0.167 C 
ATOM     15  O   UNL     1      -0.608   0.531  -2.983  0.00  0.00    -0.292 OA
ATOM     16  C   UNL     1      -1.783  -2.885  -2.866  0.00  0.00    +0.012 C 
ATOM     17  C   UNL     1       0.119  -4.086  -3.944  0.00  0.00    +0.012 C 
ENDBRANCH   1  10
BRANCH   3  18
ATOM     18  C   UNL     1      -0.145  -0.875   4.880  0.00  0.00    +0.094 C 
BRANCH  18  19
ATOM     19  C   UNL     1      -0.040  -2.098   5.793  0.00  0.00    -0.013 C 
BRANCH  19  20
ATOM     20  N   UNL     1      -0.033  -1.663   7.196  0.00  0.00    +0.386 N 
ATOM     21  C   UNL     1      -0.017  -2.840   8.072  0.00  0.00    -0.078 C 
ATOM     22  C   UNL     1      -0.092  -2.394   9.534  0.00  0.00    -0.015 C 
ATOM     23  C   UNL     1       1.112  -1.502   9.852  0.00  0.00    -0.018 C 
ATOM     24  C   UNL     1       1.126  -0.317   8.884  0.00  0.00    -0.015 C 
ATOM     25  C   UNL     1       1.156  -0.840   7.446  0.00  0.00    -0.078 C 
ATOM     26  C   UNL     1       1.002  -0.988  11.289  0.00  0.00    +0.007 C 
ATOM     27  H   UNL     1      -0.863  -1.119   7.383  0.00  0.00    -0.081 HD
ENDBRANCH  19  20
BRANCH  19  28
ATOM     28  C   UNL     1      -1.219  -3.006   5.554  0.00  0.00    -0.022 A 
ATOM     29  C   UNL     1      -1.287  -4.140   4.816  0.00  0.00    +0.009 A 
ATOM     30  C   UNL     1      -2.489  -4.819   4.739  0.00  0.00    +0.008 A 
ATOM     31  C   UNL     1      -3.564  -4.329   5.404  0.00  0.00    +0.045 A 
ATOM     32  S   UNL     1      -2.887  -2.869   6.177  0.00  0.00    -0.103 S 
ENDBRANCH  19  28
ENDBRANCH  18  19
ENDBRANCH   3  18
TORSDOF 5
