REMARK  Name = ZINC59060830
REMARK  11 active torsions:
REMARK  status: ('A' for Active; 'I' for Inactive)
REMARK    1  A    between atoms: C_1  and  C_2
REMARK    2  A    between atoms: C_3  and  C_35
REMARK    3  A    between atoms: N_9  and  C_12
REMARK    4  A    between atoms: C_12  and  C_13
REMARK    5  A    between atoms: C_13  and  C_14
REMARK    6  A    between atoms: N_16  and  C_17
REMARK    7  A    between atoms: C_17  and  C_18
REMARK    8  A    between atoms: C_23  and  C_24
REMARK    9  A    between atoms: C_24  and  N_25
REMARK   10  A    between atoms: C_27  and  C_34
REMARK   11  A    between atoms: C_30  and  C_33
REMARK                            x       y       z     vdW  Elec       q    Type
REMARK                         _______ _______ _______ _____ _____    ______ ____
ROOT
ATOM      1  C   UNL     1      -1.088   0.142   7.574  0.00  0.00    +0.215 C 
ATOM      2  O   UNL     1      -0.161   0.261   8.347  0.00  0.00    -0.276 OA
ATOM      3  N   UNL     1      -2.341   0.433   7.977  0.00  0.00    -0.311 N 
ATOM      4  H   UNL     1      -3.083   0.338   7.359  0.00  0.00    +0.149 HD
ENDROOT
BRANCH   1   5
ATOM      5  C   UNL     1      -0.840  -0.330   6.165  0.00  0.00    +0.117 C 
BRANCH   5   6
ATOM      6  C   UNL     1       0.655  -0.588   5.970  0.00  0.00    +0.135 C 
BRANCH   6  15
ATOM      7  C   UNL     1       1.772   1.668   1.162  0.00  0.00    +0.045 C 
ATOM      8  C   UNL     1       1.679   0.165   1.102  0.00  0.00    -0.026 A 
ATOM      9  C   UNL     1       1.871  -0.481  -0.059  0.00  0.00    -0.008 A 
ATOM     10  S   UNL     1       1.661  -2.196   0.384  0.00  0.00    -0.073 S 
ATOM     11  C   UNL     1       1.322  -1.993   2.114  0.00  0.00    +0.116 A 
ATOM     12  C   UNL     1       1.387  -0.601   2.299  0.00  0.00    +0.075 A 
ATOM     13  C   UNL     1       1.152  -0.142   3.637  0.00  0.00    +0.262 A 
ATOM     14  O   UNL     1       1.183   1.048   3.898  0.00  0.00    -0.267 OA
ATOM     15  N   UNL     1       0.897  -1.047   4.600  0.00  0.00    -0.298 N 
ATOM     16  C   UNL     1       0.859  -2.377   4.327  0.00  0.00    +0.203 A 
ATOM     17  N   UNL     1       1.059  -2.825   3.117  0.00  0.00    -0.230 NA
ATOM     18  C   UNL     1       2.187   0.102  -1.412  0.00  0.00    +0.052 C 
ENDBRANCH   6  15
ENDBRANCH   5   6
ENDBRANCH   1   5
BRANCH   3  19
ATOM     19  C   UNL     1      -2.583   0.892   9.347  0.00  0.00    +0.139 C 
BRANCH  19  20
ATOM     20  C   UNL     1      -4.066   1.017   9.581  0.00  0.00    -0.029 A 
ATOM     21  C   UNL     1      -4.681   2.251   9.480  0.00  0.00    +0.005 A 
ATOM     22  C   UNL     1      -6.041   2.365   9.695  0.00  0.00    +0.000 A 
ATOM     23  C   UNL     1      -6.788   1.245  10.010  0.00  0.00    +0.000 A 
ATOM     24  C   UNL     1      -6.174   0.011  10.109  0.00  0.00    +0.002 A 
ATOM     25  C   UNL     1      -4.814  -0.104   9.890  0.00  0.00    -0.059 A 
BRANCH  25  26
ATOM     26  C   UNL     1      -4.145  -1.450   9.994  0.00  0.00    -0.043 C 
BRANCH  26  27
ATOM     27  N   UNL     1      -3.981  -2.020   8.650  0.00  0.00    +0.383 N 
ATOM     28  C   UNL     1      -5.301  -2.298   8.073  0.00  0.00    -0.075 C 
ATOM     29  C   UNL     1      -5.139  -2.816   6.643  0.00  0.00    -0.031 C 
ATOM     30  C   UNL     1      -4.308  -4.103   6.663  0.00  0.00    +0.003 C 
ATOM     31  C   UNL     1      -2.961  -3.818   7.333  0.00  0.00    -0.031 C 
ATOM     32  C   UNL     1      -3.204  -3.263   8.739  0.00  0.00    -0.075 C 
ATOM     33  C   UNL     1      -2.153  -5.114   7.428  0.00  0.00    +0.005 C 
ATOM     34  C   UNL     1      -6.517  -3.106   6.045  0.00  0.00    +0.005 C 
ATOM     35  H   UNL     1      -3.492  -1.361   8.064  0.00  0.00    -0.081 HD
ENDBRANCH  26  27
ENDBRANCH  25  26
ENDBRANCH  19  20
ENDBRANCH   3  19
TORSDOF 7
