REMARK  Name = ZINC44776249
REMARK  6 active torsions:
REMARK  status: ('A' for Active; 'I' for Inactive)
REMARK    1  A    between atoms: C_1  and  C_2
REMARK    2  A    between atoms: C_2  and  C_4
REMARK    3  A    between atoms: C_2  and  N_7
REMARK    4  A    between atoms: C_8  and  C_10
REMARK    5  A    between atoms: C_10  and  C_17
REMARK    6  A    between atoms: C_17  and  N_19
REMARK                            x       y       z     vdW  Elec       q    Type
REMARK                         _______ _______ _______ _____ _____    ______ ____
ROOT
ATOM      1  C   UNL     1       2.791  -0.987   2.424  0.00  0.00    +0.091 C 
ATOM      2  C   UNL     1       2.275  -2.386   2.816  0.00  0.00    +0.023 C 
ATOM      3  C   UNL     1       2.152  -3.217   1.567  0.00  0.00    +0.001 C 
ATOM      4  C   UNL     1       3.408  -4.069   1.301  0.00  0.00    +0.000 C 
ATOM      5  C   UNL     1       4.717  -3.302   1.567  0.00  0.00    +0.000 C 
ATOM      6  C   UNL     1       4.670  -1.887   1.058  0.00  0.00    +0.001 C 
ATOM      7  C   UNL     1       4.231  -0.965   2.214  0.00  0.00    +0.023 C 
ENDROOT
BRANCH   1   9
ATOM      8  N   UNL     1       0.766  -0.648   1.044  0.00  0.00    -0.303 N 
ATOM      9  C   UNL     1       2.106  -0.552   1.154  0.00  0.00    +0.226 C 
ATOM     10  O   UNL     1       2.760  -0.115   0.231  0.00  0.00    -0.275 OA
ATOM     11  H   UNL     1       0.249  -1.057   1.756  0.00  0.00    +0.149 HD
BRANCH   8  13
ATOM     12  C   UNL     1      -0.178   1.361   0.018  0.00  0.00    +0.038 C 
ATOM     13  C   UNL     1       0.090  -0.136  -0.150  0.00  0.00    +0.156 C 
BRANCH  13  14
ATOM     14  C   UNL     1      -1.216  -0.863  -0.339  0.00  0.00    +0.231 C 
ATOM     15  O   UNL     1      -1.550  -1.724   0.447  0.00  0.00    -0.274 OA
ATOM     16  N   UNL     1      -2.014  -0.556  -1.381  0.00  0.00    -0.328 N 
ATOM     17  H   UNL     1      -1.747   0.132  -2.010  0.00  0.00    +0.145 HD
ATOM     18  H   UNL     1      -2.855  -1.024  -1.503  0.00  0.00    +0.145 HD
ENDBRANCH  13  14
ENDBRANCH   8  13
ENDBRANCH   1   9
BRANCH   1  19
ATOM     19  C   UNL     1       2.443  -0.015   3.523  0.00  0.00    +0.061 C 
ATOM     20  S   UNL     1       3.573   0.935   4.136  0.00  0.00    -0.040 S 
BRANCH  19  21
ATOM     21  N   UNL     1       1.180   0.052   3.988  0.00  0.00    -0.355 N 
ATOM     22  H   UNL     1       0.481  -0.474   3.570  0.00  0.00    +0.143 HD
ATOM     23  H   UNL     1       0.971   0.627   4.741  0.00  0.00    +0.143 HD
ENDBRANCH  19  21
ENDBRANCH   1  19
TORSDOF 5
