REMARK  Name = ZINC15645245
REMARK  9 active torsions:
REMARK  status: ('A' for Active; 'I' for Inactive)
REMARK    1  A    between atoms: C_1  and  C_2
REMARK    2  A    between atoms: C_5  and  N_9
REMARK    3  A    between atoms: C_6  and  C_8
REMARK    4  A    between atoms: C_10  and  C_12
REMARK    5  A    between atoms: C_12  and  C_14
REMARK    6  A    between atoms: C_12  and  O_15
REMARK    7  A    between atoms: O_15  and  C_16
REMARK    8  A    between atoms: C_16  and  C_18
REMARK    9  A    between atoms: C_21  and  O_24
REMARK                            x       y       z     vdW  Elec       q    Type
REMARK                         _______ _______ _______ _____ _____    ______ ____
ROOT
ATOM      1  C   UNL     1      -0.134  -6.343  -1.187  0.00  0.00    +0.259 C 
ATOM      2  C   UNL     1      -1.439  -6.773  -0.514  0.00  0.00    +0.062 C 
ENDROOT
BRANCH   1   4
ATOM      3  N   UNL     1       0.059  -4.170  -0.021  0.00  0.00    -0.282 N 
ATOM      4  C   UNL     1      -0.040  -4.839  -1.187  0.00  0.00    +0.258 C 
ATOM      5  O   UNL     1      -0.054  -4.230  -2.236  0.00  0.00    -0.271 OA
ATOM      6  H   UNL     1       0.135  -4.658   0.814  0.00  0.00    +0.155 HD
BRANCH   3  11
ATOM      7  C   UNL     1       0.025   1.503   0.005  0.00  0.00    +0.044 C 
ATOM      8  C   UNL     1       0.034  -0.004  -0.002  0.00  0.00    -0.050 A 
ATOM      9  C   UNL     1       0.631  -0.685  -1.046  0.00  0.00    +0.005 A 
ATOM     10  C   UNL     1       0.641  -2.066  -1.055  0.00  0.00    +0.024 A 
ATOM     11  C   UNL     1       0.051  -2.771  -0.014  0.00  0.00    +0.036 A 
ATOM     12  C   UNL     1      -0.548  -2.083   1.033  0.00  0.00    -0.029 A 
ATOM     13  C   UNL     1      -0.550  -0.702   1.039  0.00  0.00    +0.008 A 
ATOM     14  C   UNL     1      -1.190  -2.843   2.165  0.00  0.00    +0.045 C 
ENDBRANCH   3  11
ENDBRANCH   1   4
BRANCH   1  15
ATOM     15  O   UNL     1      -0.112  -6.821  -2.533  0.00  0.00    -0.449 OA
BRANCH  15  16
ATOM     16  C   UNL     1       0.422  -8.041  -2.741  0.00  0.00    +0.340 C 
ATOM     17  O   UNL     1       0.857  -8.681  -1.804  0.00  0.00    -0.245 OA
BRANCH  16  18
ATOM     18  C   UNL     1       0.478  -8.599  -4.104  0.00  0.00    +0.059 A 
ATOM     19  C   UNL     1      -0.017  -7.862  -5.184  0.00  0.00    +0.018 A 
ATOM     20  C   UNL     1       0.038  -8.387  -6.456  0.00  0.00    +0.046 A 
ATOM     21  C   UNL     1       0.584  -9.648  -6.667  0.00  0.00    +0.117 A 
ATOM     22  C   UNL     1       1.077 -10.384  -5.596  0.00  0.00    +0.046 A 
ATOM     23  C   UNL     1       1.031  -9.864  -4.322  0.00  0.00    +0.018 A 
BRANCH  21  24
ATOM     24  O   UNL     1       0.635 -10.162  -7.922  0.00  0.00    -0.507 OA
ATOM     25  H   UNL     1       1.446  -9.946  -8.402  0.00  0.00    +0.292 HD
ENDBRANCH  21  24
ENDBRANCH  16  18
ENDBRANCH  15  16
ENDBRANCH   1  15
TORSDOF 6
