REMARK  Name = ZINC49500203
REMARK  8 active torsions:
REMARK  status: ('A' for Active; 'I' for Inactive)
REMARK    1  A    between atoms: C_1  and  C_2
REMARK    2  A    between atoms: C_2  and  C_3
REMARK    3  A    between atoms: C_2  and  C_4
REMARK    4  A    between atoms: C_2  and  C_5
REMARK    5  A    between atoms: N_10  and  S_11
REMARK    6  A    between atoms: S_11  and  C_14
REMARK    7  A    between atoms: C_17  and  N_20
REMARK    8  A    between atoms: N_20  and  C_21
REMARK                            x       y       z     vdW  Elec       q    Type
REMARK                         _______ _______ _______ _____ _____    ______ ____
ROOT
ATOM      1  S   UNL     1       2.550  -3.689  -4.454  0.00  0.00    +0.101 S 
ATOM      2  O   UNL     1       1.702  -3.206  -5.487  0.00  0.00    -0.146 OA
ATOM      3  O   UNL     1       3.868  -3.194  -4.257  0.00  0.00    -0.146 OA
ENDROOT
BRANCH   1   9
ATOM      4  C   UNL     1       0.707  -0.490  -1.238  0.00  0.00    +0.030 A 
ATOM      5  C   UNL     1       1.198   0.390  -2.111  0.00  0.00    +0.070 A 
ATOM      6  S   UNL     1       1.910  -0.674  -3.356  0.00  0.00    -0.057 S 
ATOM      7  C   UNL     1       1.493  -2.241  -2.606  0.00  0.00    +0.192 A 
ATOM      8  N   UNL     1       0.847  -1.829  -1.460  0.00  0.00    -0.336 N 
ATOM      9  N   UNL     1       1.740  -3.456  -3.029  0.00  0.00    -0.103 NA
ATOM     10  H   UNL     1       0.497  -2.476  -0.828  0.00  0.00    +0.168 HD
BRANCH   4  12
ATOM     11  C   UNL     1      -0.019   1.526   0.010  0.00  0.00    +0.017 C 
ATOM     12  C   UNL     1       0.002  -0.004   0.002  0.00  0.00    +0.003 C 
ATOM     13  C   UNL     1       0.742  -0.511   1.242  0.00  0.00    +0.017 C 
ATOM     14  C   UNL     1      -1.433  -0.534   0.013  0.00  0.00    +0.017 C 
ENDBRANCH   4  12
ENDBRANCH   1   9
BRANCH   1  15
ATOM     15  C   UNL     1       2.695  -5.428  -4.693  0.00  0.00    +0.113 A 
ATOM     16  C   UNL     1       3.791  -6.105  -4.190  0.00  0.00    +0.031 A 
ATOM     17  C   UNL     1       3.908  -7.468  -4.376  0.00  0.00    +0.025 A 
ATOM     18  C   UNL     1       2.923  -8.160  -5.069  0.00  0.00    +0.027 A 
ATOM     19  C   UNL     1       1.823  -7.478  -5.573  0.00  0.00    +0.025 A 
ATOM     20  C   UNL     1       1.710  -6.115  -5.379  0.00  0.00    +0.031 A 
BRANCH  18  21
ATOM     21  N   UNL     1       3.038  -9.539  -5.259  0.00  0.00    -0.347 N 
ATOM     22  C   UNL     1       1.998 -10.267  -5.990  0.00  0.00    +0.125 C 
ATOM     23  H   UNL     1       3.807 -10.015  -4.907  0.00  0.00    +0.146 HD
ENDBRANCH  18  21
ENDBRANCH   1  15
TORSDOF 4
