REMARK  Name = ZINC03395943
REMARK  12 active torsions:
REMARK  status: ('A' for Active; 'I' for Inactive)
REMARK    1  A    between atoms: C_1  and  C_2
REMARK    2  A    between atoms: C_2  and  C_3
REMARK    3  A    between atoms: C_9  and  S_16
REMARK    4  A    between atoms: N_10  and  C_13
REMARK    5  A    between atoms: C_13  and  C_14
REMARK    6  A    between atoms: S_16  and  C_17
REMARK    7  A    between atoms: C_17  and  C_19
REMARK    8  A    between atoms: C_17  and  C_20
REMARK    9  A    between atoms: N_22  and  C_23
REMARK   10  A    between atoms: C_25  and  N_31
REMARK   11  A    between atoms: C_28  and  O_29
REMARK   12  A    between atoms: O_29  and  C_30
REMARK                            x       y       z     vdW  Elec       q    Type
REMARK                         _______ _______ _______ _____ _____    ______ ____
ROOT
ATOM      1  C   UNL     1      -2.476   1.122   0.145  0.00  0.00    +0.137 C 
ATOM      2  C   UNL     1      -2.799   0.902   1.624  0.00  0.00    +0.029 C 
ENDROOT
BRANCH   1   3
ATOM      3  C   UNL     1      -1.110   1.746   0.016  0.00  0.00    +0.230 C 
ATOM      4  O   UNL     1      -1.000   2.950  -0.079  0.00  0.00    -0.274 OA
ATOM      5  N   UNL     1      -0.011   0.966   0.007  0.00  0.00    -0.282 N 
ATOM      6  H   UNL     1      -0.102   0.000   0.018  0.00  0.00    +0.155 HD
BRANCH   5   7
ATOM      7  C   UNL     1       1.262   1.550  -0.024  0.00  0.00    +0.078 A 
ATOM      8  C   UNL     1       1.470   2.728  -0.726  0.00  0.00    +0.059 A 
ATOM      9  C   UNL     1       2.726   3.304  -0.752  0.00  0.00    +0.128 A 
ATOM     10  C   UNL     1       3.780   2.704  -0.087  0.00  0.00    +0.036 A 
ATOM     11  C   UNL     1       3.581   1.527   0.610  0.00  0.00    +0.050 A 
ATOM     12  C   UNL     1       2.324   0.946   0.645  0.00  0.00    +0.141 A 
BRANCH   9  13
ATOM     13  N   UNL     1       2.945   4.564  -1.498  0.00  0.00    +0.056 N 
ATOM     14  O   UNL     1       4.052   5.071  -1.526  0.00  0.00    -0.126 OA
ATOM     15  O   UNL     1       2.018   5.094  -2.084  0.00  0.00    -0.126 OA
ENDBRANCH   9  13
BRANCH  12  16
ATOM     16  O   UNL     1       2.128  -0.212   1.331  0.00  0.00    -0.493 OA
ATOM     17  C   UNL     1       3.262  -0.775   1.993  0.00  0.00    +0.277 C 
ENDBRANCH  12  16
ENDBRANCH   5   7
ENDBRANCH   1   3
BRANCH   1  18
ATOM     18  S   UNL     1      -3.713   2.223  -0.586  0.00  0.00    -0.075 S 
BRANCH  18  25
ATOM     19  C   UNL     1      -8.137  -2.526   0.568  0.00  0.00    -0.008 A 
ATOM     20  C   UNL     1      -8.440  -1.351  -0.003  0.00  0.00    +0.026 A 
ATOM     21  C   UNL     1      -7.387  -0.372  -0.213  0.00  0.00    +0.072 A 
ATOM     22  C   UNL     1      -6.109  -0.772   0.222  0.00  0.00    +0.116 A 
ATOM     23  S   UNL     1      -6.385  -2.401   0.871  0.00  0.00    -0.073 S 
ATOM     24  N   UNL     1      -5.045   0.011   0.095  0.00  0.00    -0.216 NA
ATOM     25  C   UNL     1      -5.148   1.210  -0.440  0.00  0.00    +0.174 A 
ATOM     26  N   UNL     1      -6.349   1.677  -0.889  0.00  0.00    -0.283 N 
ATOM     27  C   UNL     1      -7.466   0.932  -0.794  0.00  0.00    +0.263 A 
ATOM     28  O   UNL     1      -8.532   1.364  -1.200  0.00  0.00    -0.267 OA
BRANCH  19  30
ATOM     29  C   UNL     1      -9.104  -4.632  -0.316  0.00  0.00    +0.009 C 
ATOM     30  C   UNL     1      -9.058  -3.678   0.879  0.00  0.00    +0.039 C 
ENDBRANCH  19  30
BRANCH  26  31
ATOM     31  C   UNL     1      -6.425   3.014  -1.483  0.00  0.00    +0.154 C 
BRANCH  31  32
ATOM     32  C   UNL     1      -6.188   2.917  -2.969  0.00  0.00    -0.013 C 
ATOM     33  C   UNL     1      -7.069   3.406  -3.805  0.00  0.00    +0.005 C 
ENDBRANCH  31  32
ENDBRANCH  26  31
ENDBRANCH  18  25
ENDBRANCH   1  18
TORSDOF 9
