REMARK  Name = ZINC08845499
REMARK  10 active torsions:
REMARK  status: ('A' for Active; 'I' for Inactive)
REMARK    1  A    between atoms: C_1  and  C_2
REMARK    2  A    between atoms: C_2  and  O_3
REMARK    3  A    between atoms: O_3  and  C_4
REMARK    4  A    between atoms: C_6  and  C_11
REMARK    5  A    between atoms: C_9  and  O_10
REMARK    6  A    between atoms: C_14  and  C_30
REMARK    7  A    between atoms: N_21  and  C_22
REMARK    8  A    between atoms: C_22  and  C_23
REMARK    9  A    between atoms: C_33  and  C_37
REMARK   10  A    between atoms: C_35  and  O_36
REMARK                            x       y       z     vdW  Elec       q    Type
REMARK                         _______ _______ _______ _____ _____    ______ ____
ROOT
ATOM      1  C   UNL     1       0.654  -4.954  -0.018  0.00  0.00    +0.142 C 
ATOM      2  C   UNL     1       0.902  -5.469  -1.410  0.00  0.00    +0.035 A 
ATOM      3  C   UNL     1       1.182  -5.181  -2.707  0.00  0.00    +0.075 A 
ATOM      4  N   UNL     1       1.240  -6.374  -3.369  0.00  0.00    -0.276 N 
ATOM      5  H   UNL     1       1.425  -6.477  -4.316  0.00  0.00    +0.189 HD
ATOM      6  N   UNL     1       1.014  -7.340  -2.552  0.00  0.00    -0.168 NA
ATOM      7  C   UNL     1       0.798  -6.877  -1.337  0.00  0.00    +0.153 A 
ATOM      8  C   UNL     1       0.493  -7.237   0.059  0.00  0.00    +0.268 C 
ATOM      9  O   UNL     1       0.339  -8.372   0.465  0.00  0.00    -0.268 OA
ATOM     10  N   UNL     1       0.410  -6.132   0.822  0.00  0.00    -0.281 N 
ENDROOT
BRANCH   3  11
ATOM     11  C   UNL     1       1.385  -3.837  -3.290  0.00  0.00    +0.043 A 
ATOM     12  C   UNL     1       0.487  -3.340  -4.235  0.00  0.00    +0.034 A 
ATOM     13  C   UNL     1       0.681  -2.084  -4.775  0.00  0.00    +0.045 A 
ATOM     14  C   UNL     1       1.764  -1.316  -4.382  0.00  0.00    -0.029 A 
ATOM     15  C   UNL     1       2.659  -1.798  -3.446  0.00  0.00    +0.050 A 
ATOM     16  C   UNL     1       2.474  -3.054  -2.891  0.00  0.00    +0.126 A 
ATOM     17  C   UNL     1       1.968   0.053  -4.978  0.00  0.00    +0.045 C 
ATOM     18 CL   UNL     1      -0.436  -1.466  -5.951  0.00  0.00    -0.083 Cl
BRANCH  16  19
ATOM     19  O   UNL     1       3.351  -3.527  -1.967  0.00  0.00    -0.506 OA
ATOM     20  H   UNL     1       4.094  -4.017  -2.345  0.00  0.00    +0.292 HD
ENDBRANCH  16  19
ENDBRANCH   3  11
BRANCH   1  23
ATOM     21  C   UNL     1      -1.498  -1.849   0.006  0.00  0.00    +0.162 A 
ATOM     22  C   UNL     1      -0.389  -2.680  -0.003  0.00  0.00    +0.055 A 
ATOM     23  C   UNL     1      -0.553  -4.052  -0.008  0.00  0.00    -0.019 A 
ATOM     24  C   UNL     1      -1.823  -4.600  -0.005  0.00  0.00    +0.009 A 
ATOM     25  C   UNL     1      -2.934  -3.777   0.004  0.00  0.00    +0.049 A 
ATOM     26  C   UNL     1      -2.776  -2.400   0.016  0.00  0.00    +0.158 A 
BRANCH  26  27
ATOM     27  O   UNL     1      -3.868  -1.589   0.030  0.00  0.00    -0.503 OA
ATOM     28  H   UNL     1      -4.192  -1.350  -0.849  0.00  0.00    +0.292 HD
ENDBRANCH  26  27
BRANCH  21  29
ATOM     29  O   UNL     1      -1.339  -0.499   0.012  0.00  0.00    -0.489 OA
BRANCH  29  31
ATOM     30  C   UNL     1      -0.019   1.526   0.010  0.00  0.00    +0.048 C 
ATOM     31  C   UNL     1       0.002  -0.004   0.002  0.00  0.00    +0.226 C 
ENDBRANCH  29  31
ENDBRANCH  21  29
ENDBRANCH   1  23
BRANCH  10  32
ATOM     32  C   UNL     1       0.123  -6.108   2.259  0.00  0.00    +0.144 C 
BRANCH  32  33
ATOM     33  C   UNL     1      -1.366  -6.011   2.472  0.00  0.00    -0.030 A 
ATOM     34  C   UNL     1      -1.972  -4.772   2.559  0.00  0.00    +0.008 A 
ATOM     35  C   UNL     1      -3.337  -4.682   2.754  0.00  0.00    +0.038 A 
ATOM     36  C   UNL     1      -4.098  -5.834   2.861  0.00  0.00    +0.123 A 
ATOM     37  C   UNL     1      -3.490  -7.075   2.774  0.00  0.00    +0.038 A 
ATOM     38  C   UNL     1      -2.125  -7.162   2.574  0.00  0.00    +0.008 A 
ATOM     39  F   UNL     1      -5.433  -5.747   3.052  0.00  0.00    -0.205 F 
ENDBRANCH  32  33
ENDBRANCH  10  32
TORSDOF 8
