REMARK  Name = ZINC02097800
REMARK  8 active torsions:
REMARK  status: ('A' for Active; 'I' for Inactive)
REMARK    1  A    between atoms: C_1  and  C_2
REMARK    2  A    between atoms: C_2  and  O_3
REMARK    3  A    between atoms: O_3  and  C_4
REMARK    4  A    between atoms: C_5  and  C_19
REMARK    5  A    between atoms: N_6  and  C_18
REMARK    6  A    between atoms: C_10  and  C_12
REMARK    7  A    between atoms: C_19  and  O_20
REMARK    8  A    between atoms: O_20  and  C_21
REMARK                            x       y       z     vdW  Elec       q    Type
REMARK                         _______ _______ _______ _____ _____    ______ ____
ROOT
ATOM      1  C   UNL     1       1.363  -0.672  -0.123  0.00  0.00    +0.143 C 
ATOM      2  C   UNL     1       2.437   0.102  -0.140  0.00  0.00    +0.092 C 
ATOM      3  N   UNL     1       2.329   1.487  -0.018  0.00  0.00    -0.256 N 
ATOM      4  C   UNL     1       1.158   2.123   0.123  0.00  0.00    +0.307 C 
ATOM      5  O   UNL     1       1.151   3.334   0.224  0.00  0.00    -0.252 OA
ATOM      6  N   UNL     1      -0.013   1.456   0.156  0.00  0.00    -0.285 N 
ATOM      7  C   UNL     1       0.010  -0.011   0.033  0.00  0.00    +0.172 C 
ATOM      8  C   UNL     1       3.556   2.286  -0.044  0.00  0.00    +0.140 C 
ATOM      9  H   UNL     1      -0.853   1.932   0.255  0.00  0.00    +0.151 HD
ENDROOT
BRANCH   7  10
ATOM     10  C   UNL     1      -0.648  -0.589   1.260  0.00  0.00    -0.020 A 
ATOM     11  C   UNL     1      -0.408  -0.030   2.501  0.00  0.00    +0.006 A 
ATOM     12  C   UNL     1      -1.015  -0.557   3.626  0.00  0.00    +0.000 A 
ATOM     13  C   UNL     1      -1.855  -1.649   3.510  0.00  0.00    +0.000 A 
ATOM     14  C   UNL     1      -2.091  -2.211   2.269  0.00  0.00    +0.000 A 
ATOM     15  C   UNL     1      -1.487  -1.681   1.144  0.00  0.00    +0.006 A 
ENDBRANCH   7  10
BRANCH   1  16
ATOM     16  O   UNL     1       1.472  -2.022  -0.244  0.00  0.00    -0.493 OA
BRANCH  16  18
ATOM     17  C   UNL     1       1.025  -4.138  -1.322  0.00  0.00    +0.048 C 
ATOM     18  C   UNL     1       0.919  -2.615  -1.421  0.00  0.00    +0.225 C 
ENDBRANCH  16  18
ENDBRANCH   1  16
BRANCH   2  19
ATOM     19  C   UNL     1       3.799  -0.523  -0.295  0.00  0.00    +0.283 C 
BRANCH  19  20
ATOM     20  O   UNL     1       4.371  -0.119  -1.540  0.00  0.00    -0.486 OA
BRANCH  20  21
ATOM     21  C   UNL     1       5.606  -0.599  -1.836  0.00  0.00    +0.125 A 
ATOM     22  C   UNL     1       6.255  -1.440  -0.934  0.00  0.00    +0.046 A 
ATOM     23  C   UNL     1       7.494  -1.935  -1.219  0.00  0.00    +0.015 A 
ATOM     24  C   UNL     1       8.122  -1.586  -2.421  0.00  0.00    +0.021 A 
ATOM     25  C   UNL     1       7.475  -0.732  -3.331  0.00  0.00    +0.143 A 
ATOM     26  C   UNL     1       6.213  -0.243  -3.029  0.00  0.00    +0.092 A 
ATOM     27  O   UNL     1       8.090  -0.399  -4.486  0.00  0.00    -0.422 OA
ATOM     28  C   UNL     1       9.308  -0.868  -4.787  0.00  0.00    +0.341 A 
ATOM     29  O   UNL     1       9.823  -0.538  -5.840  0.00  0.00    -0.245 OA
ATOM     30  C   UNL     1      10.017  -1.738  -3.921  0.00  0.00    +0.041 A 
ATOM     31  C   UNL     1       9.458  -2.103  -2.747  0.00  0.00    -0.027 A 
ATOM     32  C   UNL     1      10.140  -3.005  -1.756  0.00  0.00    +0.036 C 
ATOM     33  C   UNL     1      11.283  -3.769  -2.422  0.00  0.00    +0.005 C 
ATOM     34  C   UNL     1      12.164  -2.760  -3.168  0.00  0.00    +0.005 C 
ATOM     35  C   UNL     1      11.374  -2.219  -4.359  0.00  0.00    +0.042 C 
ENDBRANCH  20  21
ENDBRANCH  19  20
ENDBRANCH   2  19
TORSDOF 6
