REMARK  Name = ZINC12706545
REMARK  9 active torsions:
REMARK  status: ('A' for Active; 'I' for Inactive)
REMARK    1  A    between atoms: C_1  and  C_2
REMARK    2  A    between atoms: C_2  and  N_64
REMARK    3  A    between atoms: C_6  and  C_8
REMARK    4  A    between atoms: C_8  and  N_9
REMARK    5  A    between atoms: N_9  and  C_10
REMARK    6  A    between atoms: C_10  and  C_11
REMARK    7  A    between atoms: C_14  and  C_24
REMARK    8  A    between atoms: C_17  and  C_23
REMARK    9  A    between atoms: N_27  and  C_28
REMARK                            x       y       z     vdW  Elec       q    Type
REMARK                         _______ _______ _______ _____ _____    ______ ____
ROOT
ATOM      1  N   UNL     1      -4.843   7.176   2.075  0.00  0.00    -0.282 N 
ATOM      2  C   UNL     1      -4.544   8.309   2.741  0.00  0.00    +0.307 C 
ATOM      3  O   UNL     1      -4.348   9.341   2.129  0.00  0.00    -0.252 OA
ATOM      4  N   UNL     1      -4.461   8.297   4.087  0.00  0.00    -0.269 N 
ATOM      5  H   UNL     1      -4.557   7.463   4.571  0.00  0.00    +0.156 HD
ENDROOT
BRANCH   4   6
ATOM      6  C   UNL     1      -4.236   9.491   4.785  0.00  0.00    +0.035 A 
ATOM      7  C   UNL     1      -3.410  10.467   4.244  0.00  0.00    +0.026 A 
ATOM      8  C   UNL     1      -3.195  11.646   4.931  0.00  0.00    +0.040 A 
ATOM      9  C   UNL     1      -3.792  11.849   6.164  0.00  0.00    +0.124 A 
ATOM     10  C   UNL     1      -4.612  10.874   6.707  0.00  0.00    +0.040 A 
ATOM     11  C   UNL     1      -4.835   9.697   6.020  0.00  0.00    +0.026 A 
ATOM     12  F   UNL     1      -3.576  13.000   6.837  0.00  0.00    -0.205 F 
ENDBRANCH   4   6
BRANCH   1  13
ATOM     13  C   UNL     1      -5.079   5.933   2.813  0.00  0.00    +0.094 C 
BRANCH  13  17
ATOM     14  C   UNL     1      -8.160   6.348   4.706  0.00  0.00    -0.078 C 
ATOM     15  C   UNL     1      -7.560   4.995   5.163  0.00  0.00    -0.020 C 
ATOM     16  C   UNL     1      -6.833   4.493   3.894  0.00  0.00    -0.016 C 
ATOM     17  C   UNL     1      -6.580   5.756   3.050  0.00  0.00    -0.051 C 
ATOM     18  N   UNL     1      -7.106   6.879   3.825  0.00  0.00    +0.382 N 
ATOM     19  H   UNL     1      -6.355   7.291   4.392  0.00  0.00    -0.081 HD
BRANCH  18  21
ATOM     20  C   UNL     1      -8.291   9.050   3.741  0.00  0.00    -0.017 C 
ATOM     21  C   UNL     1      -7.663   7.927   2.913  0.00  0.00    -0.082 C 
ENDBRANCH  18  21
ENDBRANCH  13  17
ENDBRANCH   1  13
BRANCH   1  22
ATOM     22  C   UNL     1      -4.933   7.189   0.613  0.00  0.00    +0.149 C 
BRANCH  22  23
ATOM     23  C   UNL     1      -3.621   6.737   0.025  0.00  0.00    +0.035 A 
ATOM     24  C   UNL     1      -3.445   5.437  -0.316  0.00  0.00    +0.020 A 
ATOM     25  C   UNL     1      -2.159   5.031  -0.884  0.00  0.00    +0.002 A 
ATOM     26  C   UNL     1      -1.919   3.705  -1.260  0.00  0.00    -0.041 A 
ATOM     27  C   UNL     1      -0.706   3.357  -1.782  0.00  0.00    +0.004 A 
ATOM     28  C   UNL     1       0.288   4.310  -1.954  0.00  0.00    +0.005 A 
ATOM     29  C   UNL     1       0.073   5.623  -1.596  0.00  0.00    -0.026 A 
ATOM     30  C   UNL     1      -1.153   6.000  -1.057  0.00  0.00    +0.052 A 
ATOM     31  N   UNL     1      -1.395   7.307  -0.690  0.00  0.00    -0.322 N 
ATOM     32  H   UNL     1      -0.701   7.973  -0.809  0.00  0.00    +0.169 HD
ATOM     33  C   UNL     1      -2.580   7.670  -0.169  0.00  0.00    +0.254 A 
ATOM     34  O   UNL     1      -2.759   8.834   0.145  0.00  0.00    -0.268 OA
ATOM     35  C   UNL     1       1.161   6.648  -1.789  0.00  0.00    +0.046 C 
ATOM     36  C   UNL     1      -2.994   2.663  -1.083  0.00  0.00    +0.044 C 
ENDBRANCH  22  23
ENDBRANCH   1  22
TORSDOF 6
