REMARK  Name = ZINC09193228
REMARK  9 active torsions:
REMARK  status: ('A' for Active; 'I' for Inactive)
REMARK    1  A    between atoms: C_1  and  C_2
REMARK    2  A    between atoms: C_4  and  C_35
REMARK    3  A    between atoms: C_6  and  N_8
REMARK    4  A    between atoms: C_9  and  C_34
REMARK    5  A    between atoms: C_11  and  C_14
REMARK    6  A    between atoms: C_12  and  C_13
REMARK    7  A    between atoms: C_24  and  S_26
REMARK    8  A    between atoms: S_26  and  C_27
REMARK    9  A    between atoms: C_27  and  C_28
REMARK                            x       y       z     vdW  Elec       q    Type
REMARK                         _______ _______ _______ _____ _____    ______ ____
ROOT
ATOM      1  C   UNL     1       1.595  -3.914   5.512  0.00  0.00    +0.026 C 
ATOM      2  C   UNL     1       1.338  -5.071   6.220  0.00  0.00    +0.081 C 
ATOM      3  C   UNL     1       0.378  -6.096   5.725  0.00  0.00    +0.153 C 
ATOM      4  N   UNL     1       0.191  -6.352   4.456  0.00  0.00    -0.283 NA
ATOM      5  N   UNL     1      -0.311  -6.763   6.759  0.00  0.00    -0.151 N 
ATOM      6  C   UNL     1       0.279  -6.789   8.003  0.00  0.00    +0.181 C 
ATOM      7  N   UNL     1       1.375  -6.180   8.379  0.00  0.00    -0.152 NA
ATOM      8  C   UNL     1       2.008  -5.363   7.510  0.00  0.00    +0.273 C 
ATOM      9  O   UNL     1       3.095  -4.876   7.778  0.00  0.00    -0.268 OA
ATOM     10  S   UNL     1      -0.832  -7.820   8.923  0.00  0.00    -0.027 S 
ATOM     11  C   UNL     1      -2.048  -8.064   7.637  0.00  0.00    +0.156 C 
ATOM     12  N   UNL     1      -1.525  -7.405   6.632  0.00  0.00    -0.158 NA
ATOM     13  H   UNL     1      -0.467  -7.012   4.186  0.00  0.00    +0.188 HD
ENDROOT
BRANCH   1  17
ATOM     14  N   UNL     1       0.050  -2.633   2.536  0.00  0.00    -0.317 N 
ATOM     15  C   UNL     1      -0.943  -3.476   2.955  0.00  0.00    +0.022 A 
ATOM     16  C   UNL     1      -0.559  -4.079   4.092  0.00  0.00    +0.031 A 
ATOM     17  C   UNL     1       0.783  -3.566   4.403  0.00  0.00    -0.003 A 
ATOM     18  C   UNL     1       1.094  -2.677   3.387  0.00  0.00    +0.028 A 
ATOM     19  C   UNL     1       2.375  -1.894   3.258  0.00  0.00    +0.064 C 
ATOM     20  C   UNL     1      -2.258  -3.693   2.252  0.00  0.00    +0.064 C 
BRANCH  14  26
ATOM     21  C   UNL     1      -0.073   1.825   0.463  0.00  0.00    +0.044 C 
ATOM     22  C   UNL     1      -0.070   0.322   0.348  0.00  0.00    -0.048 A 
ATOM     23  C   UNL     1      -0.125  -0.276  -0.897  0.00  0.00    +0.006 A 
ATOM     24  C   UNL     1      -0.122  -1.654  -1.006  0.00  0.00    -0.048 A 
ATOM     25  C   UNL     1      -0.064  -2.438   0.129  0.00  0.00    +0.029 A 
ATOM     26  C   UNL     1      -0.009  -1.841   1.381  0.00  0.00    +0.047 A 
ATOM     27  C   UNL     1      -0.006  -0.456   1.487  0.00  0.00    +0.029 A 
ATOM     28  C   UNL     1      -0.182  -2.302  -2.366  0.00  0.00    +0.044 C 
ENDBRANCH  14  26
ENDBRANCH   1  17
BRANCH  11  29
ATOM     29  S   UNL     1      -3.564  -8.961   7.702  0.00  0.00    -0.092 S 
BRANCH  29  30
ATOM     30  C   UNL     1      -4.259  -8.770   6.037  0.00  0.00    +0.111 C 
BRANCH  30  31
ATOM     31  C   UNL     1      -5.575  -9.499   5.956  0.00  0.00    -0.037 A 
ATOM     32  C   UNL     1      -5.606 -10.827   5.571  0.00  0.00    +0.004 A 
ATOM     33  C   UNL     1      -6.813 -11.496   5.496  0.00  0.00    +0.000 A 
ATOM     34  C   UNL     1      -7.989 -10.839   5.806  0.00  0.00    +0.000 A 
ATOM     35  C   UNL     1      -7.957  -9.511   6.191  0.00  0.00    +0.000 A 
ATOM     36  C   UNL     1      -6.750  -8.843   6.271  0.00  0.00    +0.004 A 
ENDBRANCH  30  31
ENDBRANCH  29  30
ENDBRANCH  11  29
TORSDOF 5
