REMARK  Name = ZINC20113783
REMARK  6 active torsions:
REMARK  status: ('A' for Active; 'I' for Inactive)
REMARK    1  A    between atoms: C_1  and  C_2
REMARK    2  A    between atoms: C_19  and  C_21
REMARK    3  A    between atoms: C_21  and  N_22
REMARK    4  A    between atoms: N_25  and  C_28
REMARK    5  A    between atoms: C_28  and  C_29
REMARK    6  A    between atoms: C_28  and  C_35
REMARK                            x       y       z     vdW  Elec       q    Type
REMARK                         _______ _______ _______ _____ _____    ______ ____
ROOT
ATOM      1  N   UNL     1      -5.180   4.185  -4.714  0.00  0.00    +0.382 N 
ATOM      2  C   UNL     1      -5.906   3.075  -5.347  0.00  0.00    -0.063 C 
ATOM      3  C   UNL     1      -7.117   3.626  -6.104  0.00  0.00    +0.067 C 
ATOM      4  N   UNL     1      -6.663   4.596  -7.110  0.00  0.00    -0.295 NA
ATOM      5  C   UNL     1      -5.937   5.707  -6.477  0.00  0.00    +0.067 C 
ATOM      6  C   UNL     1      -4.726   5.155  -5.721  0.00  0.00    -0.063 C 
ATOM      7  H   UNL     1      -5.874   4.701  -4.034  0.00  0.00    -0.082 HD
ENDROOT
BRANCH   1   8
ATOM      8  C   UNL     1      -4.052   3.689  -3.915  0.00  0.00    -0.064 C 
BRANCH   8  24
ATOM      9  C   UNL     1      -2.129   4.737   0.275  0.00  0.00    +0.012 C 
ATOM     10  C   UNL     1      -1.677   3.276   0.246  0.00  0.00    -0.022 C 
ATOM     11  C   UNL     1      -0.583   3.017   1.292  0.00  0.00    +0.007 C 
ATOM     12  C   UNL     1      -0.278   1.519   1.347  0.00  0.00    +0.005 C 
ATOM     13  C   UNL     1       0.288   1.054   0.002  0.00  0.00    +0.030 C 
ATOM     14  C   UNL     1      -0.663   1.472  -1.100  0.00  0.00    -0.073 C 
ATOM     15  C   UNL     1      -1.082   0.612  -1.994  0.00  0.00    +0.008 C 
ATOM     16  C   UNL     1      -1.112   2.914  -1.134  0.00  0.00    +0.021 C 
ATOM     17  C   UNL     1      -2.184   3.121  -2.191  0.00  0.00    +0.016 C 
ATOM     18  C   UNL     1      -3.407   2.238  -1.935  0.00  0.00    +0.042 C 
ATOM     19  C   UNL     1      -3.926   2.441  -0.497  0.00  0.00    +0.181 C 
ATOM     20  C   UNL     1      -2.847   2.346   0.549  0.00  0.00    +0.052 C 
ATOM     21  O   UNL     1      -4.576   3.742  -0.551  0.00  0.00    -0.461 OA
ATOM     22  C   UNL     1      -5.253   3.798  -1.721  0.00  0.00    +0.309 C 
ATOM     23  O   UNL     1      -6.234   4.471  -1.930  0.00  0.00    -0.251 OA
ATOM     24  C   UNL     1      -4.584   2.882  -2.728  0.00  0.00    +0.088 C 
ENDBRANCH   8  24
ENDBRANCH   1   8
BRANCH   4  25
ATOM     25  C   UNL     1      -7.791   5.093  -7.909  0.00  0.00    +0.117 C 
BRANCH  25  26
ATOM     26  C   UNL     1      -7.279   6.032  -8.971  0.00  0.00    -0.026 A 
ATOM     27  C   UNL     1      -6.152   5.702  -9.701  0.00  0.00    +0.005 A 
ATOM     28  C   UNL     1      -5.686   6.561 -10.678  0.00  0.00    +0.000 A 
ATOM     29  C   UNL     1      -6.340   7.755 -10.919  0.00  0.00    +0.000 A 
ATOM     30  C   UNL     1      -7.464   8.087 -10.186  0.00  0.00    +0.000 A 
ATOM     31  C   UNL     1      -7.933   7.226  -9.212  0.00  0.00    +0.005 A 
ENDBRANCH  25  26
BRANCH  25  32
ATOM     32  C   UNL     1      -8.494   3.931  -8.562  0.00  0.00    -0.026 A 
ATOM     33  C   UNL     1      -7.758   2.940  -9.185  0.00  0.00    +0.005 A 
ATOM     34  C   UNL     1      -8.403   1.871  -9.780  0.00  0.00    +0.000 A 
ATOM     35  C   UNL     1      -9.783   1.799  -9.761  0.00  0.00    +0.000 A 
ATOM     36  C   UNL     1     -10.519   2.793  -9.143  0.00  0.00    +0.000 A 
ATOM     37  C   UNL     1      -9.874   3.859  -8.544  0.00  0.00    +0.005 A 
ENDBRANCH  25  32
ENDBRANCH   4  25
TORSDOF 5
