REMARK  Name = ZINC39782288
REMARK  15 active torsions:
REMARK  status: ('A' for Active; 'I' for Inactive)
REMARK    1  A    between atoms: C_1  and  C_2
REMARK    2  A    between atoms: C_2  and  O_3
REMARK    3  A    between atoms: O_3  and  C_4
REMARK    4  A    between atoms: C_7  and  C_13
REMARK    5  A    between atoms: C_9  and  O_10
REMARK    6  A    between atoms: O_10  and  C_11
REMARK    7  A    between atoms: C_11  and  C_12
REMARK    8  A    between atoms: C_13  and  C_15
REMARK    9  A    between atoms: C_20  and  C_21
REMARK   10  A    between atoms: C_21  and  O_23
REMARK   11  A    between atoms: O_23  and  C_24
REMARK   12  A    between atoms: C_24  and  C_26
REMARK   13  A    between atoms: C_24  and  C_27
REMARK   14  A    between atoms: C_27  and  C_29
REMARK   15  A    between atoms: C_37  and  C_39
REMARK                            x       y       z     vdW  Elec       q    Type
REMARK                         _______ _______ _______ _____ _____    ______ ____
ROOT
ATOM      1  C   UNL     1       0.415  -7.035   0.881  0.00  0.00    +0.036 A 
ATOM      2  C   UNL     1      -0.190  -6.600  -0.295  0.00  0.00    +0.012 A 
ATOM      3  C   UNL     1      -0.469  -7.502  -1.304  0.00  0.00    +0.001 A 
ATOM      4  C   UNL     1      -0.151  -8.841  -1.154  0.00  0.00    +0.001 A 
ATOM      5  C   UNL     1       0.450  -9.292   0.006  0.00  0.00    +0.016 A 
ATOM      6  C   UNL     1       0.745  -8.396   1.031  0.00  0.00    +0.070 A 
ENDROOT
BRANCH   1   7
ATOM      7  C   UNL     1       0.716  -6.074   1.964  0.00  0.00    +0.194 C 
ATOM      8  O   UNL     1       1.671  -5.328   1.866  0.00  0.00    -0.287 OA
BRANCH   7  12
ATOM      9  C   UNL     1      -1.760  -5.924   5.413  0.00  0.00    +0.162 A 
ATOM     10  C   UNL     1      -1.994  -6.878   4.431  0.00  0.00    +0.050 A 
ATOM     11  C   UNL     1      -1.194  -6.930   3.311  0.00  0.00    +0.015 A 
ATOM     12  C   UNL     1      -0.142  -6.020   3.161  0.00  0.00    +0.026 A 
ATOM     13  C   UNL     1       0.094  -5.060   4.151  0.00  0.00    +0.061 A 
ATOM     14  C   UNL     1      -0.716  -5.011   5.268  0.00  0.00    +0.163 A 
BRANCH   9  15
ATOM     15  O   UNL     1      -2.551  -5.878   6.515  0.00  0.00    -0.489 OA
BRANCH  15  17
ATOM     16  C   UNL     1      -4.381  -6.636   7.901  0.00  0.00    +0.048 C 
ATOM     17  C   UNL     1      -3.602  -6.843   6.600  0.00  0.00    +0.226 C 
ENDBRANCH  15  17
ENDBRANCH   9  15
BRANCH  14  18
ATOM     18  O   UNL     1      -0.493  -4.074   6.228  0.00  0.00    -0.489 OA
BRANCH  18  19
ATOM     19  C   UNL     1       0.593  -3.171   6.014  0.00  0.00    +0.226 C 
ATOM     20  C   UNL     1       0.688  -2.198   7.191  0.00  0.00    +0.048 C 
ENDBRANCH  18  19
ENDBRANCH  14  18
ENDBRANCH   7  12
ENDBRANCH   1   7
BRANCH   6  21
ATOM     21  C   UNL     1       1.394  -8.873   2.270  0.00  0.00    +0.341 C 
ATOM     22  O   UNL     1       1.741  -8.076   3.119  0.00  0.00    -0.245 OA
BRANCH  21  23
ATOM     23  O   UNL     1       1.601 -10.190   2.459  0.00  0.00    -0.450 OA
BRANCH  23  24
ATOM     24  C   UNL     1       2.233 -10.579   3.680  0.00  0.00    +0.244 C 
ATOM     25  C   UNL     1       1.168 -10.830   4.749  0.00  0.00    +0.061 C 
BRANCH  24  26
ATOM     26  C   UNL     1       3.026 -11.841   3.455  0.00  0.00    +0.202 C 
ATOM     27  O   UNL     1       2.840 -12.505   2.456  0.00  0.00    -0.288 OA
BRANCH  26  28
ATOM     28  C   UNL     1       3.986 -12.250   4.405  0.00  0.00    +0.030 C 
ATOM     29  C   UNL     1       4.313 -11.615   5.590  0.00  0.00    +0.007 A 
ATOM     30  C   UNL     1       3.843 -10.434   6.211  0.00  0.00    +0.010 A 
ATOM     31  C   UNL     1       4.354 -10.039   7.399  0.00  0.00    +0.001 A 
ATOM     32  C   UNL     1       5.356 -10.761   8.066  0.00  0.00    +0.002 A 
ATOM     33  C   UNL     1       5.874 -11.901   7.559  0.00  0.00    +0.026 A 
ATOM     34  C   UNL     1       5.372 -12.402   6.268  0.00  0.00    +0.043 A 
ATOM     35  N   UNL     1       5.685 -13.451   5.562  0.00  0.00    -0.377 N 
ATOM     36  C   UNL     1       4.867 -13.478   4.346  0.00  0.00    +0.111 C 
ATOM     37  C   UNL     1       5.766 -13.422   3.109  0.00  0.00    +0.035 C 
ATOM     38  H   UNL     1       6.352 -14.112   5.805  0.00  0.00    +0.160 HD
ENDBRANCH  26  28
ENDBRANCH  24  26
ENDBRANCH  23  24
ENDBRANCH  21  23
ENDBRANCH   6  21
TORSDOF 11
