REMARK  Name = ZINC22106553
REMARK  10 active torsions:
REMARK  status: ('A' for Active; 'I' for Inactive)
REMARK    1  A    between atoms: C_1  and  C_2
REMARK    2  A    between atoms: C_5  and  C_8
REMARK    3  A    between atoms: C_8  and  N_9
REMARK    4  A    between atoms: C_11  and  C_15
REMARK    5  A    between atoms: C_12  and  C_14
REMARK    6  A    between atoms: C_15  and  O_17
REMARK    7  A    between atoms: O_17  and  C_18
REMARK    8  A    between atoms: C_18  and  C_19
REMARK    9  A    between atoms: C_21  and  O_22
REMARK   10  A    between atoms: C_31  and  C_33
REMARK                            x       y       z     vdW  Elec       q    Type
REMARK                         _______ _______ _______ _____ _____    ______ ____
ROOT
ATOM      1  O   UNL     1       0.255  -8.445   0.505  0.00  0.00    -0.456 OA
ENDROOT
BRANCH   1   2
ATOM      2  C   UNL     1       1.346  -9.231   0.591  0.00  0.00    +0.344 C 
ATOM      3  O   UNL     1       2.455  -8.732   0.602  0.00  0.00    -0.245 OA
BRANCH   2   6
ATOM      4  N   UNL     1       1.007 -12.809   0.110  0.00  0.00    -0.248 N 
ATOM      5  C   UNL     1       1.147 -11.573  -0.397  0.00  0.00    +0.142 A 
ATOM      6  C   UNL     1       1.196 -10.693   0.670  0.00  0.00    +0.118 A 
ATOM      7  C   UNL     1       1.069 -11.461   1.850  0.00  0.00    +0.075 A 
ATOM      8  N   UNL     1       0.958 -12.714   1.505  0.00  0.00    -0.174 NA
ATOM      9  C   UNL     1       1.064 -10.927   3.259  0.00  0.00    +0.068 C 
ATOM     10 CL   UNL     1       1.251 -11.157  -2.079  0.00  0.00    -0.061 Cl
BRANCH   4  11
ATOM     11  C   UNL     1       0.915 -14.047  -0.667  0.00  0.00    +0.180 C 
BRANCH  11  16
ATOM     12  C   UNL     1      -4.623 -15.131  -1.915  0.00  0.00    +0.044 C 
ATOM     13  C   UNL     1      -3.178 -14.849  -1.590  0.00  0.00    -0.050 A 
ATOM     14  C   UNL     1      -2.411 -14.091  -2.454  0.00  0.00    +0.004 A 
ATOM     15  C   UNL     1      -1.086 -13.831  -2.155  0.00  0.00    +0.006 A 
ATOM     16  C   UNL     1      -0.529 -14.330  -0.993  0.00  0.00    -0.026 A 
ATOM     17  C   UNL     1      -1.296 -15.093  -0.131  0.00  0.00    +0.006 A 
ATOM     18  C   UNL     1      -2.621 -15.349  -0.428  0.00  0.00    +0.004 A 
ENDBRANCH  11  16
ENDBRANCH   4  11
ENDBRANCH   2   6
ENDBRANCH   1   2
BRANCH   1  19
ATOM     19  C   UNL     1       0.478  -7.013   0.430  0.00  0.00    +0.269 C 
BRANCH  19  20
ATOM     20  C   UNL     1      -0.848  -6.301   0.341  0.00  0.00    +0.007 A 
ATOM     21  C   UNL     1      -2.014  -6.998   0.339  0.00  0.00    +0.095 A 
ATOM     22  C   UNL     1      -3.242  -6.309   0.254  0.00  0.00    +0.285 A 
ATOM     23  O   UNL     1      -3.295  -4.970   0.176  0.00  0.00    -0.425 OA
ATOM     24  C   UNL     1      -2.173  -4.219   0.173  0.00  0.00    +0.141 A 
ATOM     25  C   UNL     1      -0.913  -4.841   0.254  0.00  0.00    +0.024 A 
ATOM     26  C   UNL     1       0.252  -4.067   0.252  0.00  0.00    +0.014 A 
ATOM     27  C   UNL     1       0.164  -2.708   0.166  0.00  0.00    +0.024 A 
ATOM     28  C   UNL     1      -1.081  -2.085   0.091  0.00  0.00    +0.037 A 
ATOM     29  C   UNL     1      -2.247  -2.837   0.092  0.00  0.00    +0.070 A 
ATOM     30  N   UNL     1      -1.156  -0.694   0.009  0.00  0.00    -0.286 N 
ATOM     31  C   UNL     1      -2.168  -0.037   0.609  0.00  0.00    +0.214 C 
ATOM     32  O   UNL     1      -3.058  -0.658   1.150  0.00  0.00    -0.276 OA
ATOM     33  C   UNL     1      -2.193   1.470   0.609  0.00  0.00    +0.109 C 
ATOM     34  H   UNL     1      -0.388  -0.134  -0.545  0.00  0.00    +0.155 HD
BRANCH  22  35
ATOM     35  O   UNL     1      -4.280  -6.946   0.253  0.00  0.00    -0.480 OA
ATOM     36  H   UNL     1      -5.246  -6.423   0.188  0.00  0.00    +0.295 HD
ENDBRANCH  22  35
ENDBRANCH  19  20
ENDBRANCH   1  19
TORSDOF 7
