REMARK  Name = ZINC00942726
REMARK  9 active torsions:
REMARK  status: ('A' for Active; 'I' for Inactive)
REMARK    1  A    between atoms: C_1  and  C_2
REMARK    2  A    between atoms: C_6  and  O_8
REMARK    3  A    between atoms: O_8  and  C_9
REMARK    4  A    between atoms: C_15  and  O_34
REMARK    5  A    between atoms: C_16  and  C_24
REMARK    6  A    between atoms: C_19  and  C_20
REMARK    7  A    between atoms: C_24  and  N_57
REMARK    8  A    between atoms: C_26  and  C_33
REMARK    9  A    between atoms: C_29  and  C_32
REMARK                            x       y       z     vdW  Elec       q    Type
REMARK                         _______ _______ _______ _____ _____    ______ ____
ROOT
ATOM      1  C   UNL     1      -3.567   3.067   0.050  0.00  0.00    +0.222 A 
ATOM      2  C   UNL     1      -4.184   2.690  -1.177  0.00  0.00    +0.235 A 
ATOM      3  O   UNL     1      -3.709   3.012  -2.253  0.00  0.00    -0.283 OA
ATOM      4  C   UNL     1      -5.418   1.890  -1.092  0.00  0.00    +0.068 A 
ATOM      5  C   UNL     1      -6.093   1.470  -2.239  0.00  0.00    +0.019 A 
ATOM      6  C   UNL     1      -7.238   0.735  -2.121  0.00  0.00    +0.046 A 
ATOM      7  C   UNL     1      -7.735   0.403  -0.862  0.00  0.00    +0.122 A 
ATOM      8  C   UNL     1      -7.078   0.813   0.286  0.00  0.00    +0.020 A 
ATOM      9  C   UNL     1      -5.913   1.561   0.182  0.00  0.00    +0.144 A 
ATOM     10  O   UNL     1      -5.253   1.973   1.284  0.00  0.00    -0.447 OA
ATOM     11  C   UNL     1      -4.128   2.695   1.218  0.00  0.00    +0.254 A 
ENDROOT
BRANCH  11  12
ATOM     12  C   UNL     1      -3.460   3.111   2.504  0.00  0.00    +0.454 C 
ATOM     13  F   UNL     1      -3.966   4.349   2.913  0.00  0.00    -0.163 F 
ATOM     14  F   UNL     1      -3.715   2.154   3.492  0.00  0.00    -0.163 F 
ATOM     15  F   UNL     1      -2.080   3.215   2.300  0.00  0.00    -0.163 F 
ENDBRANCH  11  12
BRANCH   7  16
ATOM     16  O   UNL     1      -8.875  -0.327  -0.760  0.00  0.00    -0.506 OA
ATOM     17  H   UNL     1      -9.681   0.205  -0.723  0.00  0.00    +0.292 HD
ENDBRANCH   7  16
BRANCH   1  18
ATOM     18  O   UNL     1      -2.421   3.802   0.043  0.00  0.00    -0.448 OA
BRANCH  18  24
ATOM     19  C   UNL     1       2.458   3.933  -0.001  0.00  0.00    +0.044 C 
ATOM     20  C   UNL     1       1.160   3.166   0.007  0.00  0.00    -0.047 A 
ATOM     21  C   UNL     1       1.176   1.783   0.000  0.00  0.00    +0.003 A 
ATOM     22  C   UNL     1      -0.013   1.076   0.008  0.00  0.00    +0.004 A 
ATOM     23  C   UNL     1      -1.219   1.750   0.017  0.00  0.00    +0.046 A 
ATOM     24  C   UNL     1      -1.237   3.137   0.029  0.00  0.00    +0.129 A 
ATOM     25  C   UNL     1      -0.043   3.844   0.022  0.00  0.00    +0.049 A 
ENDBRANCH  18  24
ENDBRANCH   1  18
BRANCH   8  26
ATOM     26  C   UNL     1      -7.625   0.448   1.642  0.00  0.00    -0.035 C 
BRANCH  26  34
ATOM     27  C   UNL     1      -7.837   2.758   2.340  0.00  0.00    -0.047 C 
ATOM     28  C   UNL     1      -8.844   3.835   2.751  0.00  0.00    +0.099 C 
ATOM     29  O   UNL     1      -9.568   3.390   3.901  0.00  0.00    -0.378 OA
ATOM     30  C   UNL     1     -10.275   2.163   3.697  0.00  0.00    +0.099 C 
ATOM     31  C   UNL     1      -9.282   1.069   3.296  0.00  0.00    -0.047 C 
ATOM     32  C   UNL     1     -11.309   2.349   2.585  0.00  0.00    +0.036 C 
ATOM     33  C   UNL     1      -8.100   5.130   3.086  0.00  0.00    +0.036 C 
ATOM     34  N   UNL     1      -8.569   1.501   2.076  0.00  0.00    +0.386 N 
ATOM     35  H   UNL     1      -9.254   1.664   1.328  0.00  0.00    -0.081 HD
ENDBRANCH  26  34
ENDBRANCH   8  26
TORSDOF 6
