REMARK  Name = ZINC12360553
REMARK  3 active torsions:
REMARK  status: ('A' for Active; 'I' for Inactive)
REMARK    1  A    between atoms: N_4  and  C_6
REMARK    2  A    between atoms: C_7  and  C_30
REMARK    3  A    between atoms: C_8  and  C_25
REMARK                            x       y       z     vdW  Elec       q    Type
REMARK                         _______ _______ _______ _____ _____    ______ ____
ROOT
ATOM      1  C   UNL     1       3.696  -1.898  -0.043  0.00  0.00    +0.130 C 
ATOM      2  C   UNL     1       4.858  -2.524   0.255  0.00  0.00    +0.081 C 
ATOM      3  C   UNL     1       6.065  -1.751   0.698  0.00  0.00    +0.104 C 
ATOM      4  C   UNL     1       5.938  -0.291   0.345  0.00  0.00    +0.026 C 
ATOM      5  C   UNL     1       4.737   0.246   0.036  0.00  0.00    +0.026 C 
ATOM      6  N   UNL     1       3.605  -0.527   0.049  0.00  0.00    -0.242 N 
ATOM      7  C   UNL     1       2.353   0.079   0.149  0.00  0.00    +0.131 A 
ATOM      8  C   UNL     1       1.744   0.201   1.393  0.00  0.00    +0.045 A 
ATOM      9  C   UNL     1       0.502   0.805   1.479  0.00  0.00    +0.020 A 
ATOM     10  C   UNL     1      -0.091   1.268   0.312  0.00  0.00    +0.036 A 
ATOM     11  C   UNL     1       0.571   1.114  -0.891  0.00  0.00    +0.128 A 
ATOM     12  N   UNL     1       1.755   0.534  -0.941  0.00  0.00    -0.239 NA
ATOM     13 BR   UNL     1      -1.791   2.095   0.367  0.00  0.00    -0.049 Br
ATOM     14  C   UNL     1       4.607   1.706  -0.319  0.00  0.00    +0.052 C 
ATOM     15  C   UNL     1       5.680   2.514   0.414  0.00  0.00    +0.014 C 
ATOM     16  C   UNL     1       7.055   1.963   0.021  0.00  0.00    +0.080 C 
ATOM     17  C   UNL     1       7.104   0.494   0.344  0.00  0.00    +0.162 C 
ATOM     18  O   UNL     1       8.171  -0.023   0.609  0.00  0.00    -0.292 OA
ENDROOT
BRANCH   1  22
ATOM     19  C   UNL     1       1.029  -4.184  -0.488  0.00  0.00    +0.019 A 
ATOM     20  C   UNL     1       0.846  -3.321  -1.589  0.00  0.00    +0.019 A 
ATOM     21  C   UNL     1       1.815  -2.386  -1.536  0.00  0.00    +0.092 A 
ATOM     22  N   UNL     1       2.594  -2.639  -0.440  0.00  0.00    -0.310 N 
ATOM     23  C   UNL     1       2.107  -3.749   0.194  0.00  0.00    +0.092 A 
ENDBRANCH   1  22
BRANCH   3  24
ATOM     24  C   UNL     1       6.219  -1.887   2.191  0.00  0.00    +0.002 A 
ATOM     25  C   UNL     1       7.253  -2.401   2.899  0.00  0.00    +0.012 A 
ATOM     26  C   UNL     1       7.176  -2.424   4.279  0.00  0.00    +0.008 A 
ATOM     27  C   UNL     1       6.067  -1.931   4.883  0.00  0.00    +0.045 A 
ATOM     28  S   UNL     1       5.088  -1.406   3.486  0.00  0.00    -0.101 S 
ENDBRANCH   3  24
BRANCH   2  29
ATOM     29  C   UNL     1       4.937  -3.950   0.146  0.00  0.00    +0.099 C 
ATOM     30  N   UNL     1       5.000  -5.081   0.059  0.00  0.00    -0.191 NA
ENDBRANCH   2  29
TORSDOF 3
