REMARK  Name = ZINC02116642
REMARK  6 active torsions:
REMARK  status: ('A' for Active; 'I' for Inactive)
REMARK    1  A    between atoms: C_1  and  C_2
REMARK    2  A    between atoms: C_5  and  C_31
REMARK    3  A    between atoms: C_6  and  N_8
REMARK    4  A    between atoms: C_19  and  C_22
REMARK    5  A    between atoms: C_20  and  C_21
REMARK    6  A    between atoms: C_22  and  C_23
REMARK                            x       y       z     vdW  Elec       q    Type
REMARK                         _______ _______ _______ _____ _____    ______ ____
ROOT
ATOM      1  N   UNL     1       1.756  -0.479  -0.442  0.00  0.00    -0.293 N 
ATOM      2  C   UNL     1       0.619   0.210   0.185  0.00  0.00    +0.151 C 
ATOM      3  C   UNL     1       0.857   1.699   0.166  0.00  0.00    +0.054 A 
ATOM      4  C   UNL     1       2.124   2.212  -0.049  0.00  0.00    +0.131 A 
ATOM      5  C   UNL     1       2.333   3.593  -0.062  0.00  0.00    +0.047 A 
ATOM      6  C   UNL     1       1.293   4.453   0.135  0.00  0.00    +0.015 A 
ATOM      7  C   UNL     1       0.006   3.949   0.352  0.00  0.00    +0.021 A 
ATOM      8  C   UNL     1      -0.214   2.560   0.373  0.00  0.00    +0.147 A 
ATOM      9  O   UNL     1      -1.451   2.064   0.575  0.00  0.00    -0.421 OA
ATOM     10  C   UNL     1      -2.484   2.891   0.770  0.00  0.00    +0.341 A 
ATOM     11  O   UNL     1      -3.587   2.411   0.955  0.00  0.00    -0.245 OA
ATOM     12  C   UNL     1      -2.350   4.293   0.771  0.00  0.00    +0.045 A 
ATOM     13  C   UNL     1      -1.128   4.852   0.566  0.00  0.00    -0.030 A 
ATOM     14  C   UNL     1      -0.946   6.348   0.559  0.00  0.00    +0.045 C 
ATOM     15  O   UNL     1       3.183   1.386  -0.251  0.00  0.00    -0.473 OA
ATOM     16  C   UNL     1       3.022   0.016   0.123  0.00  0.00    +0.339 C 
ENDROOT
BRANCH   1  22
ATOM     17  C   UNL     1       1.644  -4.417   2.497  0.00  0.00    +0.044 C 
ATOM     18  C   UNL     1       1.590  -3.800   1.123  0.00  0.00    -0.049 A 
ATOM     19  C   UNL     1       1.433  -4.606   0.010  0.00  0.00    +0.004 A 
ATOM     20  C   UNL     1       1.383  -4.044  -1.252  0.00  0.00    +0.005 A 
ATOM     21  C   UNL     1       1.490  -2.675  -1.406  0.00  0.00    -0.029 A 
ATOM     22  C   UNL     1       1.647  -1.863  -0.290  0.00  0.00    +0.036 A 
ATOM     23  C   UNL     1       1.702  -2.431   0.977  0.00  0.00    +0.026 A 
ATOM     24  C   UNL     1       1.435  -2.064  -2.782  0.00  0.00    +0.045 C 
ENDBRANCH   1  22
BRANCH  12  25
ATOM     25  C   UNL     1      -3.556   5.169   0.996  0.00  0.00    +0.077 C 
BRANCH  25  26
ATOM     26  C   UNL     1      -4.202   5.484  -0.328  0.00  0.00    -0.043 A 
ATOM     27  C   UNL     1      -3.815   6.606  -1.037  0.00  0.00    +0.004 A 
ATOM     28  C   UNL     1      -4.405   6.892  -2.254  0.00  0.00    +0.000 A 
ATOM     29  C   UNL     1      -5.389   6.062  -2.757  0.00  0.00    +0.000 A 
ATOM     30  C   UNL     1      -5.781   4.944  -2.045  0.00  0.00    +0.000 A 
ATOM     31  C   UNL     1      -5.187   4.654  -0.831  0.00  0.00    +0.004 A 
ENDBRANCH  25  26
ENDBRANCH  12  25
TORSDOF 3
