REMARK  Name = ZINC07674405
REMARK  9 active torsions:
REMARK  status: ('A' for Active; 'I' for Inactive)
REMARK    1  A    between atoms: C_1  and  C_2
REMARK    2  A    between atoms: C_2  and  N_49
REMARK    3  A    between atoms: C_3  and  C_4
REMARK    4  A    between atoms: C_3  and  N_49
REMARK    5  A    between atoms: C_7  and  O_11
REMARK    6  A    between atoms: O_11  and  C_12
REMARK    7  A    between atoms: C_13  and  C_14
REMARK    8  A    between atoms: C_13  and  N_49
REMARK    9  A    between atoms: C_20  and  C_25
REMARK                            x       y       z     vdW  Elec       q    Type
REMARK                         _______ _______ _______ _____ _____    ______ ____
ROOT
ATOM      1  C   UNL     1      -4.840   5.145  -2.727  0.00  0.00    +0.094 A 
ATOM      2  N   UNL     1      -6.054   5.724  -2.916  0.00  0.00    -0.312 N 
ATOM      3  H   UNL     1      -6.610   5.967  -2.121  0.00  0.00    +0.170 HD
ATOM      4  C   UNL     1      -6.522   5.978  -4.152  0.00  0.00    +0.260 A 
ATOM      5  O   UNL     1      -7.612   6.503  -4.304  0.00  0.00    -0.267 OA
ATOM      6  C   UNL     1      -5.725   5.617  -5.284  0.00  0.00    +0.083 A 
ATOM      7  C   UNL     1      -6.011   5.782  -6.705  0.00  0.00    +0.039 A 
ATOM      8  C   UNL     1      -5.091   5.358  -7.608  0.00  0.00    +0.059 A 
ATOM      9  S   UNL     1      -3.780   4.710  -6.588  0.00  0.00    -0.076 S 
ATOM     10  C   UNL     1      -4.489   5.019  -4.991  0.00  0.00    +0.116 A 
ATOM     11  N   UNL     1      -4.090   4.804  -3.740  0.00  0.00    -0.229 NA
ENDROOT
BRANCH   7  12
ATOM     12  C   UNL     1      -7.278   6.397  -7.152  0.00  0.00    +0.136 A 
ATOM     13  C   UNL     1      -7.399   7.412  -8.049  0.00  0.00    +0.050 A 
ATOM     14  C   UNL     1      -8.778   7.677  -8.178  0.00  0.00    +0.042 A 
ATOM     15  C   UNL     1      -9.422   6.826  -7.356  0.00  0.00    +0.196 A 
ATOM     16  O   UNL     1      -8.512   6.054  -6.737  0.00  0.00    -0.463 OA
ENDBRANCH   7  12
BRANCH   1  17
ATOM     17  C   UNL     1      -4.354   4.885  -1.324  0.00  0.00    -0.003 C 
BRANCH  17  18
ATOM     18  N   UNL     1      -3.074   4.149  -1.394  0.00  0.00    +0.387 N 
ATOM     19  H   UNL     1      -2.469   4.599  -2.091  0.00  0.00    -0.081 HD
BRANCH  18  21
ATOM     20  C   UNL     1      -4.193   2.035  -0.769  0.00  0.00    -0.017 C 
ATOM     21  C   UNL     1      -3.318   2.749  -1.801  0.00  0.00    -0.081 C 
ENDBRANCH  18  21
BRANCH  18  22
ATOM     22  C   UNL     1      -2.400   4.183  -0.080  0.00  0.00    -0.042 C 
BRANCH  22  23
ATOM     23  C   UNL     1      -1.009   3.623  -0.232  0.00  0.00    -0.061 A 
ATOM     24  C   UNL     1      -0.785   2.272  -0.047  0.00  0.00    +0.005 A 
ATOM     25  C   UNL     1       0.490   1.756  -0.181  0.00  0.00    +0.049 A 
ATOM     26  C   UNL     1       1.545   2.593  -0.512  0.00  0.00    +0.155 A 
ATOM     27  C   UNL     1       1.318   3.950  -0.702  0.00  0.00    +0.165 A 
ATOM     28  C   UNL     1       0.040   4.462  -0.561  0.00  0.00    +0.044 A 
ATOM     29  F   UNL     1       2.343   4.769  -1.024  0.00  0.00    -0.202 F 
BRANCH  26  30
ATOM     30  O   UNL     1       2.799   2.087  -0.649  0.00  0.00    -0.492 OA
ATOM     31  C   UNL     1       2.958   0.682  -0.439  0.00  0.00    +0.277 C 
ENDBRANCH  26  30
ENDBRANCH  22  23
ENDBRANCH  18  22
ENDBRANCH  17  18
ENDBRANCH   1  17
TORSDOF 7
