REMARK  Name = ZINC50441489
REMARK  10 active torsions:
REMARK  status: ('A' for Active; 'I' for Inactive)
REMARK    1  A    between atoms: C_1  and  C_2
REMARK    2  A    between atoms: C_2  and  C_3
REMARK    3  A    between atoms: C_2  and  C_17
REMARK    4  A    between atoms: C_2  and  N_21
REMARK    5  A    between atoms: C_3  and  C_4
REMARK    6  A    between atoms: C_4  and  O_5
REMARK    7  A    between atoms: O_5  and  C_6
REMARK    8  A    between atoms: C_9  and  N_13
REMARK    9  A    between atoms: C_17  and  O_19
REMARK   10  A    between atoms: O_19  and  C_20
REMARK                            x       y       z     vdW  Elec       q    Type
REMARK                         _______ _______ _______ _____ _____    ______ ____
ROOT
ATOM      1  C   UNL     1       2.178   0.019   1.231  0.00  0.00    +0.228 C 
ENDROOT
BRANCH   1   2
ATOM      2  C   UNL     1       0.742  -0.511   1.242  0.00  0.00    +0.039 C 
BRANCH   2   4
ATOM      3  C   UNL     1      -0.019   1.526   0.010  0.00  0.00    +0.001 C 
ATOM      4  C   UNL     1       0.002  -0.004   0.002  0.00  0.00    +0.029 C 
BRANCH   4   5
ATOM      5  N   UNL     1       0.690  -0.478  -1.207  0.00  0.00    +0.389 N 
ATOM      6  H   UNL     1       1.636  -0.129  -1.214  0.00  0.00    -0.088 HD
ATOM      7  H   UNL     1       0.703  -1.487  -1.212  0.00  0.00    -0.088 HD
ATOM      8  H   UNL     1       0.202  -0.144  -2.024  0.00  0.00    -0.088 HD
ENDBRANCH   4   5
BRANCH   4   9
ATOM      9  C   UNL     1      -1.412  -0.526   0.013  0.00  0.00    +0.295 C 
ATOM     10  O   UNL     1      -1.937  -0.826   1.059  0.00  0.00    -0.252 OA
BRANCH   9  11
ATOM     11  O   UNL     1      -2.087  -0.657  -1.140  0.00  0.00    -0.469 OA
ATOM     12  C   UNL     1      -3.423  -1.157  -1.055  0.00  0.00    +0.280 C 
ENDBRANCH   9  11
ENDBRANCH   4   9
ENDBRANCH   2   4
ENDBRANCH   1   2
BRANCH   1  13
ATOM     13  O   UNL     1       2.869  -0.455   2.388  0.00  0.00    -0.490 OA
BRANCH  13  14
ATOM     14  C   UNL     1       4.165  -0.073   2.532  0.00  0.00    +0.148 A 
ATOM     15  C   UNL     1       5.182  -0.847   1.992  0.00  0.00    +0.063 A 
ATOM     16  C   UNL     1       6.500  -0.456   2.139  0.00  0.00    +0.051 A 
ATOM     17  C   UNL     1       6.805   0.706   2.825  0.00  0.00    +0.129 A 
ATOM     18  C   UNL     1       5.794   1.479   3.365  0.00  0.00    +0.051 A 
ATOM     19  C   UNL     1       4.474   1.095   3.215  0.00  0.00    +0.063 A 
ATOM     20 BR   UNL     1       3.091   2.158   3.947  0.00  0.00    -0.046 Br
ATOM     21 BR   UNL     1       4.766  -2.436   1.055  0.00  0.00    -0.046 Br
BRANCH  17  22
ATOM     22  N   UNL     1       8.217   1.121   2.982  0.00  0.00    +0.056 N 
ATOM     23  O   UNL     1       9.102   0.446   2.511  0.00  0.00    -0.126 OA
ATOM     24  O   UNL     1       8.485   2.136   3.581  0.00  0.00    -0.126 OA
ENDBRANCH  17  22
ENDBRANCH  13  14
ENDBRANCH   1  13
TORSDOF 8
