REMARK  Name = ZINC40126520
REMARK  6 active torsions:
REMARK  status: ('A' for Active; 'I' for Inactive)
REMARK    1  A    between atoms: C_3  and  C_16
REMARK    2  A    between atoms: C_5  and  O_7
REMARK    3  A    between atoms: O_7  and  C_8
REMARK    4  A    between atoms: C_8  and  C_9
REMARK    5  A    between atoms: C_16  and  C_18
REMARK    6  A    between atoms: C_23  and  C_25
REMARK                            x       y       z     vdW  Elec       q    Type
REMARK                         _______ _______ _______ _____ _____    ______ ____
ROOT
ATOM      1  C   UNL     1       3.709   2.192  -0.048  0.00  0.00    +0.195 C 
ATOM      2  O   UNL     1       4.780   1.626   0.064  0.00  0.00    -0.287 OA
ENDROOT
BRANCH   1   3
ATOM      3  C   UNL     1       3.659   3.655  -0.134  0.00  0.00    +0.076 C 
ATOM      4  C   UNL     1       4.128   4.420  -1.148  0.00  0.00    +0.249 C 
ATOM      5  C   UNL     1       3.877   5.843  -0.837  0.00  0.00    +0.285 C 
ATOM      6  O   UNL     1       4.183   6.777  -1.552  0.00  0.00    -0.267 OA
ATOM      7  N   UNL     1       3.261   5.952   0.354  0.00  0.00    -0.298 N 
ATOM      8  C   UNL     1       3.068   4.598   0.887  0.00  0.00    +0.142 C 
ATOM      9  O   UNL     1       4.731   3.956  -2.266  0.00  0.00    -0.282 OA
ATOM     10  H   UNL     1       2.989   6.778   0.783  0.00  0.00    +0.150 HD
BRANCH   8  11
ATOM     11  C   UNL     1       3.789   4.455   2.203  0.00  0.00    -0.021 A 
ATOM     12  C   UNL     1       4.968   5.144   2.423  0.00  0.00    +0.007 A 
ATOM     13  C   UNL     1       5.631   5.013   3.629  0.00  0.00    +0.022 A 
ATOM     14  C   UNL     1       5.115   4.193   4.616  0.00  0.00    +0.059 A 
ATOM     15  C   UNL     1       3.934   3.504   4.396  0.00  0.00    +0.060 A 
ATOM     16  C   UNL     1       3.270   3.640   3.190  0.00  0.00    +0.027 A 
ATOM     17 CL   UNL     1       3.286   2.474   5.634  0.00  0.00    -0.082 Cl
ATOM     18 CL   UNL     1       5.947   4.028   6.131  0.00  0.00    -0.082 Cl
ENDBRANCH   8  11
ENDBRANCH   1   3
BRANCH   1  21
ATOM     19  C   UNL     1       0.058   1.318  -0.190  0.00  0.00    +0.004 A 
ATOM     20  C   UNL     1       1.223   2.055  -0.144  0.00  0.00    +0.012 A 
ATOM     21  C   UNL     1       2.458   1.405  -0.097  0.00  0.00    +0.026 A 
ATOM     22  C   UNL     1       2.507   0.010  -0.096  0.00  0.00    +0.057 A 
ATOM     23  C   UNL     1       1.332  -0.719  -0.142  0.00  0.00    +0.122 A 
ATOM     24  C   UNL     1       0.108  -0.064  -0.189  0.00  0.00    +0.046 A 
BRANCH  23  25
ATOM     25  O   UNL     1       1.376  -2.078  -0.142  0.00  0.00    -0.487 OA
BRANCH  25  26
ATOM     26  C   UNL     1       0.125  -2.767  -0.191  0.00  0.00    +0.264 C 
BRANCH  26  27
ATOM     27  C   UNL     1       0.370  -4.254  -0.183  0.00  0.00    -0.010 A 
ATOM     28  C   UNL     1       0.534  -4.933  -1.376  0.00  0.00    +0.008 A 
ATOM     29  C   UNL     1       0.758  -6.297  -1.369  0.00  0.00    +0.020 A 
ATOM     30  C   UNL     1       0.819  -6.982  -0.169  0.00  0.00    +0.041 A 
ATOM     31  C   UNL     1       0.655  -6.302   1.024  0.00  0.00    +0.020 A 
ATOM     32  C   UNL     1       0.436  -4.937   1.017  0.00  0.00    +0.008 A 
ATOM     33 CL   UNL     1       1.101  -8.695  -0.160  0.00  0.00    -0.084 Cl
ENDBRANCH  26  27
ENDBRANCH  25  26
ENDBRANCH  23  25
ENDBRANCH   1  21
TORSDOF 6
