REMARK  Name = ZINC35763516
REMARK  6 active torsions:
REMARK  status: ('A' for Active; 'I' for Inactive)
REMARK    1  A    between atoms: C_1  and  C_2
REMARK    2  A    between atoms: C_5  and  O_18
REMARK    3  A    between atoms: C_6  and  C_8
REMARK    4  A    between atoms: C_8  and  C_10
REMARK    5  A    between atoms: C_8  and  N_11
REMARK    6  A    between atoms: N_11  and  C_12
REMARK                            x       y       z     vdW  Elec       q    Type
REMARK                         _______ _______ _______ _____ _____    ______ ____
ROOT
ATOM      1  C   UNL     1       0.052  -2.841   2.493  0.00  0.00    +0.101 C 
ATOM      2  C   UNL     1       1.496  -3.187   2.864  0.00  0.00    +0.033 C 
ENDROOT
BRANCH   1   8
ATOM      3  C   UNL     1      -0.018   1.503   0.010  0.00  0.00    +0.044 C 
ATOM      4  C   UNL     1       0.002  -0.004   0.002  0.00  0.00    -0.050 A 
ATOM      5  C   UNL     1       0.006  -0.688  -1.200  0.00  0.00    +0.007 A 
ATOM      6  C   UNL     1       0.024  -2.069  -1.210  0.00  0.00    +0.046 A 
ATOM      7  C   UNL     1       0.039  -2.770  -0.013  0.00  0.00    +0.122 A 
ATOM      8  C   UNL     1       0.036  -2.082   1.191  0.00  0.00    +0.014 A 
ATOM      9  C   UNL     1       0.023  -0.701   1.196  0.00  0.00    +0.012 A 
BRANCH   7  10
ATOM     10  O   UNL     1       0.057  -4.129  -0.021  0.00  0.00    -0.506 OA
ATOM     11  H   UNL     1       0.945  -4.511  -0.027  0.00  0.00    +0.292 HD
ENDBRANCH   7  10
ENDBRANCH   1   8
BRANCH   1  12
ATOM     12  N   UNL     1      -0.537  -2.013   3.548  0.00  0.00    -0.335 N 
ATOM     13  H   UNL     1      -0.529  -1.046   3.468  0.00  0.00    +0.147 HD
BRANCH  12  14
ATOM     14  C   UNL     1      -1.116  -2.620   4.679  0.00  0.00    +0.065 A 
ATOM     15  C   UNL     1      -1.698  -1.976   5.722  0.00  0.00    +0.127 A 
ATOM     16  N   UNL     1      -2.128  -2.921   6.599  0.00  0.00    -0.283 N 
ATOM     17  H   UNL     1      -2.584  -2.756   7.439  0.00  0.00    +0.188 HD
ATOM     18  N   UNL     1      -1.797  -4.177   6.074  0.00  0.00    -0.180 NA
ATOM     19  C   UNL     1      -1.197  -3.998   4.925  0.00  0.00    +0.157 A 
ENDBRANCH  12  14
ENDBRANCH   1  12
TORSDOF 4
