REMARK  Name = ZINC13065142
REMARK  13 active torsions:
REMARK  status: ('A' for Active; 'I' for Inactive)
REMARK    1  A    between atoms: C_1  and  C_2
REMARK    2  A    between atoms: C_2  and  C_3
REMARK    3  A    between atoms: C_3  and  C_5
REMARK    4  A    between atoms: C_3  and  N_69
REMARK    5  A    between atoms: N_9  and  C_10
REMARK    6  A    between atoms: C_10  and  C_11
REMARK    7  A    between atoms: C_11  and  C_12
REMARK    8  A    between atoms: C_18  and  C_19
REMARK    9  A    between atoms: C_18  and  N_69
REMARK   10  A    between atoms: C_24  and  C_25
REMARK   11  A    between atoms: C_24  and  N_69
REMARK   12  A    between atoms: C_30  and  C_38
REMARK   13  A    between atoms: C_31  and  C_37
REMARK                            x       y       z     vdW  Elec       q    Type
REMARK                         _______ _______ _______ _____ _____    ______ ____
ROOT
ATOM      1  N   UNL     1       4.259   1.703   1.192  0.00  0.00    +0.394 N 
ATOM      2  H   UNL     1       4.046   2.704   1.104  0.00  0.00    -0.080 HD
ENDROOT
BRANCH   1   3
ATOM      3  C   UNL     1       3.415   0.948   0.242  0.00  0.00    +0.003 C 
BRANCH   3   4
ATOM      4  C   UNL     1       3.585  -0.535   0.448  0.00  0.00    +0.138 A 
ATOM      5  N   UNL     1       3.887  -1.139   1.571  0.00  0.00    -0.115 NA
ATOM      6  N   UNL     1       3.941  -2.406   1.339  0.00  0.00    -0.023 NA
ATOM      7  N   UNL     1       3.681  -2.625   0.098  0.00  0.00    -0.044 NA
ATOM      8  N   UNL     1       3.456  -1.496  -0.485  0.00  0.00    -0.231 N 
BRANCH   8   9
ATOM      9  C   UNL     1       3.123  -1.298  -1.898  0.00  0.00    +0.152 C 
BRANCH   9  10
ATOM     10  C   UNL     1       1.623  -1.521  -2.105  0.00  0.00    +0.058 C 
BRANCH  10  11
ATOM     11  C   UNL     1       1.281  -1.317  -3.558  0.00  0.00    -0.046 A 
ATOM     12  C   UNL     1       0.916  -0.064  -4.013  0.00  0.00    +0.004 A 
ATOM     13  C   UNL     1       0.607   0.124  -5.347  0.00  0.00    +0.000 A 
ATOM     14  C   UNL     1       0.652  -0.943  -6.224  0.00  0.00    +0.000 A 
ATOM     15  C   UNL     1       1.011  -2.198  -5.769  0.00  0.00    +0.000 A 
ATOM     16  C   UNL     1       1.326  -2.385  -4.436  0.00  0.00    +0.004 A 
ENDBRANCH  10  11
ENDBRANCH   9  10
ENDBRANCH   8   9
ENDBRANCH   3   4
BRANCH   3  18
ATOM     17  C   UNL     1       1.753   2.810   0.135  0.00  0.00    +0.002 C 
ATOM     18  C   UNL     1       1.952   1.331   0.470  0.00  0.00    -0.011 C 
ENDBRANCH   3  18
ENDBRANCH   1   3
BRANCH   1  19
ATOM     19  C   UNL     1       3.973   1.271   2.576  0.00  0.00    -0.002 C 
BRANCH  19  20
ATOM     20  C   UNL     1       4.498   2.315   3.527  0.00  0.00    +0.089 A 
ATOM     21  C   UNL     1       3.799   3.355   4.017  0.00  0.00    +0.042 A 
ATOM     22  C   UNL     1       4.674   4.074   4.864  0.00  0.00    +0.041 A 
ATOM     23  C   UNL     1       5.855   3.431   4.839  0.00  0.00    +0.195 A 
ATOM     24  O   UNL     1       5.741   2.364   4.033  0.00  0.00    -0.470 OA
ENDBRANCH  19  20
ENDBRANCH   1  19
BRANCH   1  25
ATOM     25  C   UNL     1       5.688   1.487   0.880  0.00  0.00    -0.036 C 
BRANCH  25  26
ATOM     26  C   UNL     1       6.082   2.414  -0.241  0.00  0.00    +0.001 A 
ATOM     27  C   UNL     1       6.591   3.638   0.042  0.00  0.00    +0.017 A 
ATOM     28  C   UNL     1       6.968   4.513  -1.070  0.00  0.00    -0.001 A 
ATOM     29  C   UNL     1       7.504   5.784  -0.841  0.00  0.00    +0.010 A 
ATOM     30  C   UNL     1       7.841   6.578  -1.901  0.00  0.00    +0.004 A 
ATOM     31  C   UNL     1       7.656   6.134  -3.203  0.00  0.00    -0.046 A 
ATOM     32  C   UNL     1       7.130   4.885  -3.453  0.00  0.00    -0.024 A 
ATOM     33  C   UNL     1       6.779   4.059  -2.389  0.00  0.00    +0.052 A 
ATOM     34  N   UNL     1       6.251   2.805  -2.610  0.00  0.00    -0.322 N 
ATOM     35  H   UNL     1       6.122   2.494  -3.519  0.00  0.00    +0.169 HD
ATOM     36  C   UNL     1       5.913   2.007  -1.582  0.00  0.00    +0.251 A 
ATOM     37  O   UNL     1       5.449   0.904  -1.814  0.00  0.00    -0.268 OA
ATOM     38  C   UNL     1       6.935   4.416  -4.871  0.00  0.00    +0.046 C 
ATOM     39  C   UNL     1       8.035   7.027  -4.356  0.00  0.00    +0.044 C 
ENDBRANCH  25  26
ENDBRANCH   1  25
TORSDOF 10
