REMARK  Name = ZINC40985190
REMARK  13 active torsions:
REMARK  status: ('A' for Active; 'I' for Inactive)
REMARK    1  A    between atoms: C_1  and  C_2
REMARK    2  A    between atoms: C_5  and  C_8
REMARK    3  A    between atoms: C_8  and  C_9
REMARK    4  A    between atoms: C_9  and  N_10
REMARK    5  A    between atoms: C_11  and  C_13
REMARK    6  A    between atoms: N_16  and  C_19
REMARK    7  A    between atoms: C_19  and  C_20
REMARK    8  A    between atoms: C_21  and  C_35
REMARK    9  A    between atoms: C_23  and  C_25
REMARK   10  A    between atoms: C_28  and  O_31
REMARK   11  A    between atoms: O_31  and  C_32
REMARK   12  A    between atoms: C_32  and  C_33
REMARK   13  A    between atoms: C_32  and  C_34
REMARK                            x       y       z     vdW  Elec       q    Type
REMARK                         _______ _______ _______ _____ _____    ______ ____
ROOT
ATOM      1  C   UNL     1       3.248  -8.247  -0.574  0.00  0.00    +0.071 C 
ATOM      2  C   UNL     1       2.542  -8.518   0.758  0.00  0.00    -0.006 C 
ATOM      3  C   UNL     1       2.451 -10.029   0.982  0.00  0.00    -0.078 C 
ATOM      4  N   UNL     1       3.800 -10.605   1.016  0.00  0.00    +0.383 N 
ATOM      5  C   UNL     1       4.457 -10.411  -0.282  0.00  0.00    -0.078 C 
ATOM      6  C   UNL     1       4.626  -8.915  -0.555  0.00  0.00    -0.006 C 
ATOM      7  H   UNL     1       4.341 -10.150   1.736  0.00  0.00    -0.081 HD
ENDROOT
BRANCH   1   9
ATOM      8  N   UNL     1       2.326  -5.964  -0.812  0.00  0.00    -0.315 N 
ATOM      9  C   UNL     1       3.412  -6.761  -0.764  0.00  0.00    +0.216 C 
ATOM     10  O   UNL     1       4.521  -6.282  -0.874  0.00  0.00    -0.276 OA
ATOM     11  H   UNL     1       1.439  -6.347  -0.724  0.00  0.00    +0.149 HD
BRANCH   8  12
ATOM     12  C   UNL     1       2.485  -4.519  -0.997  0.00  0.00    +0.109 C 
BRANCH  12  13
ATOM     13  C   UNL     1       1.107  -3.853  -1.015  0.00  0.00    +0.054 C 
BRANCH  13  18
ATOM     14  C   UNL     1       1.731   1.845  -1.745  0.00  0.00    +0.044 C 
ATOM     15  C   UNL     1       1.569   0.359  -1.555  0.00  0.00    -0.050 A 
ATOM     16  C   UNL     1       1.440  -0.469  -2.654  0.00  0.00    +0.003 A 
ATOM     17  C   UNL     1       1.291  -1.832  -2.480  0.00  0.00    +0.004 A 
ATOM     18  C   UNL     1       1.271  -2.367  -1.205  0.00  0.00    -0.046 A 
ATOM     19  C   UNL     1       1.401  -1.540  -0.106  0.00  0.00    +0.004 A 
ATOM     20  C   UNL     1       1.554  -0.177  -0.281  0.00  0.00    +0.003 A 
ENDBRANCH  13  18
ENDBRANCH  12  13
ENDBRANCH   8  12
ENDBRANCH   1   9
BRANCH   4  21
ATOM     21  C   UNL     1       3.711 -12.041   1.309  0.00  0.00    -0.019 C 
BRANCH  21  22
ATOM     22  C   UNL     1       5.098 -12.610   1.466  0.00  0.00    +0.066 A 
ATOM     23  C   UNL     1       5.859 -13.122   0.483  0.00  0.00    +0.124 A 
ATOM     24  O   UNL     1       7.021 -13.518   1.041  0.00  0.00    -0.440 OA
ATOM     25  C   UNL     1       6.957 -13.243   2.355  0.00  0.00    +0.228 A 
ATOM     26  N   UNL     1       5.795 -12.689   2.610  0.00  0.00    -0.216 NA
ATOM     27  C   UNL     1       5.484 -13.234  -0.973  0.00  0.00    +0.088 C 
BRANCH  25  28
ATOM     28  C   UNL     1       8.019 -13.515   3.346  0.00  0.00    +0.037 A 
ATOM     29  C   UNL     1       7.824 -13.186   4.689  0.00  0.00    +0.017 A 
ATOM     30  C   UNL     1       8.817 -13.442   5.610  0.00  0.00    +0.046 A 
ATOM     31  C   UNL     1      10.010 -14.026   5.205  0.00  0.00    +0.121 A 
ATOM     32  C   UNL     1      10.207 -14.355   3.870  0.00  0.00    +0.046 A 
ATOM     33  C   UNL     1       9.218 -14.107   2.943  0.00  0.00    +0.017 A 
BRANCH  31  34
ATOM     34  O   UNL     1      10.986 -14.276   6.115  0.00  0.00    -0.489 OA
BRANCH  34  35
ATOM     35  C   UNL     1      10.673 -14.025   7.487  0.00  0.00    +0.167 C 
ATOM     36  C   UNL     1      11.562 -14.893   8.380  0.00  0.00    +0.051 C 
ATOM     37  C   UNL     1      10.919 -12.548   7.803  0.00  0.00    +0.051 C 
ENDBRANCH  34  35
ENDBRANCH  31  34
ENDBRANCH  25  28
ENDBRANCH  21  22
ENDBRANCH   4  21
TORSDOF 9
