REMARK  Name = ZINC51697295
REMARK  6 active torsions:
REMARK  status: ('A' for Active; 'I' for Inactive)
REMARK    1  A    between atoms: C_1  and  C_2
REMARK    2  A    between atoms: C_7  and  C_10
REMARK    3  A    between atoms: C_12  and  C_17
REMARK    4  A    between atoms: C_14  and  N_16
REMARK    5  A    between atoms: C_17  and  O_18
REMARK    6  A    between atoms: O_18  and  C_19
REMARK                            x       y       z     vdW  Elec       q    Type
REMARK                         _______ _______ _______ _____ _____    ______ ____
ROOT
ATOM      1  C   UNL     1       1.492  -2.540   2.454  0.00  0.00    +0.135 A 
ATOM      2  N   UNL     1       2.573  -3.276   2.298  0.00  0.00    -0.234 NA
ATOM      3  C   UNL     1       3.244  -3.735   3.345  0.00  0.00    +0.072 A 
ATOM      4  C   UNL     1       2.797  -3.433   4.617  0.00  0.00    +0.069 A 
ATOM      5  C   UNL     1       1.648  -2.651   4.747  0.00  0.00    +0.120 A 
ATOM      6  N   UNL     1       1.033  -2.223   3.648  0.00  0.00    -0.217 NA
ENDROOT
BRANCH   1  12
ATOM      7  C   UNL     1      -0.019   1.526   0.010  0.00  0.00    +0.007 C 
ATOM      8  C   UNL     1       0.002  -0.004   0.002  0.00  0.00    -0.013 C 
ATOM      9  C   UNL     1      -1.433  -0.534   0.013  0.00  0.00    +0.003 C 
ATOM     10  C   UNL     1      -1.413  -2.063   0.004  0.00  0.00    +0.001 C 
ATOM     11  C   UNL     1      -0.673  -2.570   1.244  0.00  0.00    +0.011 C 
ATOM     12  C   UNL     1       0.763  -2.041   1.233  0.00  0.00    +0.057 C 
ATOM     13  C   UNL     1       0.742  -0.511   1.242  0.00  0.00    +0.014 C 
ENDBRANCH   1  12
BRANCH   5  14
ATOM     14  N   UNL     1       1.160  -2.321   6.000  0.00  0.00    -0.343 N 
ATOM     15  H   UNL     1       1.617  -2.634   6.797  0.00  0.00    +0.144 HD
ATOM     16  H   UNL     1       0.361  -1.776   6.082  0.00  0.00    +0.144 HD
ENDBRANCH   5  14
BRANCH   3  17
ATOM     17  C   UNL     1       4.479  -4.577   3.150  0.00  0.00    +0.214 C 
BRANCH  17  18
ATOM     18  O   UNL     1       5.012  -4.942   4.425  0.00  0.00    -0.377 OA
ATOM     19  C   UNL     1       6.192  -5.746   4.353  0.00  0.00    +0.194 C 
ENDBRANCH  17  18
ENDBRANCH   3  17
TORSDOF 4
