REMARK  Name = ZINC00408526
REMARK  8 active torsions:
REMARK  status: ('A' for Active; 'I' for Inactive)
REMARK    1  A    between atoms: C_1  and  N_2
REMARK    2  A    between atoms: N_2  and  C_3
REMARK    3  A    between atoms: N_2  and  C_6
REMARK    4  A    between atoms: C_3  and  C_4
REMARK    5  A    between atoms: C_9  and  C_12
REMARK    6  A    between atoms: C_17  and  O_26
REMARK    7  A    between atoms: C_21  and  N_25
REMARK    8  A    between atoms: C_22  and  C_23
REMARK                            x       y       z     vdW  Elec       q    Type
REMARK                         _______ _______ _______ _____ _____    ______ ____
ROOT
ATOM      1  C   UNL     1       2.490   1.044  -0.016  0.00  0.00    +0.098 C 
ATOM      2  C   UNL     1       3.261   1.426  -1.252  0.00  0.00    +0.008 A 
ATOM      3  C   UNL     1       2.897   0.888  -2.474  0.00  0.00    +0.012 A 
ATOM      4  C   UNL     1       3.593   1.226  -3.618  0.00  0.00    +0.046 A 
ATOM      5  C   UNL     1       4.662   2.109  -3.544  0.00  0.00    +0.120 A 
ATOM      6  C   UNL     1       5.027   2.650  -2.322  0.00  0.00    +0.092 A 
ATOM      7  C   UNL     1       4.326   2.309  -1.173  0.00  0.00    +0.138 A 
ATOM      8  O   UNL     1       4.697   2.846   0.015  0.00  0.00    -0.441 OA
ATOM      9  C   UNL     1       4.315   2.263   1.163  0.00  0.00    +0.199 C 
ATOM     10  C   UNL     1       3.275   1.398   1.216  0.00  0.00    +0.098 C 
ENDROOT
BRANCH   1  14
ATOM     11  C   UNL     1      -1.236   3.138   0.031  0.00  0.00    +0.030 A 
ATOM     12  C   UNL     1      -1.218   1.749   0.017  0.00  0.00    +0.023 A 
ATOM     13  C   UNL     1      -0.013   1.076   0.008  0.00  0.00    +0.006 A 
ATOM     14  C   UNL     1       1.176   1.783   0.000  0.00  0.00    -0.035 A 
ATOM     15  C   UNL     1       1.162   3.166   0.008  0.00  0.00    +0.006 A 
ATOM     16  C   UNL     1      -0.040   3.845   0.024  0.00  0.00    +0.023 A 
BRANCH  11  18
ATOM     17  C   UNL     1      -2.471   5.287   0.054  0.00  0.00    +0.130 C 
ATOM     18  N   UNL     1      -2.454   3.822   0.046  0.00  0.00    -0.320 N 
BRANCH  18  19
ATOM     19  C   UNL     1      -3.714   3.075   0.054  0.00  0.00    +0.223 C 
BRANCH  19  20
ATOM     20  C   UNL     1      -4.123   2.817   1.444  0.00  0.00    +0.082 C 
ATOM     21  N   UNL     1      -4.439   2.618   2.517  0.00  0.00    -0.195 NA
ENDBRANCH  19  20
ENDBRANCH  18  19
ENDBRANCH  11  18
ENDBRANCH   1  14
BRANCH   9  22
ATOM     22  N   UNL     1       4.999   2.552   2.318  0.00  0.00    -0.328 N 
ATOM     23  H   UNL     1       5.747   3.170   2.297  0.00  0.00    +0.145 HD
ATOM     24  H   UNL     1       4.735   2.139   3.155  0.00  0.00    +0.145 HD
ENDBRANCH   9  22
BRANCH  10  25
ATOM     25  C   UNL     1       2.915   0.807   2.470  0.00  0.00    +0.101 C 
ATOM     26  N   UNL     1       2.630   0.339   3.465  0.00  0.00    -0.191 NA
ENDBRANCH  10  25
BRANCH   5  27
ATOM     27  O   UNL     1       5.347   2.443  -4.669  0.00  0.00    -0.507 OA
ATOM     28  H   UNL     1       4.995   3.218  -5.129  0.00  0.00    +0.292 HD
ENDBRANCH   5  27
TORSDOF 7
