REMARK  Name = ZINC08855485
REMARK  6 active torsions:
REMARK  status: ('A' for Active; 'I' for Inactive)
REMARK    1  A    between atoms: C_4  and  C_7
REMARK    2  A    between atoms: C_7  and  O_8
REMARK    3  A    between atoms: O_8  and  N_9
REMARK    4  A    between atoms: N_13  and  C_16
REMARK    5  A    between atoms: C_20  and  C_29
REMARK    6  A    between atoms: C_22  and  C_25
REMARK                            x       y       z     vdW  Elec       q    Type
REMARK                         _______ _______ _______ _____ _____    ______ ____
ROOT
ATOM      1  C   UNL     1      -1.630  -4.113   6.002  0.00  0.00    +0.100 A 
ATOM      2  C   UNL     1      -1.581  -3.526   7.274  0.00  0.00    +0.042 A 
ATOM      3  C   UNL     1      -2.386  -3.997   8.268  0.00  0.00    +0.015 A 
ATOM      4  C   UNL     1      -3.242  -5.078   7.976  0.00  0.00    +0.029 A 
ATOM      5  C   UNL     1      -4.096  -5.618   8.953  0.00  0.00    +0.067 A 
ATOM      6  C   UNL     1      -4.898  -6.667   8.598  0.00  0.00    +0.045 A 
ATOM      7  C   UNL     1      -4.851  -7.167   7.301  0.00  0.00    +0.146 A 
ATOM      8  N   UNL     1      -4.052  -6.659   6.393  0.00  0.00    -0.225 NA
ATOM      9  C   UNL     1      -3.242  -5.633   6.673  0.00  0.00    +0.141 A 
ATOM     10  N   UNL     1      -2.433  -5.154   5.666  0.00  0.00    -0.328 N 
ATOM     11  H   UNL     1      -2.437  -5.560   4.723  0.00  0.00    +0.169 HD
ENDROOT
BRANCH   1  16
ATOM     12  N   UNL     1       0.042  -1.900   1.451  0.00  0.00    -0.094 NA
ATOM     13  C   UNL     1       0.060  -2.456   2.603  0.00  0.00    +0.061 C 
ATOM     14  C   UNL     1       0.067  -1.629   3.871  0.00  0.00    +0.073 C 
ATOM     15  C   UNL     1      -1.021  -2.181   4.805  0.00  0.00    +0.112 C 
ATOM     16  N   UNL     1      -0.810  -3.621   4.999  0.00  0.00    -0.316 N 
ATOM     17  C   UNL     1      -1.002  -4.368   3.749  0.00  0.00    +0.112 C 
ATOM     18  C   UNL     1       0.082  -3.964   2.743  0.00  0.00    +0.073 C 
BRANCH  12  19
ATOM     19  O   UNL     1       0.021  -0.488   1.347  0.00  0.00    -0.389 OA
BRANCH  19  20
ATOM     20  C   UNL     1       0.002  -0.004   0.002  0.00  0.00    +0.298 C 
BRANCH  20  24
ATOM     21  C   UNL     1      -0.056   4.267   0.025  0.00  0.00    +0.000 A 
ATOM     22  C   UNL     1       1.151   3.592   0.010  0.00  0.00    +0.000 A 
ATOM     23  C   UNL     1       1.169   2.210   0.003  0.00  0.00    +0.007 A 
ATOM     24  C   UNL     1      -0.018   1.503   0.010  0.00  0.00    -0.008 A 
ATOM     25  C   UNL     1      -1.225   2.178   0.020  0.00  0.00    +0.007 A 
ATOM     26  C   UNL     1      -1.244   3.560   0.032  0.00  0.00    +0.000 A 
ENDBRANCH  20  24
ENDBRANCH  19  20
ENDBRANCH  12  19
ENDBRANCH   1  16
BRANCH   7  27
ATOM     27  C   UNL     1      -5.743  -8.323   6.927  0.00  0.00    +0.434 C 
ATOM     28  F   UNL     1      -6.965  -7.835   6.452  0.00  0.00    -0.164 F 
ATOM     29  F   UNL     1      -5.125  -9.085   5.930  0.00  0.00    -0.164 F 
ATOM     30  F   UNL     1      -5.966  -9.122   8.054  0.00  0.00    -0.164 F 
ENDBRANCH   7  27
BRANCH   5  31
ATOM     31  C   UNL     1      -4.126  -5.057  10.351  0.00  0.00    +0.418 C 
ATOM     32  F   UNL     1      -5.054  -5.769  11.119  0.00  0.00    -0.166 F 
ATOM     33  F   UNL     1      -2.857  -5.173  10.928  0.00  0.00    -0.166 F 
ATOM     34  F   UNL     1      -4.496  -3.709  10.304  0.00  0.00    -0.166 F 
ENDBRANCH   5  31
TORSDOF 6
