REMARK  Name = ZINC63694821
REMARK  6 active torsions:
REMARK  status: ('A' for Active; 'I' for Inactive)
REMARK    1  A    between atoms: C_1  and  C_2
REMARK    2  A    between atoms: C_7  and  N_12
REMARK    3  A    between atoms: C_15  and  C_18
REMARK    4  A    between atoms: N_20  and  C_21
REMARK    5  A    between atoms: C_21  and  C_22
REMARK    6  A    between atoms: C_22  and  C_23
REMARK                            x       y       z     vdW  Elec       q    Type
REMARK                         _______ _______ _______ _____ _____    ______ ____
ROOT
ATOM      1  N   UNL     1      -1.125  -5.092   1.948  0.00  0.00    -0.266 NA
ATOM      2  C   UNL     1      -2.353  -4.394   1.548  0.00  0.00    +0.089 C 
ATOM      3  C   UNL     1      -3.568  -5.134   2.111  0.00  0.00    +0.028 C 
ATOM      4  C   UNL     1      -3.578  -6.569   1.578  0.00  0.00    +0.077 C 
ATOM      5  C   UNL     1      -2.268  -7.259   1.967  0.00  0.00    +0.028 C 
ATOM      6  C   UNL     1      -1.090  -6.457   1.408  0.00  0.00    +0.089 C 
ENDROOT
BRANCH   1  13
ATOM      7  C   UNL     1      -0.018   1.503   0.010  0.00  0.00    +0.044 C 
ATOM      8  C   UNL     1       0.002  -0.004   0.002  0.00  0.00    -0.048 A 
ATOM      9  C   UNL     1       0.005  -0.672  -1.235  0.00  0.00    +0.005 A 
ATOM     10  C   UNL     1       0.022  -2.017  -1.335  0.00  0.00    +0.028 A 
ATOM     11  C   UNL     1       0.040  -2.834  -0.114  0.00  0.00    +0.061 A 
ATOM     12  N   UNL     1       0.057  -4.120   0.090  0.00  0.00    -0.351 N 
ATOM     13  C   UNL     1       0.067  -4.335   1.542  0.00  0.00    +0.252 C 
ATOM     14  N   UNL     1       0.053  -3.002   2.159  0.00  0.00    -0.351 N 
ATOM     15  C   UNL     1       0.037  -2.127   1.195  0.00  0.00    +0.061 A 
ATOM     16  C   UNL     1       0.022  -0.657   1.181  0.00  0.00    +0.030 A 
ATOM     17  H   UNL     1       0.062  -4.809  -0.593  0.00  0.00    +0.163 HD
ATOM     18  H   UNL     1       0.055  -2.810   3.109  0.00  0.00    +0.163 HD
ENDBRANCH   1  13
BRANCH   4  19
ATOM     19  C   UNL     1      -4.739  -7.321   2.177  0.00  0.00    +0.216 C 
ATOM     20  O   UNL     1      -5.486  -6.764   2.953  0.00  0.00    -0.276 OA
ATOM     21  N   UNL     1      -4.948  -8.611   1.849  0.00  0.00    -0.315 N 
ATOM     22  H   UNL     1      -4.350  -9.056   1.228  0.00  0.00    +0.149 HD
BRANCH  21  23
ATOM     23  C   UNL     1      -6.076  -9.342   2.431  0.00  0.00    +0.109 C 
BRANCH  23  24
ATOM     24  C   UNL     1      -6.085 -10.776   1.898  0.00  0.00    +0.061 C 
BRANCH  24  25
ATOM     25  C   UNL     1      -7.246 -11.527   2.496  0.00  0.00    -0.009 A 
ATOM     26  C   UNL     1      -8.512 -11.655   2.029  0.00  0.00    +0.011 A 
ATOM     27  C   UNL     1      -9.422 -12.402   2.753  0.00  0.00    +0.008 A 
ATOM     28  C   UNL     1      -9.021 -12.986   3.909  0.00  0.00    +0.045 A 
ATOM     29  S   UNL     1      -7.309 -12.487   4.000  0.00  0.00    -0.102 S 
ENDBRANCH  24  25
ENDBRANCH  23  24
ENDBRANCH  21  23
ENDBRANCH   4  19
TORSDOF 5
