REMARK  Name = ZINC20467133
REMARK  8 active torsions:
REMARK  status: ('A' for Active; 'I' for Inactive)
REMARK    1  A    between atoms: C_1  and  C_2
REMARK    2  A    between atoms: N_14  and  C_16
REMARK    3  A    between atoms: C_16  and  C_17
REMARK    4  A    between atoms: C_17  and  C_18
REMARK    5  A    between atoms: C_18  and  C_19
REMARK    6  A    between atoms: N_21  and  C_22
REMARK    7  A    between atoms: C_22  and  C_24
REMARK    8  A    between atoms: C_22  and  C_25
REMARK                            x       y       z     vdW  Elec       q    Type
REMARK                         _______ _______ _______ _____ _____    ______ ____
ROOT
ATOM      1  C   UNL     1       3.129  -4.600  -5.151  0.00  0.00    +0.033 C 
ENDROOT
BRANCH   1   2
ATOM      2  C   UNL     1       3.149  -6.130  -5.160  0.00  0.00    +0.148 C 
BRANCH   2  16
ATOM      3  C   UNL     1       0.909  -7.529  -9.291  0.00  0.00    +0.068 C 
ATOM      4  C   UNL     1       2.171  -7.275  -8.508  0.00  0.00    +0.073 A 
ATOM      5  C   UNL     1       3.418  -7.499  -9.102  0.00  0.00    +0.048 A 
ATOM      6  C   UNL     1       4.612  -7.276  -8.410  0.00  0.00    +0.065 A 
ATOM      7  C   UNL     1       5.855  -7.551  -9.155  0.00  0.00    +0.002 A 
ATOM      8  C   UNL     1       7.183  -7.409  -8.691  0.00  0.00    +0.010 A 
ATOM      9  C   UNL     1       8.243  -7.706  -9.508  0.00  0.00    +0.001 A 
ATOM     10  C   UNL     1       8.049  -8.153 -10.807  0.00  0.00    +0.001 A 
ATOM     11  C   UNL     1       6.763  -8.303 -11.288  0.00  0.00    +0.015 A 
ATOM     12  C   UNL     1       5.689  -8.006 -10.473  0.00  0.00    +0.021 A 
ATOM     13  S   UNL     1       3.931  -8.061 -10.704  0.00  0.00    -0.086 S 
ATOM     14  C   UNL     1       4.483  -6.803  -7.067  0.00  0.00    +0.276 A 
ATOM     15  O   UNL     1       5.480  -6.580  -6.399  0.00  0.00    -0.266 OA
ATOM     16  N   UNL     1       3.263  -6.609  -6.539  0.00  0.00    -0.229 N 
ATOM     17  N   UNL     1       2.100  -6.848  -7.276  0.00  0.00    -0.172 NA
ENDBRANCH   2  16
ENDBRANCH   1   2
BRANCH   1  18
ATOM     18  C   UNL     1       3.010  -4.099  -3.710  0.00  0.00    +0.097 C 
BRANCH  18  19
ATOM     19  C   UNL     1       2.989  -2.592  -3.702  0.00  0.00    +0.213 C 
ATOM     20  O   UNL     1       3.063  -1.979  -4.746  0.00  0.00    -0.276 OA
ATOM     21  N   UNL     1       2.890  -1.926  -2.534  0.00  0.00    -0.312 N 
ATOM     22  H   UNL     1       2.823  -2.482  -1.588  0.00  0.00    +0.149 HD
BRANCH  21  23
ATOM     23  C   UNL     1       2.870  -0.461  -2.526  0.00  0.00    +0.076 C 
ATOM     24  C   UNL     1       4.305   0.068  -2.537  0.00  0.00    +0.028 C 
BRANCH  23  25
ATOM     25  C   UNL     1       2.154   0.032  -1.268  0.00  0.00    -0.010 C 
ATOM     26  C   UNL     1       0.718  -0.497  -1.257  0.00  0.00    +0.012 C 
ATOM     27  C   UNL     1       0.002  -0.004   0.002  0.00  0.00    -0.010 C 
ATOM     28  C   UNL     1      -0.019   1.526   0.010  0.00  0.00    +0.007 C 
ATOM     29  C   UNL     1       1.417   2.055  -0.000  0.00  0.00    -0.010 C 
ATOM     30  C   UNL     1       2.133   1.562  -1.259  0.00  0.00    +0.012 C 
ATOM     31  C   UNL     1       2.157   1.548   1.239  0.00  0.00    +0.007 C 
ATOM     32  C   UNL     1       2.178   0.019   1.231  0.00  0.00    -0.010 C 
ATOM     33  C   UNL     1       0.742  -0.511   1.242  0.00  0.00    +0.007 C 
ATOM     34  C   UNL     1       2.894  -0.475  -0.028  0.00  0.00    +0.012 C 
ENDBRANCH  23  25
ENDBRANCH  21  23
ENDBRANCH  18  19
ENDBRANCH   1  18
TORSDOF 6
