REMARK  Name = ZINC02087958
REMARK  10 active torsions:
REMARK  status: ('A' for Active; 'I' for Inactive)
REMARK    1  A    between atoms: C_1  and  C_2
REMARK    2  A    between atoms: C_2  and  O_3
REMARK    3  A    between atoms: O_3  and  C_4
REMARK    4  A    between atoms: C_4  and  C_6
REMARK    5  A    between atoms: C_10  and  N_11
REMARK    6  A    between atoms: C_12  and  C_14
REMARK    7  A    between atoms: C_14  and  S_15
REMARK    8  A    between atoms: S_15  and  C_16
REMARK    9  A    between atoms: C_19  and  C_27
REMARK   10  A    between atoms: N_20  and  C_21
REMARK                            x       y       z     vdW  Elec       q    Type
REMARK                         _______ _______ _______ _____ _____    ______ ____
ROOT
ATOM      1  C   UNL     1      -5.155  -3.556  -0.411  0.00  0.00    +0.173 C 
ENDROOT
BRANCH   1   3
ATOM      2  N   UNL     1      -7.322  -4.702  -0.747  0.00  0.00    -0.279 N 
ATOM      3  C   UNL     1      -5.999  -4.801  -0.509  0.00  0.00    +0.228 C 
ATOM      4  O   UNL     1      -5.487  -5.892  -0.375  0.00  0.00    -0.275 OA
ATOM      5  H   UNL     1      -7.731  -3.829  -0.854  0.00  0.00    +0.155 HD
BRANCH   2  10
ATOM      6  C   UNL     1      -9.463  -5.949  -1.068  0.00  0.00    +0.091 A 
ATOM      7  C   UNL     1     -10.037  -7.283  -1.121  0.00  0.00    -0.021 A 
ATOM      8  C   UNL     1      -9.163  -8.293  -0.925  0.00  0.00    -0.004 A 
ATOM      9  S   UNL     1      -7.599  -7.500  -0.681  0.00  0.00    -0.077 S 
ATOM     10  C   UNL     1      -8.097  -5.847  -0.837  0.00  0.00    +0.086 A 
ATOM     11  C   UNL     1      -9.465  -9.760  -0.918  0.00  0.00    +0.043 C 
ATOM     12  C   UNL     1     -10.985  -9.940  -0.794  0.00  0.00    +0.005 C 
ATOM     13  C   UNL     1     -11.675  -9.019  -1.804  0.00  0.00    +0.005 C 
ATOM     14  C   UNL     1     -11.514  -7.560  -1.371  0.00  0.00    +0.037 C 
BRANCH   6  15
ATOM     15  C   UNL     1     -10.292  -4.756  -1.255  0.00  0.00    +0.342 C 
ATOM     16  O   UNL     1     -10.459  -4.300  -2.370  0.00  0.00    -0.245 OA
BRANCH  15  17
ATOM     17  O   UNL     1     -10.872  -4.164  -0.190  0.00  0.00    -0.461 OA
BRANCH  17  19
ATOM     18  C   UNL     1     -12.251  -2.459   0.868  0.00  0.00    +0.048 C 
ATOM     19  C   UNL     1     -11.680  -2.987  -0.450  0.00  0.00    +0.229 C 
ENDBRANCH  17  19
ENDBRANCH  15  17
ENDBRANCH   6  15
ENDBRANCH   2  10
ENDBRANCH   1   3
BRANCH   1  20
ATOM     20  S   UNL     1      -3.435  -4.016  -0.089  0.00  0.00    -0.076 S 
BRANCH  20  21
ATOM     21  C   UNL     1      -2.697  -2.417  -0.024  0.00  0.00    +0.197 A 
ATOM     22  N   UNL     1      -3.315  -1.266  -0.179  0.00  0.00    -0.122 NA
ATOM     23  N   UNL     1      -2.478  -0.297  -0.071  0.00  0.00    -0.128 NA
ATOM     24  C   UNL     1      -1.274  -0.767   0.160  0.00  0.00    +0.169 A 
ATOM     25  N   UNL     1      -1.376  -2.142   0.191  0.00  0.00    -0.270 N 
BRANCH  25  26
ATOM     26  C   UNL     1      -0.342  -3.064   0.403  0.00  0.00    +0.051 A 
ATOM     27  C   UNL     1       0.653  -3.224  -0.552  0.00  0.00    +0.026 A 
ATOM     28  C   UNL     1       1.675  -4.130  -0.338  0.00  0.00    +0.002 A 
ATOM     29  C   UNL     1       1.700  -4.884   0.821  0.00  0.00    +0.000 A 
ATOM     30  C   UNL     1       0.707  -4.730   1.771  0.00  0.00    +0.002 A 
ATOM     31  C   UNL     1      -0.313  -3.822   1.565  0.00  0.00    +0.026 A 
ENDBRANCH  25  26
BRANCH  24  32
ATOM     32  C   UNL     1      -0.041   0.026   0.345  0.00  0.00    +0.022 A 
ATOM     33  C   UNL     1       1.097  -0.538   0.934  0.00  0.00    +0.031 A 
ATOM     34  C   UNL     1       2.226   0.239   1.087  0.00  0.00    +0.111 A 
ATOM     35  N   UNL     1       2.242   1.496   0.686  0.00  0.00    -0.263 NA
ATOM     36  C   UNL     1       1.192   2.067   0.126  0.00  0.00    +0.111 A 
ATOM     37  C   UNL     1       0.022   1.364  -0.065  0.00  0.00    +0.031 A 
ENDBRANCH  24  32
ENDBRANCH  20  21
ENDBRANCH   1  20
TORSDOF 9
