REMARK  Name = ZINC65423295
REMARK  7 active torsions:
REMARK  status: ('A' for Active; 'I' for Inactive)
REMARK    1  A    between atoms: C_1  and  C_2
REMARK    2  A    between atoms: C_3  and  C_24
REMARK    3  A    between atoms: C_7  and  N_14
REMARK    4  A    between atoms: C_9  and  C_11
REMARK    5  A    between atoms: C_11  and  C_12
REMARK    6  A    between atoms: C_12  and  N_13
REMARK    7  A    between atoms: N_14  and  C_15
REMARK                            x       y       z     vdW  Elec       q    Type
REMARK                         _______ _______ _______ _____ _____    ______ ____
ROOT
ATOM      1  C   UNL     1      -0.556   1.486   0.114  0.00  0.00    +0.045 C 
ATOM      2  C   UNL     1      -0.484  -0.020   0.096  0.00  0.00    -0.028 A 
ATOM      3  C   UNL     1      -0.771  -0.699  -1.024  0.00  0.00    -0.008 A 
ATOM      4  S   UNL     1      -0.546  -2.402  -0.548  0.00  0.00    -0.074 S 
ATOM      5  C   UNL     1      -0.073  -2.156   1.143  0.00  0.00    +0.114 A 
ATOM      6  C   UNL     1      -0.097  -0.751   1.289  0.00  0.00    +0.051 A 
ATOM      7  C   UNL     1       0.255  -0.267   2.579  0.00  0.00    +0.131 A 
ATOM      8  N   UNL     1       0.577  -1.132   3.527  0.00  0.00    -0.217 NA
ATOM      9  C   UNL     1       0.583  -2.436   3.318  0.00  0.00    +0.131 A 
ATOM     10  N   UNL     1       0.256  -2.946   2.146  0.00  0.00    -0.225 NA
ATOM     11  C   UNL     1      -1.185  -0.153  -2.366  0.00  0.00    +0.052 C 
ENDROOT
BRANCH   7  12
ATOM     12  N   UNL     1       0.262   1.092   2.839  0.00  0.00    -0.327 N 
ATOM     13  H   UNL     1       0.110   1.724   2.119  0.00  0.00    +0.148 HD
BRANCH  12  14
ATOM     14  C   UNL     1       0.498   1.576   4.201  0.00  0.00    +0.058 C 
ATOM     15  C   UNL     1      -0.822   1.590   4.976  0.00  0.00    -0.056 C 
ATOM     16  N   UNL     1      -1.129   2.952   5.419  0.00  0.00    +0.381 N 
ATOM     17  C   UNL     1      -0.086   3.449   6.319  0.00  0.00    -0.078 C 
ATOM     18  C   UNL     1       1.258   3.497   5.589  0.00  0.00    -0.014 C 
ATOM     19  C   UNL     1       1.060   3.002   4.150  0.00  0.00    +0.004 C 
ATOM     20  C   UNL     1       0.025   3.907   3.469  0.00  0.00    -0.014 C 
ATOM     21  C   UNL     1      -1.285   3.845   4.268  0.00  0.00    -0.078 C 
ATOM     22  H   UNL     1      -1.999   2.934   5.929  0.00  0.00    -0.082 HD
ENDBRANCH  12  14
ENDBRANCH   7  12
BRANCH   9  23
ATOM     23  C   UNL     1       0.960  -3.362   4.445  0.00  0.00    +0.057 C 
BRANCH  23  24
ATOM     24  C   UNL     1      -0.295  -3.747   5.231  0.00  0.00    -0.079 C 
BRANCH  24  25
ATOM     25  N   UNL     1       0.073  -4.649   6.330  0.00  0.00    +0.378 N 
ATOM     26  H   UNL     1       0.501  -5.481   5.953  0.00  0.00    -0.090 HD
ATOM     27  H   UNL     1       0.724  -4.184   6.944  0.00  0.00    -0.090 HD
ATOM     28  H   UNL     1      -0.755  -4.903   6.848  0.00  0.00    -0.090 HD
ENDBRANCH  24  25
ENDBRANCH  23  24
ENDBRANCH   9  23
TORSDOF 5
