REMARK  Name = ZINC17207776
REMARK  5 active torsions:
REMARK  status: ('A' for Active; 'I' for Inactive)
REMARK    1  A    between atoms: C_3  and  C_6
REMARK    2  A    between atoms: C_6  and  N_7
REMARK    3  A    between atoms: C_9  and  N_23
REMARK    4  A    between atoms: C_10  and  N_22
REMARK    5  A    between atoms: N_14  and  C_15
REMARK                            x       y       z     vdW  Elec       q    Type
REMARK                         _______ _______ _______ _____ _____    ______ ____
ROOT
ATOM      1  N   UNL     1       4.114   0.321   1.371  0.00  0.00    -0.320 N 
ATOM      2  C   UNL     1       5.469   0.512   1.592  0.00  0.00    +0.157 A 
ATOM      3  C   UNL     1       5.942   0.790   2.872  0.00  0.00    +0.205 A 
ATOM      4  C   UNL     1       7.311   0.975   3.046  0.00  0.00    +0.154 A 
ATOM      5  N   UNL     1       8.117   0.880   1.990  0.00  0.00    -0.197 NA
ATOM      6  C   UNL     1       7.630   0.614   0.787  0.00  0.00    +0.223 A 
ATOM      7  N   UNL     1       6.335   0.427   0.585  0.00  0.00    -0.197 NA
ATOM      8  N   UNL     1       8.500   0.524  -0.287  0.00  0.00    -0.284 N 
ATOM      9  H   UNL     1       3.488   0.385   2.110  0.00  0.00    +0.148 HD
ATOM     10  H   UNL     1       8.152   0.410  -1.185  0.00  0.00    +0.155 HD
ENDROOT
BRANCH   8  11
ATOM     11  C   UNL     1       9.881   0.597  -0.076  0.00  0.00    +0.034 A 
ATOM     12  C   UNL     1      10.450  -0.023   1.029  0.00  0.00    +0.025 A 
ATOM     13  C   UNL     1      11.814   0.050   1.234  0.00  0.00    +0.022 A 
ATOM     14  C   UNL     1      12.613   0.741   0.341  0.00  0.00    +0.041 A 
ATOM     15  C   UNL     1      12.049   1.359  -0.761  0.00  0.00    +0.022 A 
ATOM     16  C   UNL     1      10.687   1.284  -0.975  0.00  0.00    +0.025 A 
ATOM     17 CL   UNL     1      14.327   0.832   0.602  0.00  0.00    -0.084 Cl
ENDBRANCH   8  11
BRANCH   4  18
ATOM     18  N   UNL     1       7.828   1.253   4.301  0.00  0.00    -0.341 N 
ATOM     19  H   UNL     1       7.235   1.321   5.066  0.00  0.00    +0.144 HD
ATOM     20  H   UNL     1       8.783   1.381   4.415  0.00  0.00    +0.144 HD
ENDBRANCH   4  18
BRANCH   3  21
ATOM     21  N   UNL     1       5.013   0.887   4.019  0.00  0.00    +0.063 N 
ATOM     22  O   UNL     1       4.748  -0.098   4.668  0.00  0.00    -0.126 OA
ATOM     23  O   UNL     1       4.518   1.952   4.308  0.00  0.00    -0.126 OA
ENDBRANCH   3  21
BRANCH   1  24
ATOM     24  C   UNL     1       3.626   0.024   0.022  0.00  0.00    +0.177 C 
BRANCH  24  27
ATOM     25  C   UNL     1      -0.052   0.252  -0.014  0.00  0.00    +0.041 A 
ATOM     26  C   UNL     1       1.227   0.845  -0.122  0.00  0.00    +0.046 A 
ATOM     27  C   UNL     1       2.128  -0.138   0.054  0.00  0.00    +0.122 A 
ATOM     28  O   UNL     1       1.467  -1.288   0.262  0.00  0.00    -0.466 OA
ATOM     29  C   UNL     1       0.144  -1.057   0.222  0.00  0.00    +0.195 A 
ENDBRANCH  24  27
ENDBRANCH   1  24
TORSDOF 5
