REMARK  Name = ZINC38806108
REMARK  11 active torsions:
REMARK  status: ('A' for Active; 'I' for Inactive)
REMARK    1  A    between atoms: C_1  and  C_2
REMARK    2  A    between atoms: C_2  and  O_3
REMARK    3  A    between atoms: O_3  and  C_4
REMARK    4  A    between atoms: C_4  and  C_6
REMARK    5  A    between atoms: C_10  and  N_11
REMARK    6  A    between atoms: C_12  and  C_14
REMARK    7  A    between atoms: C_15  and  C_16
REMARK    8  A    between atoms: C_25  and  C_31
REMARK    9  A    between atoms: C_25  and  C_32
REMARK   10  A    between atoms: C_27  and  C_29
REMARK   11  A    between atoms: C_27  and  C_30
REMARK                            x       y       z     vdW  Elec       q    Type
REMARK                         _______ _______ _______ _____ _____    ______ ____
ROOT
ATOM      1  C   UNL     1      -2.842  -2.416   0.016  0.00  0.00    +0.091 A 
ATOM      2  C   UNL     1      -3.560  -2.711  -1.204  0.00  0.00    -0.024 A 
ATOM      3  C   UNL     1      -4.792  -3.239  -1.021  0.00  0.00    -0.016 A 
ATOM      4  S   UNL     1      -4.971  -3.340   0.735  0.00  0.00    -0.079 S 
ATOM      5  C   UNL     1      -3.490  -2.706   1.212  0.00  0.00    +0.086 A 
ATOM      6  C   UNL     1      -5.757  -3.626  -2.091  0.00  0.00    -0.041 C 
ATOM      7  N   UNL     1      -5.158  -3.580  -3.424  0.00  0.00    +0.389 N 
ATOM      8  C   UNL     1      -3.703  -3.598  -3.489  0.00  0.00    -0.069 C 
ATOM      9  C   UNL     1      -3.072  -2.496  -2.629  0.00  0.00    +0.024 C 
ATOM     10  C   UNL     1      -3.149  -4.958  -3.059  0.00  0.00    -0.010 C 
ATOM     11  C   UNL     1      -3.280  -3.355  -4.950  0.00  0.00    -0.010 C 
ATOM     12  C   UNL     1      -6.299  -5.034  -1.804  0.00  0.00    -0.005 C 
ATOM     13  C   UNL     1      -6.945  -2.645  -2.050  0.00  0.00    -0.005 C 
ATOM     14  H   UNL     1      -5.515  -4.369  -3.967  0.00  0.00    -0.084 HD
ATOM     15  H   UNL     1      -5.494  -2.743  -3.903  0.00  0.00    -0.084 HD
ENDROOT
BRANCH   5  16
ATOM     16  N   UNL     1      -3.020  -2.516   2.500  0.00  0.00    -0.276 N 
ATOM     17  C   UNL     1      -3.787  -2.856   3.555  0.00  0.00    +0.241 C 
ATOM     18  O   UNL     1      -4.893  -3.331   3.375  0.00  0.00    -0.270 OA
ATOM     19  H   UNL     1      -2.139  -2.137   2.643  0.00  0.00    +0.156 HD
BRANCH  17  20
ATOM     20  C   UNL     1      -3.291  -2.654   4.915  0.00  0.00    +0.068 C 
ATOM     21  C   UNL     1      -4.059  -2.995   5.971  0.00  0.00    +0.013 C 
BRANCH  21  22
ATOM     22  C   UNL     1      -3.560  -2.793   7.339  0.00  0.00    -0.021 A 
ATOM     23  C   UNL     1      -2.290  -2.241   7.548  0.00  0.00    +0.012 A 
ATOM     24  C   UNL     1      -1.825  -2.053   8.831  0.00  0.00    +0.050 A 
ATOM     25  C   UNL     1      -2.611  -2.408   9.920  0.00  0.00    +0.166 A 
ATOM     26  C   UNL     1      -3.878  -2.959   9.718  0.00  0.00    +0.167 A 
ATOM     27  C   UNL     1      -4.354  -3.145   8.436  0.00  0.00    +0.057 A 
ATOM     28  O   UNL     1      -4.439  -3.218  10.936  0.00  0.00    -0.453 OA
ATOM     29  C   UNL     1      -3.345  -3.202  11.873  0.00  0.00    +0.466 C 
ATOM     30  O   UNL     1      -2.382  -2.324  11.261  0.00  0.00    -0.453 OA
ENDBRANCH  21  22
ENDBRANCH  17  20
ENDBRANCH   5  16
BRANCH   1  31
ATOM     31  C   UNL     1      -1.497  -1.838   0.006  0.00  0.00    +0.342 C 
ATOM     32  O   UNL     1      -0.522  -2.566  -0.007  0.00  0.00    -0.245 OA
BRANCH  31  33
ATOM     33  O   UNL     1      -1.339  -0.499   0.012  0.00  0.00    -0.461 OA
BRANCH  33  35
ATOM     34  C   UNL     1      -0.019   1.526   0.010  0.00  0.00    +0.048 C 
ATOM     35  C   UNL     1       0.002  -0.004   0.002  0.00  0.00    +0.229 C 
ENDBRANCH  33  35
ENDBRANCH  31  33
ENDBRANCH   1  31
TORSDOF 6
