REMARK  Name = ZINC33051211
REMARK  9 active torsions:
REMARK  status: ('A' for Active; 'I' for Inactive)
REMARK    1  A    between atoms: C_1  and  C_2
REMARK    2  A    between atoms: C_2  and  C_3
REMARK    3  A    between atoms: C_8  and  N_9
REMARK    4  A    between atoms: C_15  and  C_41
REMARK    5  A    between atoms: N_17  and  C_35
REMARK    6  A    between atoms: C_24  and  C_26
REMARK    7  A    between atoms: C_29  and  N_32
REMARK    8  A    between atoms: N_32  and  C_33
REMARK    9  A    between atoms: N_32  and  C_34
REMARK                            x       y       z     vdW  Elec       q    Type
REMARK                         _______ _______ _______ _____ _____    ______ ____
ROOT
ATOM      1  N   UNL     1      -0.938  11.024  -2.092  0.00  0.00    -0.269 N 
ATOM      2  C   UNL     1      -0.922   9.961  -2.920  0.00  0.00    +0.308 C 
ATOM      3  O   UNL     1      -0.852  10.128  -4.122  0.00  0.00    -0.252 OA
ATOM      4  N   UNL     1      -0.983   8.713  -2.415  0.00  0.00    -0.268 N 
ATOM      5  C   UNL     1      -1.069   8.461  -0.957  0.00  0.00    +0.151 C 
ATOM      6  C   UNL     1      -0.236   7.280  -0.552  0.00  0.00    +0.035 A 
ATOM      7  C   UNL     1       0.947   7.250   0.181  0.00  0.00    +0.067 A 
ATOM      8  N   UNL     1       1.300   5.997   0.345  0.00  0.00    -0.169 NA
ATOM      9  N   UNL     1       0.351   5.180  -0.292  0.00  0.00    -0.215 N 
ATOM     10  C   UNL     1      -0.567   5.990  -0.852  0.00  0.00    +0.146 A 
ATOM     11  N   UNL     1      -1.672   5.708  -1.663  0.00  0.00    -0.303 N 
ATOM     12  C   UNL     1      -2.647   4.779  -1.533  0.00  0.00    +0.093 A 
ATOM     13  C   UNL     1      -3.534   4.964  -2.537  0.00  0.00    +0.020 A 
ATOM     14  C   UNL     1      -3.066   6.038  -3.325  0.00  0.00    +0.025 A 
ATOM     15  C   UNL     1      -1.911   6.460  -2.786  0.00  0.00    +0.050 A 
ATOM     16  C   UNL     1      -0.968   7.515  -3.286  0.00  0.00    +0.155 C 
ATOM     17  C   UNL     1       1.692   8.452   0.702  0.00  0.00    +0.068 C 
ATOM     18  H   UNL     1      -0.937  10.873  -1.002  0.00  0.00    +0.156 HD
ENDROOT
BRANCH   1  24
ATOM     19  C   UNL     1      -1.644  13.330  -1.958  0.00  0.00    -0.026 A 
ATOM     20  C   UNL     1      -1.659  14.609  -2.480  0.00  0.00    +0.005 A 
ATOM     21  C   UNL     1      -0.989  14.885  -3.658  0.00  0.00    +0.000 A 
ATOM     22  C   UNL     1      -0.302  13.882  -4.317  0.00  0.00    +0.002 A 
ATOM     23  C   UNL     1      -0.280  12.602  -3.798  0.00  0.00    +0.023 A 
ATOM     24  C   UNL     1      -0.955  12.321  -2.618  0.00  0.00    +0.038 A 
BRANCH  19  26
ATOM     25  C   UNL     1      -1.399  13.129   0.501  0.00  0.00    +0.009 C 
ATOM     26  C   UNL     1      -2.373  13.031  -0.674  0.00  0.00    +0.033 C 
ENDBRANCH  19  26
ENDBRANCH   1  24
BRANCH  16  27
ATOM     27  C   UNL     1       0.429   6.951  -3.321  0.00  0.00    -0.021 A 
ATOM     28  C   UNL     1       1.514   7.781  -3.106  0.00  0.00    +0.007 A 
ATOM     29  C   UNL     1       2.795   7.266  -3.132  0.00  0.00    +0.023 A 
ATOM     30  C   UNL     1       2.994   5.914  -3.385  0.00  0.00    +0.029 A 
ATOM     31  C   UNL     1       1.902   5.084  -3.606  0.00  0.00    +0.023 A 
ATOM     32  C   UNL     1       0.623   5.605  -3.573  0.00  0.00    +0.007 A 
BRANCH  30  33
ATOM     33  N   UNL     1       4.288   5.391  -3.417  0.00  0.00    -0.336 N 
ATOM     34  C   UNL     1       4.496   3.966  -3.684  0.00  0.00    +0.129 C 
ATOM     35  C   UNL     1       5.439   6.268  -3.184  0.00  0.00    +0.129 C 
ENDBRANCH  30  33
ENDBRANCH  16  27
BRANCH   9  36
ATOM     36  C   UNL     1       0.356   3.779  -0.332  0.00  0.00    +0.068 A 
ATOM     37  C   UNL     1      -0.090   3.114  -1.467  0.00  0.00    +0.028 A 
ATOM     38  C   UNL     1      -0.084   1.734  -1.504  0.00  0.00    +0.002 A 
ATOM     39  C   UNL     1       0.367   1.013  -0.412  0.00  0.00    +0.000 A 
ATOM     40  C   UNL     1       0.806   1.673   0.721  0.00  0.00    +0.002 A 
ATOM     41  C   UNL     1       0.807   3.053   0.762  0.00  0.00    +0.028 A 
ENDBRANCH   9  36
TORSDOF 5
