REMARK  Name = ZINC03843122
REMARK  2 active torsions:
REMARK  status: ('A' for Active; 'I' for Inactive)
REMARK    1  A    between atoms: C_4  and  C_7
REMARK    2  A    between atoms: C_13  and  C_16
REMARK                            x       y       z     vdW  Elec       q    Type
REMARK                         _______ _______ _______ _____ _____    ______ ____
ROOT
ATOM      1  C   UNL     1      -0.988   2.354   0.030  0.00  0.00    +0.182 A 
ATOM      2  N   UNL     1      -0.371   3.509   0.025  0.00  0.00    -0.127 NA
ATOM      3  N   UNL     1       0.902   3.326   0.012  0.00  0.00    -0.120 NA
ATOM      4  C   UNL     1       1.159   2.050   0.002  0.00  0.00    +0.211 A 
ATOM      5  N   UNL     1      -0.016   1.354   0.009  0.00  0.00    -0.220 N 
ATOM      6  N   UNL     1       0.002  -0.004   0.002  0.00  0.00    -0.263 N 
ATOM      7  C   UNL     1       1.324  -0.664  -0.014  0.00  0.00    +0.183 C 
ATOM      8  S   UNL     1       2.427   0.803  -0.017  0.00  0.00    -0.056 S 
ATOM      9  H   UNL     1      -0.580  -0.378   0.737  0.00  0.00    +0.168 HD
ENDROOT
BRANCH   7  10
ATOM     10  C   UNL     1       1.531  -1.501   1.222  0.00  0.00    -0.016 A 
ATOM     11  C   UNL     1       0.929  -1.137   2.412  0.00  0.00    +0.008 A 
ATOM     12  C   UNL     1       1.114  -1.907   3.544  0.00  0.00    +0.020 A 
ATOM     13  C   UNL     1       1.910  -3.037   3.489  0.00  0.00    +0.041 A 
ATOM     14  C   UNL     1       2.516  -3.398   2.299  0.00  0.00    +0.020 A 
ATOM     15  C   UNL     1       2.326  -2.630   1.166  0.00  0.00    +0.008 A 
ATOM     16 CL   UNL     1       2.149  -4.001   4.913  0.00  0.00    -0.084 Cl
ENDBRANCH   7  10
BRANCH   1  20
ATOM     17  C   UNL     1      -5.193   1.762   0.089  0.00  0.00    +0.000 A 
ATOM     18  C   UNL     1      -4.668   3.004   0.399  0.00  0.00    +0.001 A 
ATOM     19  C   UNL     1      -3.303   3.203   0.381  0.00  0.00    +0.011 A 
ATOM     20  C   UNL     1      -2.451   2.148   0.050  0.00  0.00    +0.021 A 
ATOM     21  C   UNL     1      -2.988   0.899  -0.267  0.00  0.00    +0.011 A 
ATOM     22  C   UNL     1      -4.354   0.712  -0.240  0.00  0.00    +0.001 A 
ENDBRANCH   1  20
TORSDOF 2
