REMARK  Name = ZINC01763467
REMARK  6 active torsions:
REMARK  status: ('A' for Active; 'I' for Inactive)
REMARK    1  A    between atoms: C_2  and  C_24
REMARK    2  A    between atoms: N_7  and  C_10
REMARK    3  A    between atoms: C_10  and  C_11
REMARK    4  A    between atoms: C_11  and  C_12
REMARK    5  A    between atoms: C_12  and  N_13
REMARK    6  A    between atoms: C_17  and  C_22
REMARK                            x       y       z     vdW  Elec       q    Type
REMARK                         _______ _______ _______ _____ _____    ______ ____
ROOT
ATOM      1  C   UNK     1      -2.882   0.875   1.462  0.00  0.00    +0.044 C 
ENDROOT
BRANCH   1   2
ATOM      2  C   UNK     1      -2.449   1.142   0.019  0.00  0.00    +0.132 C 
BRANCH   2   9
ATOM      3  C   UNK     1       1.239   1.977   0.001  0.00  0.00    +0.103 A 
ATOM      4  C   UNK     1       1.169   3.333   0.009  0.00  0.00    +0.137 A 
ATOM      5  N   UNK     1      -0.065   3.947   0.024  0.00  0.00    -0.302 N 
ATOM      6  H   UNK     1      -0.116   4.916   0.030  0.00  0.00    +0.171 HD
ATOM      7  C   UNK     1      -1.200   3.228   0.031  0.00  0.00    +0.330 A 
ATOM      8  O   UNK     1      -2.268   3.808   0.045  0.00  0.00    -0.246 OA
ATOM      9  N   UNK     1      -1.185   1.883   0.018  0.00  0.00    -0.261 N 
ATOM     10  C   UNK     1      -0.014   1.213   0.009  0.00  0.00    +0.257 A 
ATOM     11  O   UNK     1       0.002  -0.004   0.002  0.00  0.00    -0.267 OA
BRANCH   4  12
ATOM     12  C   UNK     1       2.408   4.147   0.001  0.00  0.00    +0.403 C 
ATOM     13  O   UNK     1       3.493   3.601  -0.013  0.00  0.00    -0.239 OA
ATOM     14  O   UNK     1       2.332   5.491   0.009  0.00  0.00    -0.239 OA
ENDBRANCH   4  12
ENDBRANCH   2   9
ENDBRANCH   1   2
BRANCH   1  15
ATOM     15  C   UNK     1      -4.202   0.101   1.464  0.00  0.00    +0.132 C 
BRANCH  15  16
ATOM     16  N   UNK     1      -4.617  -0.155   2.845  0.00  0.00    -0.261 N 
ATOM     17  C   UNK     1      -4.218  -1.284   3.467  0.00  0.00    +0.257 A 
ATOM     18  O   UNK     1      -3.517  -2.094   2.890  0.00  0.00    -0.267 OA
ATOM     19  C   UNK     1      -4.642  -1.516   4.853  0.00  0.00    +0.103 A 
ATOM     20  C   UNK     1      -5.429  -0.585   5.453  0.00  0.00    +0.137 A 
ATOM     21  N   UNK     1      -5.800   0.541   4.750  0.00  0.00    -0.302 N 
ATOM     22  H   UNK     1      -6.363   1.206   5.178  0.00  0.00    +0.171 HD
ATOM     23  C   UNK     1      -5.396   0.735   3.484  0.00  0.00    +0.330 A 
ATOM     24  O   UNK     1      -5.745   1.743   2.899  0.00  0.00    -0.246 OA
BRANCH  20  25
ATOM     25  C   UNK     1      -5.887  -0.779   6.849  0.00  0.00    +0.403 C 
ATOM     26  O   UNK     1      -6.591   0.056   7.379  0.00  0.00    -0.239 OA
ATOM     27  O   UNK     1      -5.521  -1.882   7.530  0.00  0.00    -0.239 OA
ENDBRANCH  20  25
ENDBRANCH  15  16
ENDBRANCH   1  15
TORSDOF 6
