REMARK  Name = ZINC35231829
REMARK  9 active torsions:
REMARK  status: ('A' for Active; 'I' for Inactive)
REMARK    1  A    between atoms: C_1  and  C_2
REMARK    2  A    between atoms: C_2  and  C_3
REMARK    3  A    between atoms: C_3  and  C_4
REMARK    4  A    between atoms: C_4  and  N_5
REMARK    5  A    between atoms: N_5  and  C_6
REMARK    6  A    between atoms: C_6  and  C_7
REMARK    7  A    between atoms: C_21  and  C_23
REMARK    8  A    between atoms: N_32  and  C_33
REMARK    9  A    between atoms: C_36  and  C_39
REMARK                            x       y       z     vdW  Elec       q    Type
REMARK                         _______ _______ _______ _____ _____    ______ ____
ROOT
ATOM      1  C   UNL     1       0.415  -3.768   4.061  0.00  0.00    +0.238 C 
ATOM      2  O   UNL     1       0.586  -4.622   3.216  0.00  0.00    -0.273 OA
ATOM      3  N   UNL     1      -0.183  -4.085   5.226  0.00  0.00    -0.255 N 
ATOM      4  C   UNL     1      -0.517  -5.418   5.502  0.00  0.00    +0.061 A 
ATOM      5  C   UNL     1      -0.819  -6.295   4.473  0.00  0.00    +0.025 A 
ATOM      6  C   UNL     1      -1.137  -7.610   4.758  0.00  0.00    +0.002 A 
ATOM      7  C   UNL     1      -1.156  -8.058   6.066  0.00  0.00    +0.002 A 
ATOM      8  C   UNL     1      -0.862  -7.189   7.102  0.00  0.00    +0.028 A 
ATOM      9  C   UNL     1      -0.548  -5.873   6.824  0.00  0.00    +0.068 A 
ATOM     10  N   UNL     1      -0.268  -4.948   7.841  0.00  0.00    -0.316 N 
ATOM     11  C   UNL     1      -0.005  -5.147   9.155  0.00  0.00    +0.092 A 
ATOM     12  C   UNL     1       0.209  -3.942   9.729  0.00  0.00    +0.020 A 
ATOM     13  C   UNL     1       0.068  -2.960   8.724  0.00  0.00    +0.025 A 
ATOM     14  C   UNL     1      -0.224  -3.595   7.584  0.00  0.00    +0.049 A 
ATOM     15  C   UNL     1      -0.478  -3.031   6.211  0.00  0.00    +0.159 C 
ENDROOT
BRANCH  15  16
ATOM     16  C   UNL     1      -1.921  -2.613   6.094  0.00  0.00    -0.021 A 
ATOM     17  C   UNL     1      -2.901  -3.565   5.885  0.00  0.00    +0.008 A 
ATOM     18  C   UNL     1      -4.225  -3.183   5.778  0.00  0.00    +0.038 A 
ATOM     19  C   UNL     1      -4.570  -1.846   5.881  0.00  0.00    +0.123 A 
ATOM     20  C   UNL     1      -3.587  -0.893   6.091  0.00  0.00    +0.038 A 
ATOM     21  C   UNL     1      -2.265  -1.278   6.203  0.00  0.00    +0.008 A 
ATOM     22  F   UNL     1      -5.864  -1.472   5.777  0.00  0.00    -0.205 F 
ENDBRANCH  15  16
BRANCH   1  23
ATOM     23  C   UNL     1       0.872  -2.355   3.807  0.00  0.00    +0.205 C 
BRANCH  23  24
ATOM     24  N   UNL     1       1.431  -2.257   2.457  0.00  0.00    -0.277 N 
ATOM     25  C   UNL     1       2.744  -2.478   2.253  0.00  0.00    +0.307 C 
ATOM     26  O   UNL     1       3.466  -2.759   3.191  0.00  0.00    -0.252 OA
ATOM     27  N   UNL     1       3.259  -2.388   1.011  0.00  0.00    -0.269 N 
ATOM     28  H   UNL     1       2.701  -2.090   0.275  0.00  0.00    +0.156 HD
BRANCH  27  29
ATOM     29  C   UNL     1       4.598  -2.723   0.781  0.00  0.00    +0.035 A 
ATOM     30  C   UNL     1       5.330  -2.045  -0.184  0.00  0.00    +0.023 A 
ATOM     31  C   UNL     1       6.651  -2.379  -0.408  0.00  0.00    +0.005 A 
ATOM     32  C   UNL     1       7.245  -3.387   0.329  0.00  0.00    -0.050 A 
ATOM     33  C   UNL     1       6.519  -4.064   1.291  0.00  0.00    +0.005 A 
ATOM     34  C   UNL     1       5.199  -3.732   1.523  0.00  0.00    +0.023 A 
ATOM     35  C   UNL     1       8.688  -3.748   0.082  0.00  0.00    +0.044 C 
ENDBRANCH  27  29
BRANCH  24  36
ATOM     36  C   UNL     1       0.561  -1.918   1.327  0.00  0.00    +0.110 C 
BRANCH  36  37
ATOM     37  C   UNL     1       0.528  -0.399   1.147  0.00  0.00    +0.019 C 
BRANCH  37  39
ATOM     38  C   UNL     1      -0.414   1.473  -0.213  0.00  0.00    +0.004 C 
ATOM     39  C   UNL     1      -0.380  -0.046  -0.033  0.00  0.00    -0.002 C 
ENDBRANCH  37  39
ENDBRANCH  36  37
ENDBRANCH  24  36
ENDBRANCH  23  24
ENDBRANCH   1  23
TORSDOF 7
