REMARK  Name = ZINC45809950
REMARK  8 active torsions:
REMARK  status: ('A' for Active; 'I' for Inactive)
REMARK    1  A    between atoms: C_1  and  C_2
REMARK    2  A    between atoms: C_4  and  N_24
REMARK    3  A    between atoms: C_6  and  C_7
REMARK    4  A    between atoms: N_9  and  C_10
REMARK    5  A    between atoms: C_10  and  C_11
REMARK    6  A    between atoms: C_11  and  C_13
REMARK    7  A    between atoms: C_11  and  N_19
REMARK    8  A    between atoms: C_25  and  C_27
REMARK                            x       y       z     vdW  Elec       q    Type
REMARK                         _______ _______ _______ _____ _____    ______ ____
ROOT
ATOM      1  C   UNL     1      -0.184  -0.283   2.559  0.00  0.00    +0.251 C 
ATOM      2  O   UNL     1      -0.439   0.884   2.794  0.00  0.00    -0.270 OA
ATOM      3  N   UNL     1      -0.017  -1.153   3.574  0.00  0.00    -0.312 N 
ATOM      4  H   UNL     1       0.186  -2.083   3.387  0.00  0.00    +0.149 HD
ENDROOT
BRANCH   1  10
ATOM      5  C   UNL     1      -0.511   1.461   0.006  0.00  0.00    +0.045 C 
ATOM      6  C   UNL     1      -0.194  -0.012   0.002  0.00  0.00    -0.029 A 
ATOM      7  C   UNL     1      -0.015  -0.714  -1.162  0.00  0.00    +0.035 A 
ATOM      8  C   UNL     1       0.272  -2.057  -1.084  0.00  0.00    +0.073 A 
ATOM      9  S   UNL     1       0.300  -2.375   0.565  0.00  0.00    -0.069 S 
ATOM     10  C   UNL     1      -0.060  -0.740   1.176  0.00  0.00    +0.078 A 
BRANCH   8  11
ATOM     11  N   UNL     1       0.488  -2.946  -2.129  0.00  0.00    -0.273 N 
ATOM     12  C   UNL     1       0.760  -4.240  -1.867  0.00  0.00    +0.284 C 
ATOM     13  O   UNL     1       0.815  -4.629  -0.716  0.00  0.00    -0.266 OA
ATOM     14  H   UNL     1       0.444  -2.635  -3.047  0.00  0.00    +0.156 HD
BRANCH  12  15
ATOM     15  C   UNL     1       0.988  -5.178  -2.970  0.00  0.00    +0.189 A 
ATOM     16  C   UNL     1       1.266  -6.510  -2.846  0.00  0.00    +0.054 A 
ATOM     17  C   UNL     1       1.407  -7.015  -4.148  0.00  0.00    +0.042 A 
ATOM     18  C   UNL     1       1.213  -5.983  -4.999  0.00  0.00    +0.196 A 
ATOM     19  O   UNL     1       0.956  -4.879  -4.285  0.00  0.00    -0.458 OA
ENDBRANCH  12  15
ENDBRANCH   8  11
ENDBRANCH   1  10
BRANCH   3  20
ATOM     20  C   UNL     1      -0.141  -0.695   4.960  0.00  0.00    +0.094 C 
BRANCH  20  21
ATOM     21  C   UNL     1      -0.041  -1.895   5.904  0.00  0.00    -0.020 C 
BRANCH  21  22
ATOM     22  C   UNL     1      -1.223  -2.804   5.689  0.00  0.00    -0.059 A 
ATOM     23  C   UNL     1      -2.445  -2.496   6.257  0.00  0.00    +0.002 A 
ATOM     24  C   UNL     1      -3.529  -3.331   6.059  0.00  0.00    +0.000 A 
ATOM     25  C   UNL     1      -3.392  -4.473   5.293  0.00  0.00    +0.000 A 
ATOM     26  C   UNL     1      -2.170  -4.780   4.724  0.00  0.00    +0.000 A 
ATOM     27  C   UNL     1      -1.087  -3.944   4.918  0.00  0.00    +0.002 A 
ENDBRANCH  21  22
BRANCH  21  28
ATOM     28  N   UNL     1      -0.033  -1.423   7.296  0.00  0.00    +0.385 N 
ATOM     29  C   UNL     1       0.079  -2.575   8.226  0.00  0.00    -0.078 C 
ATOM     30  C   UNL     1       0.631  -1.931   9.523  0.00  0.00    -0.020 C 
ATOM     31  C   UNL     1       1.617  -0.868   8.988  0.00  0.00    -0.020 C 
ATOM     32  C   UNL     1       1.161  -0.587   7.544  0.00  0.00    -0.078 C 
ATOM     33  H   UNL     1      -0.873  -0.898   7.490  0.00  0.00    -0.081 HD
ENDBRANCH  21  28
ENDBRANCH  20  21
ENDBRANCH   3  20
TORSDOF 7
