REMARK  Name = ZINC12158584
REMARK  10 active torsions:
REMARK  status: ('A' for Active; 'I' for Inactive)
REMARK    1  A    between atoms: C_1  and  C_2
REMARK    2  A    between atoms: C_2  and  C_3
REMARK    3  A    between atoms: C_2  and  C_4
REMARK    4  A    between atoms: C_4  and  C_5
REMARK    5  A    between atoms: C_5  and  N_6
REMARK    6  A    between atoms: C_17  and  N_62
REMARK    7  A    between atoms: C_21  and  C_22
REMARK    8  A    between atoms: C_21  and  N_62
REMARK    9  A    between atoms: C_25  and  C_27
REMARK   10  A    between atoms: C_27  and  C_28
REMARK                            x       y       z     vdW  Elec       q    Type
REMARK                         _______ _______ _______ _____ _____    ______ ____
ROOT
ATOM      1  N   UNL     1       7.510   3.264   1.465  0.00  0.00    -0.299 N 
ATOM      2  C   UNL     1       7.381   4.576   1.778  0.00  0.00    +0.203 A 
ATOM      3  N   UNL     1       6.221   5.194   1.808  0.00  0.00    -0.230 NA
ATOM      4  C   UNL     1       5.139   4.479   1.516  0.00  0.00    +0.116 A 
ATOM      5  C   UNL     1       5.170   3.108   1.178  0.00  0.00    +0.076 A 
ATOM      6  C   UNL     1       6.456   2.471   1.156  0.00  0.00    +0.262 A 
ATOM      7  O   UNL     1       6.592   1.292   0.878  0.00  0.00    -0.267 OA
ATOM      8  C   UNL     1       3.889   2.490   0.889  0.00  0.00    -0.023 A 
ATOM      9  C   UNL     1       2.798   3.288   0.971  0.00  0.00    -0.006 A 
ATOM     10  S   UNL     1       3.423   4.883   1.434  0.00  0.00    -0.073 S 
ATOM     11  C   UNL     1       1.372   2.903   0.723  0.00  0.00    +0.027 C 
ATOM     12  C   UNL     1       1.353   1.550  -0.003  0.00  0.00    -0.066 C 
ATOM     13  C   UNL     1       2.295   0.589   0.727  0.00  0.00    -0.011 C 
ATOM     14  C   UNL     1       3.746   1.019   0.509  0.00  0.00    +0.035 C 
ENDROOT
BRANCH  12  15
ATOM     15  N   UNL     1      -0.015   0.998   0.015  0.00  0.00    +0.385 N 
ATOM     16  H   UNL     1      -0.475   1.261   0.894  0.00  0.00    -0.085 HD
ATOM     17  H   UNL     1       0.032  -0.025  -0.054  0.00  0.00    -0.085 HD
BRANCH  15  18
ATOM     18  C   UNL     1      -0.795   1.527  -1.120  0.00  0.00    -0.025 C 
BRANCH  18  19
ATOM     19  C   UNL     1      -2.186   0.947  -1.076  0.00  0.00    +0.032 A 
ATOM     20  C   UNL     1      -3.203   1.623  -0.483  0.00  0.00    +0.068 A 
ATOM     21  S   UNL     1      -4.551   0.477  -0.738  0.00  0.00    -0.080 S 
ATOM     22  C   UNL     1      -3.650  -0.745  -1.582  0.00  0.00    +0.083 A 
ATOM     23  N   UNL     1      -2.445  -0.225  -1.617  0.00  0.00    -0.251 NA
BRANCH  22  24
ATOM     24  C   UNL     1      -4.130  -2.061  -2.136  0.00  0.00    +0.098 C 
BRANCH  24  25
ATOM     25  C   UNL     1      -3.989  -3.131  -1.085  0.00  0.00    -0.041 A 
ATOM     26  C   UNL     1      -2.820  -3.864  -0.997  0.00  0.00    +0.004 A 
ATOM     27  C   UNL     1      -2.689  -4.842  -0.029  0.00  0.00    +0.000 A 
ATOM     28  C   UNL     1      -3.730  -5.094   0.845  0.00  0.00    +0.000 A 
ATOM     29  C   UNL     1      -4.900  -4.364   0.754  0.00  0.00    +0.000 A 
ATOM     30  C   UNL     1      -5.030  -3.383  -0.211  0.00  0.00    +0.004 A 
ENDBRANCH  24  25
ENDBRANCH  22  24
ENDBRANCH  18  19
ENDBRANCH  15  18
ENDBRANCH  12  15
BRANCH   1  31
ATOM     31  C   UNL     1       8.851   2.675   1.462  0.00  0.00    +0.126 C 
BRANCH  31  32
ATOM     32  C   UNL     1       9.170   2.125   2.853  0.00  0.00    +0.024 C 
BRANCH  32  34
ATOM     33  C   UNL     1      11.609   2.607   2.601  0.00  0.00    +0.007 C 
ATOM     34  C   UNL     1      10.571   1.510   2.850  0.00  0.00    -0.016 C 
ATOM     35  C   UNL     1      10.842   0.850   4.203  0.00  0.00    +0.007 C 
ENDBRANCH  32  34
ENDBRANCH  31  32
ENDBRANCH   1  31
TORSDOF 8
