REMARK  Name = ZINC36355052
REMARK  6 active torsions:
REMARK  status: ('A' for Active; 'I' for Inactive)
REMARK    1  A    between atoms: C_4  and  C_7
REMARK    2  A    between atoms: C_7  and  N_8
REMARK    3  A    between atoms: C_10  and  C_20
REMARK    4  A    between atoms: C_14  and  C_17
REMARK    5  A    between atoms: C_20  and  C_22
REMARK    6  A    between atoms: C_20  and  N_25
REMARK                            x       y       z     vdW  Elec       q    Type
REMARK                         _______ _______ _______ _____ _____    ______ ____
ROOT
ATOM      1  N   UNL     1       4.152  -0.952   1.338  0.00  0.00    -0.342 N 
ATOM      2  C   UNL     1       5.006  -0.154   2.042  0.00  0.00    +0.089 A 
ATOM      3  C   UNL     1       5.203  -0.662   3.272  0.00  0.00    -0.025 A 
ATOM      4  C   UNL     1       4.409  -1.887   3.361  0.00  0.00    +0.002 A 
ATOM      5  C   UNL     1       3.761  -2.021   2.116  0.00  0.00    +0.050 A 
ATOM      6  C   UNL     1       2.921  -3.101   1.897  0.00  0.00    +0.041 A 
ATOM      7  C   UNL     1       2.724  -4.039   2.911  0.00  0.00    +0.065 A 
ATOM      8  C   UNL     1       3.372  -3.892   4.147  0.00  0.00    +0.016 A 
ATOM      9  C   UNL     1       4.205  -2.838   4.367  0.00  0.00    +0.011 A 
ENDROOT
BRANCH   7  10
ATOM     10  C   UNL     1       1.833  -5.188   2.682  0.00  0.00    +0.387 C 
ATOM     11  O   UNL     1       1.266  -5.319   1.606  0.00  0.00    -0.241 OA
ATOM     12  O   UNL     1       1.658  -6.013   3.569  0.00  0.00    -0.241 OA
ENDBRANCH   7  10
BRANCH   1  13
ATOM     13  C   UNL     1       3.711  -0.707  -0.038  0.00  0.00    +0.157 C 
BRANCH  13  17
ATOM     14  C   UNL     1      -0.017   1.378   0.010  0.00  0.00    +0.000 A 
ATOM     15  C   UNL     1       1.171   2.086   0.002  0.00  0.00    +0.000 A 
ATOM     16  C   UNL     1       2.377   1.411  -0.013  0.00  0.00    +0.005 A 
ATOM     17  C   UNL     1       2.396   0.029  -0.020  0.00  0.00    -0.028 A 
ATOM     18  C   UNL     1       1.208  -0.679  -0.012  0.00  0.00    +0.005 A 
ATOM     19  C   UNL     1       0.002  -0.004   0.002  0.00  0.00    +0.000 A 
ENDBRANCH  13  17
ENDBRANCH   1  13
BRANCH   3  20
ATOM     20  C   UNL     1       6.077  -0.080   4.353  0.00  0.00    +0.080 C 
BRANCH  20  21
ATOM     21  N   UNL     1       6.216   1.367   4.143  0.00  0.00    +0.393 N 
ATOM     22  C   UNL     1       7.167   1.885   5.124  0.00  0.00    -0.076 C 
ATOM     23  C   UNL     1       7.871   3.093   4.547  0.00  0.00    +0.000 C 
ATOM     24  C   UNL     1       7.125   4.372   4.970  0.00  0.00    +0.106 C 
ATOM     25  N   UNL     1       5.662   4.174   4.923  0.00  0.00    -0.301 N 
ATOM     26  C   UNL     1       5.012   3.455   3.847  0.00  0.00    +0.089 C 
ATOM     27  C   UNL     1       4.930   1.950   4.195  0.00  0.00    -0.058 C 
ATOM     28  C   UNL     1       4.886   4.693   5.945  0.00  0.00    +0.218 A 
ATOM     29  N   UNL     1       3.573   4.515   5.913  0.00  0.00    -0.223 NA
ATOM     30  C   UNL     1       2.802   4.997   6.874  0.00  0.00    +0.116 A 
ATOM     31  C   UNL     1       3.383   5.696   7.920  0.00  0.00    +0.039 A 
ATOM     32  C   UNL     1       4.759   5.864   7.922  0.00  0.00    +0.116 A 
ATOM     33  N   UNL     1       5.473   5.351   6.933  0.00  0.00    -0.223 NA
ATOM     34  H   UNL     1       6.598   1.519   3.222  0.00  0.00    -0.080 HD
ENDBRANCH  20  21
BRANCH  20  35
ATOM     35  C   UNL     1       7.436  -0.728   4.303  0.00  0.00    +0.347 C 
ATOM     36  O   UNL     1       8.317  -0.244   3.613  0.00  0.00    -0.248 OA
ATOM     37  O   UNL     1       7.655  -1.736   4.952  0.00  0.00    -0.248 OA
ENDBRANCH  20  35
ENDBRANCH   3  20
TORSDOF 6
