REMARK  Name = ZINC45772354
REMARK  9 active torsions:
REMARK  status: ('A' for Active; 'I' for Inactive)
REMARK    1  A    between atoms: C_1  and  C_2
REMARK    2  A    between atoms: C_3  and  C_12
REMARK    3  A    between atoms: C_5  and  C_7
REMARK    4  A    between atoms: C_12  and  C_13
REMARK    5  A    between atoms: N_15  and  N_16
REMARK    6  A    between atoms: C_17  and  C_19
REMARK    7  A    between atoms: C_19  and  C_21
REMARK    8  A    between atoms: C_19  and  O_22
REMARK    9  A    between atoms: O_22  and  C_23
REMARK                            x       y       z     vdW  Elec       q    Type
REMARK                         _______ _______ _______ _____ _____    ______ ____
ROOT
ATOM      1  N   UNL     1      -4.832   0.035  -2.954  0.00  0.00    -0.231 N 
ATOM      2  C   UNL     1      -6.086   0.457  -3.212  0.00  0.00    +0.270 C 
ATOM      3  O   UNL     1      -6.901   0.523  -2.315  0.00  0.00    -0.270 OA
ATOM      4  H   UNL     1      -4.181  -0.017  -3.671  0.00  0.00    +0.173 HD
ENDROOT
BRANCH   1   7
ATOM      5  C   UNL     1      -3.216  -0.748  -1.391  0.00  0.00    +0.235 C 
ATOM      6  O   UNL     1      -2.402  -0.814  -2.288  0.00  0.00    -0.274 OA
ATOM      7  N   UNL     1      -4.470  -0.327  -1.650  0.00  0.00    -0.234 N 
ATOM      8  H   UNL     1      -5.121  -0.274  -0.933  0.00  0.00    +0.173 HD
BRANCH   5   9
ATOM      9  C   UNL     1      -2.826  -1.138   0.011  0.00  0.00    +0.156 C 
BRANCH   9  12
ATOM     10  C   UNL     1      -0.356   0.714   0.498  0.00  0.00    +0.088 C 
ATOM     11  C   UNL     1      -0.320  -0.771   0.239  0.00  0.00    +0.126 A 
ATOM     12  C   UNL     1      -1.382  -1.569   0.029  0.00  0.00    +0.092 A 
ATOM     13  N   UNL     1      -0.928  -2.817  -0.161  0.00  0.00    -0.213 NA
ATOM     14  C   UNL     1       0.384  -2.805  -0.073  0.00  0.00    +0.234 A 
ATOM     15  O   UNL     1       0.783  -1.543   0.169  0.00  0.00    -0.440 OA
BRANCH  14  16
ATOM     16  C   UNL     1       1.266  -3.972  -0.221  0.00  0.00    +0.074 A 
ATOM     17  C   UNL     1       2.645  -4.038  -0.137  0.00  0.00    +0.021 A 
ATOM     18  C   UNL     1       3.253  -5.260  -0.313  0.00  0.00    +0.008 A 
ATOM     19  C   UNL     1       2.487  -6.354  -0.563  0.00  0.00    +0.046 A 
ATOM     20  S   UNL     1       0.837  -5.673  -0.547  0.00  0.00    -0.092 S 
ENDBRANCH  14  16
ENDBRANCH   9  12
ENDBRANCH   5   9
ENDBRANCH   1   7
BRANCH   2  21
ATOM     21  C   UNL     1      -6.476   0.847  -4.614  0.00  0.00    +0.257 C 
ATOM     22  C   UNL     1      -6.410  -0.383  -5.522  0.00  0.00    +0.062 C 
BRANCH  21  23
ATOM     23  O   UNL     1      -7.808   1.365  -4.612  0.00  0.00    -0.480 OA
BRANCH  23  24
ATOM     24  C   UNL     1      -8.141   2.215  -5.618  0.00  0.00    +0.122 A 
ATOM     25  C   UNL     1      -7.231   2.448  -6.654  0.00  0.00    +0.046 A 
ATOM     26  C   UNL     1      -7.536   3.293  -7.675  0.00  0.00    +0.012 A 
ATOM     27  C   UNL     1      -8.781   3.945  -7.693  0.00  0.00    -0.018 A 
ATOM     28  C   UNL     1      -9.129   4.824  -8.732  0.00  0.00    +0.008 A 
ATOM     29  C   UNL     1     -10.343   5.438  -8.718  0.00  0.00    +0.001 A 
ATOM     30  C   UNL     1     -11.252   5.208  -7.687  0.00  0.00    +0.001 A 
ATOM     31  C   UNL     1     -10.950   4.363  -6.663  0.00  0.00    +0.008 A 
ATOM     32  C   UNL     1      -9.705   3.711  -6.644  0.00  0.00    -0.014 A 
ATOM     33  C   UNL     1      -9.362   2.828  -5.607  0.00  0.00    +0.054 A 
ENDBRANCH  23  24
ENDBRANCH  21  23
ENDBRANCH   2  21
TORSDOF 7
