REMARK  Name = ZINC39865648
REMARK  5 active torsions:
REMARK  status: ('A' for Active; 'I' for Inactive)
REMARK    1  A    between atoms: C_1  and  C_2
REMARK    2  A    between atoms: C_5  and  N_7
REMARK    3  A    between atoms: N_9  and  C_23
REMARK    4  A    between atoms: C_13  and  C_14
REMARK    5  A    between atoms: C_13  and  C_15
REMARK                            x       y       z     vdW  Elec       q    Type
REMARK                         _______ _______ _______ _____ _____    ______ ____
ROOT
ATOM      1  N   UNL     1      -0.007  -2.843   2.212  0.00  0.00    -0.199 NA
ATOM      2  C   UNL     1      -0.059  -4.145   2.018  0.00  0.00    +0.171 C 
ATOM      3  N   UNL     1      -0.038  -4.833   0.826  0.00  0.00    -0.243 N 
ATOM      4  C   UNL     1      -0.099  -6.154   0.809  0.00  0.00    +0.260 C 
ATOM      5  O   UNL     1      -0.081  -6.778  -0.236  0.00  0.00    -0.269 OA
ATOM      6  C   UNL     1      -0.189  -6.837   2.115  0.00  0.00    +0.081 C 
ATOM      7  C   UNL     1      -0.263  -8.163   2.389  0.00  0.00    -0.024 C 
ATOM      8  C   UNL     1      -0.259  -9.167   1.266  0.00  0.00    +0.045 C 
ATOM      9  S   UNL     1      -0.166  -5.446   3.236  0.00  0.00    -0.048 S 
ENDROOT
BRANCH   7  10
ATOM     10  C   UNL     1      -0.346  -8.621   3.783  0.00  0.00    -0.021 A 
ATOM     11  C   UNL     1       0.721  -8.401   4.661  0.00  0.00    +0.011 A 
ATOM     12  C   UNL     1       0.636  -8.833   5.966  0.00  0.00    +0.039 A 
ATOM     13  C   UNL     1      -0.504  -9.485   6.411  0.00  0.00    +0.123 A 
ATOM     14  C   UNL     1      -1.566  -9.707   5.547  0.00  0.00    +0.039 A 
ATOM     15  C   UNL     1      -1.497  -9.275   4.241  0.00  0.00    +0.011 A 
ATOM     16  F   UNL     1      -0.581  -9.907   7.692  0.00  0.00    -0.205 F 
ENDBRANCH   7  10
BRANCH   1  21
ATOM     17  C   UNL     1      -2.333  -0.237  -1.191  0.00  0.00    +0.066 C 
ATOM     18  C   UNL     1      -1.089  -0.723  -0.492  0.00  0.00    +0.048 A 
ATOM     19  C   UNL     1       0.131  -0.306  -0.911  0.00  0.00    +0.071 A 
ATOM     20  S   UNL     1       1.192  -1.170   0.241  0.00  0.00    -0.056 S 
ATOM     21  C   UNL     1      -0.104  -1.994   1.157  0.00  0.00    +0.195 A 
ATOM     22  N   UNL     1      -1.188  -1.549   0.528  0.00  0.00    -0.226 NA
ENDBRANCH   1  21
BRANCH   3  23
ATOM     23  C   UNL     1       0.052  -4.095  -0.436  0.00  0.00    +0.084 C 
ATOM     24  C   UNL     1      -1.246  -4.275  -1.226  0.00  0.00    +0.023 C 
ATOM     25  C   UNL     1      -1.151  -3.504  -2.544  0.00  0.00    +0.002 C 
ATOM     26  C   UNL     1       0.024  -4.039  -3.365  0.00  0.00    +0.000 C 
ATOM     27  C   UNL     1       1.322  -3.860  -2.575  0.00  0.00    +0.002 C 
ATOM     28  C   UNL     1       1.227  -4.631  -1.257  0.00  0.00    +0.023 C 
ENDBRANCH   3  23
TORSDOF 3
