REMARK  Name = ZINC22675973
REMARK  7 active torsions:
REMARK  status: ('A' for Active; 'I' for Inactive)
REMARK    1  A    between atoms: C_1  and  C_2
REMARK    2  A    between atoms: N_7  and  C_8
REMARK    3  A    between atoms: C_14  and  C_16
REMARK    4  A    between atoms: C_16  and  N_17
REMARK    5  A    between atoms: C_22  and  C_29
REMARK    6  A    between atoms: C_25  and  C_27
REMARK    7  A    between atoms: C_25  and  C_28
REMARK                            x       y       z     vdW  Elec       q    Type
REMARK                         _______ _______ _______ _____ _____    ______ ____
ROOT
ATOM      1  C   UNL     1      -1.346  -2.434   2.970  0.00  0.00    +0.214 C 
ENDROOT
BRANCH   1   2
ATOM      2  N   UNL     1      -1.963  -2.068   1.693  0.00  0.00    -0.215 N 
ATOM      3  C   UNL     1      -1.386  -1.263   0.775  0.00  0.00    +0.247 C 
ATOM      4  O   UNL     1      -0.323  -0.692   0.899  0.00  0.00    -0.273 OA
ATOM      5  C   UNL     1      -2.341  -1.213  -0.393  0.00  0.00    +0.113 C 
ATOM      6  C   UNL     1      -2.819   0.212  -0.634  0.00  0.00    +0.038 C 
ATOM      7  C   UNL     1      -1.696   1.036  -1.266  0.00  0.00    -0.011 C 
ATOM      8  C   UNL     1      -1.356   0.430  -2.626  0.00  0.00    +0.009 C 
ATOM      9  C   UNL     1      -0.846  -0.998  -2.474  0.00  0.00    -0.032 C 
ATOM     10  C   UNL     1      -1.763  -1.867  -1.631  0.00  0.00    +0.041 C 
ATOM     11  C   UNL     1       0.573  -0.990  -1.898  0.00  0.00    +0.011 C 
ATOM     12  C   UNL     1      -0.766  -1.620  -3.886  0.00  0.00    +0.011 C 
ATOM     13  C   UNL     1      -2.172   2.479  -1.457  0.00  0.00    +0.007 C 
ATOM     14  N   UNL     1      -3.491  -2.022   0.072  0.00  0.00    -0.285 N 
ATOM     15  C   UNL     1      -3.167  -2.489   1.290  0.00  0.00    +0.310 C 
ATOM     16  O   UNL     1      -3.887  -3.212   1.952  0.00  0.00    -0.252 OA
ATOM     17  H   UNL     1      -4.380  -2.133  -0.566  0.00  0.00    +0.151 HD
ENDBRANCH   1   2
BRANCH   1  25
ATOM     18  C   UNL     1       2.556  -7.602   1.270  0.00  0.00    +0.066 C 
ATOM     19  C   UNL     1       2.111  -6.963   2.560  0.00  0.00    +0.047 A 
ATOM     20  C   UNL     1       2.526  -7.450   3.755  0.00  0.00    +0.071 A 
ATOM     21  S   UNL     1       1.704  -6.327   4.876  0.00  0.00    -0.060 S 
ATOM     22  C   UNL     1       0.914  -5.350   3.677  0.00  0.00    +0.172 A 
ATOM     23  N   UNL     1       1.304  -5.920   2.553  0.00  0.00    -0.229 NA
ATOM     24  N   UNL     1       0.078  -4.252   3.855  0.00  0.00    -0.217 N 
ATOM     25  C   UNL     1      -0.533  -3.690   2.794  0.00  0.00    +0.244 C 
ATOM     26  O   UNL     1      -0.428  -4.196   1.696  0.00  0.00    -0.273 OA
BRANCH  24  27
ATOM     27  C   UNL     1      -0.128  -3.731   5.139  0.00  0.00    +0.043 A 
ATOM     28  C   UNL     1       0.397  -2.491   5.479  0.00  0.00    +0.024 A 
ATOM     29  C   UNL     1       0.188  -1.978   6.744  0.00  0.00    +0.002 A 
ATOM     30  C   UNL     1      -0.535  -2.702   7.675  0.00  0.00    +0.000 A 
ATOM     31  C   UNL     1      -1.055  -3.939   7.341  0.00  0.00    +0.002 A 
ATOM     32  C   UNL     1      -0.854  -4.455   6.076  0.00  0.00    +0.024 A 
ENDBRANCH  24  27
ENDBRANCH   1  25
TORSDOF 3
