REMARK  Name = ZINC39466493
REMARK  7 active torsions:
REMARK  status: ('A' for Active; 'I' for Inactive)
REMARK    1  A    between atoms: C_1  and  C_2
REMARK    2  A    between atoms: C_2  and  O_3
REMARK    3  A    between atoms: O_3  and  C_4
REMARK    4  A    between atoms: C_16  and  C_17
REMARK    5  A    between atoms: C_17  and  C_18
REMARK    6  A    between atoms: P_26  and  C_29
REMARK    7  A    between atoms: C_29  and  C_30
REMARK                            x       y       z     vdW  Elec       q    Type
REMARK                         _______ _______ _______ _____ _____    ______ ____
ROOT
ATOM      1  C   UNL     1      -1.498  -1.848   0.006  0.00  0.00    +0.120 C 
ATOM      2  C   UNL     1      -0.432  -2.654  -0.003  0.00  0.00    +0.021 C 
ATOM      3  C   UNL     1      -0.631  -4.145  -0.021  0.00  0.00    +0.008 C 
ATOM      4  C   UNL     1       0.596  -4.845  -0.587  0.00  0.00    -0.046 C 
ATOM      5  N   UNL     1       0.843  -4.441  -1.981  0.00  0.00    +0.397 N 
ATOM      6  C   UNL     1      -0.299  -4.801  -2.824  0.00  0.00    -0.020 C 
ATOM      7  C   UNL     1      -1.567  -4.099  -2.323  0.00  0.00    -0.003 C 
ATOM      8  C   UNL     1      -1.843  -4.489  -0.891  0.00  0.00    +0.016 C 
ATOM      9  C   UNL     1      -3.029  -3.684  -0.416  0.00  0.00    -0.016 C 
ATOM     10  C   UNL     1      -2.851  -2.438   0.016  0.00  0.00    -0.005 C 
ATOM     11  C   UNL     1      -0.089  -4.358  -4.277  0.00  0.00    +0.156 C 
ATOM     12  O   UNL     1       1.064  -5.024  -4.821  0.00  0.00    -0.319 OA
ATOM     13  P   UNL     1       2.443  -4.972  -3.958  0.00  0.00    +0.262 P 
ATOM     14  O   UNL     1       3.131  -3.678  -4.169  0.00  0.00    -0.274 OA
ATOM     15  N   UNL     1       1.972  -5.125  -2.379  0.00  0.00    -0.291 NA
ATOM     16  H   UNL     1       2.473  -5.672  -1.754  0.00  0.00    +0.111 HD
ATOM     17  H   UNL     1       1.014  -3.448  -2.023  0.00  0.00    -0.055 HD
ENDROOT
BRANCH   1  18
ATOM     18  O   UNL     1      -1.339  -0.499   0.012  0.00  0.00    -0.492 OA
BRANCH  18  20
ATOM     19  C   UNL     1      -0.019   1.526   0.010  0.00  0.00    +0.048 C 
ATOM     20  C   UNL     1       0.002  -0.004   0.002  0.00  0.00    +0.225 C 
ENDBRANCH  18  20
ENDBRANCH   1  18
BRANCH  10  21
ATOM     21  C   UNL     1      -4.024  -1.630   0.508  0.00  0.00    +0.073 C 
BRANCH  21  22
ATOM     22  C   UNL     1      -4.121  -1.747   2.008  0.00  0.00    -0.043 A 
ATOM     23  C   UNL     1      -4.870  -2.761   2.575  0.00  0.00    +0.004 A 
ATOM     24  C   UNL     1      -4.958  -2.867   3.951  0.00  0.00    +0.000 A 
ATOM     25  C   UNL     1      -4.297  -1.960   4.758  0.00  0.00    +0.000 A 
ATOM     26  C   UNL     1      -3.548  -0.947   4.191  0.00  0.00    +0.000 A 
ATOM     27  C   UNL     1      -3.456  -0.843   2.815  0.00  0.00    +0.004 A 
ENDBRANCH  21  22
ENDBRANCH  10  21
BRANCH  13  28
ATOM     28  C   UNL     1       3.537  -6.352  -4.429  0.00  0.00    +0.147 C 
BRANCH  28  29
ATOM     29  C   UNL     1       3.870  -6.252  -5.896  0.00  0.00    -0.037 A 
ATOM     30  C   UNL     1       3.062  -6.870  -6.832  0.00  0.00    +0.004 A 
ATOM     31  C   UNL     1       3.367  -6.777  -8.177  0.00  0.00    +0.000 A 
ATOM     32  C   UNL     1       4.480  -6.067  -8.586  0.00  0.00    +0.000 A 
ATOM     33  C   UNL     1       5.287  -5.448  -7.649  0.00  0.00    +0.000 A 
ATOM     34  C   UNL     1       4.980  -5.537  -6.305  0.00  0.00    +0.004 A 
ENDBRANCH  28  29
ENDBRANCH  13  28
TORSDOF 6
