REMARK  Name = ZINC21539753
REMARK  5 active torsions:
REMARK  status: ('A' for Active; 'I' for Inactive)
REMARK    1  A    between atoms: C_1  and  C_2
REMARK    2  A    between atoms: C_2  and  O_3
REMARK    3  A    between atoms: O_3  and  C_4
REMARK    4  A    between atoms: C_8  and  C_10
REMARK    5  A    between atoms: N_30  and  C_31
REMARK                            x       y       z     vdW  Elec       q    Type
REMARK                         _______ _______ _______ _____ _____    ______ ____
ROOT
ATOM      1  C   UNL     1       0.158  -2.281   1.815  0.00  0.00    +0.155 C 
ATOM      2  C   UNL     1      -0.601  -1.991   0.554  0.00  0.00    +0.049 A 
ATOM      3  C   UNL     1      -1.564  -2.705  -0.045  0.00  0.00    +0.025 A 
ATOM      4  C   UNL     1      -1.998  -1.970  -1.170  0.00  0.00    +0.020 A 
ATOM      5  C   UNL     1      -1.263  -0.835  -1.223  0.00  0.00    +0.092 A 
ATOM      6  N   UNL     1      -0.383  -0.858  -0.195  0.00  0.00    -0.312 N 
ATOM      7  C   UNL     1       0.639   0.013   0.160  0.00  0.00    +0.090 A 
ATOM      8  C   UNL     1       1.890  -0.385   0.514  0.00  0.00    +0.005 A 
ATOM      9  C   UNL     1       2.798   0.627   0.888  0.00  0.00    -0.030 A 
ATOM     10  C   UNL     1       2.360   1.913   0.849  0.00  0.00    -0.005 A 
ATOM     11  S   UNL     1       0.677   1.773   0.302  0.00  0.00    -0.075 S 
ATOM     12  C   UNL     1       3.127   3.150   1.191  0.00  0.00    +0.043 C 
ATOM     13  C   UNL     1       4.393   2.735   1.957  0.00  0.00    +0.005 C 
ATOM     14  C   UNL     1       5.068   1.585   1.203  0.00  0.00    +0.005 C 
ATOM     15  C   UNL     1       4.227   0.314   1.323  0.00  0.00    +0.036 C 
ATOM     16  C   UNL     1       2.256  -1.852   0.490  0.00  0.00    +0.148 C 
ATOM     17  N   UNL     1       1.574  -2.627   1.542  0.00  0.00    -0.268 N 
ATOM     18  C   UNL     1       2.207  -3.602   2.223  0.00  0.00    +0.308 C 
ATOM     19  O   UNL     1       1.615  -4.223   3.086  0.00  0.00    -0.252 OA
ATOM     20  N   UNL     1       3.494  -3.890   1.948  0.00  0.00    -0.267 N 
ATOM     21  H   UNL     1       4.053  -3.276   1.226  0.00  0.00    +0.156 HD
ENDROOT
BRANCH  20  22
ATOM     22  C   UNL     1       4.121  -4.971   2.582  0.00  0.00    +0.073 A 
ATOM     23  C   UNL     1       3.699  -5.380   3.839  0.00  0.00    +0.064 A 
ATOM     24  C   UNL     1       4.319  -6.448   4.462  0.00  0.00    +0.125 A 
ATOM     25  C   UNL     1       5.361  -7.109   3.832  0.00  0.00    +0.041 A 
ATOM     26  C   UNL     1       5.783  -6.703   2.579  0.00  0.00    +0.043 A 
ATOM     27  C   UNL     1       5.164  -5.639   1.950  0.00  0.00    +0.145 A 
ATOM     28  F   UNL     1       5.574  -5.247   0.724  0.00  0.00    -0.204 F 
ATOM     29  F   UNL     1       3.909  -6.847   5.686  0.00  0.00    -0.205 F 
ENDBRANCH  20  22
BRANCH   1  34
ATOM     30  C   UNL     1       1.148   0.360   4.330  0.00  0.00    +0.121 A 
ATOM     31  C   UNL     1       0.021   1.170   4.334  0.00  0.00    +0.045 A 
ATOM     32  C   UNL     1      -1.054   0.861   3.524  0.00  0.00    +0.004 A 
ATOM     33  C   UNL     1      -1.008  -0.255   2.709  0.00  0.00    +0.006 A 
ATOM     34  C   UNL     1       0.112  -1.065   2.704  0.00  0.00    -0.018 A 
ATOM     35  C   UNL     1       1.188  -0.762   3.516  0.00  0.00    +0.051 A 
BRANCH  30  36
ATOM     36  O   UNL     1       2.207   0.661   5.127  0.00  0.00    -0.492 OA
BRANCH  36  38
ATOM     37  C   UNL     1       3.372   2.004   6.764  0.00  0.00    +0.048 C 
ATOM     38  C   UNL     1       2.092   1.829   5.943  0.00  0.00    +0.225 C 
ENDBRANCH  36  38
ENDBRANCH  30  36
ENDBRANCH   1  34
TORSDOF 4
