REMARK  Name = ZINC02531666
REMARK  8 active torsions:
REMARK  status: ('A' for Active; 'I' for Inactive)
REMARK    1  A    between atoms: C_1  and  C_2
REMARK    2  A    between atoms: C_7  and  N_8
REMARK    3  A    between atoms: C_9  and  C_11
REMARK    4  A    between atoms: N_13  and  N_14
REMARK    5  A    between atoms: C_15  and  C_16
REMARK    6  A    between atoms: C_19  and  O_22
REMARK    7  A    between atoms: O_22  and  C_23
REMARK    8  A    between atoms: C_23  and  C_25
REMARK                            x       y       z     vdW  Elec       q    Type
REMARK                         _______ _______ _______ _____ _____    ______ ____
ROOT
ATOM      1  N   UNL     1       3.650   1.967   0.051  0.00  0.00    -0.187 NA
ATOM      2  C   UNL     1       4.797   1.359  -0.001  0.00  0.00    +0.138 C 
ENDROOT
BRANCH   2   3
ATOM      3  C   UNL     1       6.043   2.142  -0.054  0.00  0.00    -0.005 A 
ATOM      4  C   UNL     1       5.994   3.539  -0.054  0.00  0.00    +0.013 A 
ATOM      5  C   UNL     1       7.163   4.268  -0.098  0.00  0.00    +0.047 A 
ATOM      6  C   UNL     1       8.389   3.616  -0.152  0.00  0.00    +0.132 A 
ATOM      7  C   UNL     1       8.442   2.227  -0.158  0.00  0.00    +0.047 A 
ATOM      8  C   UNL     1       7.279   1.491  -0.109  0.00  0.00    +0.013 A 
BRANCH   6   9
ATOM      9  O   UNL     1       9.538   4.338  -0.200  0.00  0.00    -0.422 OA
BRANCH   9  10
ATOM     10  C   UNL     1      10.169   4.406  -1.389  0.00  0.00    +0.346 C 
ATOM     11  O   UNL     1       9.659   3.914  -2.376  0.00  0.00    -0.244 OA
BRANCH  10  12
ATOM     12  C   UNL     1      11.479   5.077  -1.492  0.00  0.00    +0.078 A 
ATOM     13  C   UNL     1      12.069   5.643  -0.359  0.00  0.00    +0.018 A 
ATOM     14  C   UNL     1      13.293   6.268  -0.462  0.00  0.00    +0.021 A 
ATOM     15  C   UNL     1      13.940   6.336  -1.685  0.00  0.00    +0.042 A 
ATOM     16  C   UNL     1      13.362   5.778  -2.813  0.00  0.00    +0.040 A 
ATOM     17  C   UNL     1      12.139   5.144  -2.723  0.00  0.00    +0.056 A 
ATOM     18 CL   UNL     1      11.418   4.438  -4.136  0.00  0.00    -0.083 Cl
ATOM     19 CL   UNL     1      15.481   7.125  -1.805  0.00  0.00    -0.083 Cl
ENDBRANCH  10  12
ENDBRANCH   9  10
ENDBRANCH   6   9
ENDBRANCH   2   3
BRANCH   1  22
ATOM     20  C   UNL     1       1.274   1.852   0.154  0.00  0.00    +0.318 C 
ATOM     21  O   UNL     1       1.229   3.066   0.159  0.00  0.00    -0.263 OA
ATOM     22  N   UNL     1       2.464   1.222   0.101  0.00  0.00    -0.199 N 
ATOM     23  H   UNL     1       2.500   0.253   0.097  0.00  0.00    +0.178 HD
BRANCH  20  25
ATOM     24  N   UNL     1      -1.178   1.690   0.255  0.00  0.00    -0.277 N 
ATOM     25  C   UNL     1       0.012   1.060   0.207  0.00  0.00    +0.305 C 
ATOM     26  O   UNL     1       0.057  -0.154   0.203  0.00  0.00    -0.265 OA
ATOM     27  H   UNL     1      -1.212   2.655   0.341  0.00  0.00    +0.155 HD
BRANCH  24  34
ATOM     28  C   UNL     1      -3.432   2.618   1.724  0.00  0.00    +0.045 C 
ATOM     29  C   UNL     1      -3.487   1.369   0.882  0.00  0.00    -0.029 A 
ATOM     30  C   UNL     1      -4.656   0.638   0.806  0.00  0.00    +0.005 A 
ATOM     31  C   UNL     1      -4.708  -0.508   0.033  0.00  0.00    +0.000 A 
ATOM     32  C   UNL     1      -3.591  -0.925  -0.666  0.00  0.00    +0.002 A 
ATOM     33  C   UNL     1      -2.420  -0.196  -0.599  0.00  0.00    +0.023 A 
ATOM     34  C   UNL     1      -2.363   0.953   0.181  0.00  0.00    +0.037 A 
ENDBRANCH  24  34
ENDBRANCH  20  25
ENDBRANCH   1  22
TORSDOF 7
