REMARK  Name = ZINC31044057
REMARK  10 active torsions:
REMARK  status: ('A' for Active; 'I' for Inactive)
REMARK    1  A    between atoms: C_1  and  C_2
REMARK    2  A    between atoms: C_7  and  C_8
REMARK    3  A    between atoms: C_8  and  C_10
REMARK    4  A    between atoms: C_8  and  N_13
REMARK    5  A    between atoms: C_10  and  C_11
REMARK    6  A    between atoms: C_10  and  C_12
REMARK    7  A    between atoms: C_14  and  C_16
REMARK    8  A    between atoms: N_21  and  C_23
REMARK    9  A    between atoms: C_23  and  C_24
REMARK   10  A    between atoms: C_26  and  C_29
REMARK                            x       y       z     vdW  Elec       q    Type
REMARK                         _______ _______ _______ _____ _____    ______ ____
ROOT
ATOM      1  C   UNL     1       6.864   1.080   1.780  0.00  0.00    +0.058 C 
ATOM      2  C   UNL     1       7.539   0.277   0.664  0.00  0.00    +0.009 C 
ATOM      3  C   UNL     1       8.690  -0.540   1.258  0.00  0.00    -0.018 C 
ATOM      4  C   UNL     1       9.676   0.405   1.949  0.00  0.00    -0.078 C 
ATOM      5  N   UNL     1       8.983   1.149   3.008  0.00  0.00    +0.386 N 
ATOM      6  C   UNL     1       7.904   1.978   2.455  0.00  0.00    -0.065 C 
ATOM      7  H   UNL     1       8.527   0.416   3.690  0.00  0.00    -0.081 HD
ENDROOT
BRANCH   1   9
ATOM      8  N   UNL     1       4.738   1.353   0.546  0.00  0.00    -0.308 N 
ATOM      9  C   UNL     1       5.768   1.932   1.194  0.00  0.00    +0.215 C 
ATOM     10  O   UNL     1       5.813   3.139   1.306  0.00  0.00    -0.276 OA
ATOM     11  H   UNL     1       4.697   0.259   0.445  0.00  0.00    +0.149 HD
BRANCH   8  12
ATOM     12  C   UNL     1       3.672   2.182  -0.023  0.00  0.00    +0.106 C 
BRANCH  12  19
ATOM     13  C   UNL     1       2.019   4.546  -0.187  0.00  0.00    +0.044 C 
ATOM     14  C   UNL     1       1.833   3.573   0.949  0.00  0.00    -0.045 A 
ATOM     15  C   UNL     1       0.870   3.812   1.912  0.00  0.00    +0.004 A 
ATOM     16  C   UNL     1       0.699   2.920   2.954  0.00  0.00    +0.000 A 
ATOM     17  C   UNL     1       1.490   1.789   3.033  0.00  0.00    +0.000 A 
ATOM     18  C   UNL     1       2.452   1.550   2.070  0.00  0.00    +0.006 A 
ATOM     19  C   UNL     1       2.623   2.442   1.027  0.00  0.00    -0.024 A 
ENDBRANCH  12  19
BRANCH  12  20
ATOM     20  C   UNL     1       3.037   1.452  -1.208  0.00  0.00    +0.008 C 
ATOM     21  C   UNL     1       4.102   1.188  -2.274  0.00  0.00    +0.009 C 
ATOM     22  C   UNL     1       2.450   0.122  -0.733  0.00  0.00    +0.009 C 
ENDBRANCH  12  20
ENDBRANCH   8  12
ENDBRANCH   1   9
BRANCH   5  23
ATOM     23  C   UNL     1       9.928   1.964   3.784  0.00  0.00    +0.022 C 
BRANCH  23  24
ATOM     24  C   UNL     1      11.140   1.137   4.125  0.00  0.00    +0.211 A 
ATOM     25  N   UNL     1      12.231   1.023   3.409  0.00  0.00    -0.193 NA
ATOM     26  C   UNL     1      13.036   0.188   4.104  0.00  0.00    +0.202 A 
ATOM     27  N   UNL     1      12.394  -0.152   5.191  0.00  0.00    -0.056 NA
ATOM     28  O   UNL     1      11.308   0.388   5.220  0.00  0.00    -0.340 OA
BRANCH  26  29
ATOM     29  C   UNL     1      14.394  -0.260   3.707  0.00  0.00    +0.023 A 
ATOM     30  C   UNL     1      14.954   0.182   2.509  0.00  0.00    +0.013 A 
ATOM     31  C   UNL     1      16.220  -0.232   2.148  0.00  0.00    +0.016 A 
ATOM     32  C   UNL     1      16.928  -1.094   2.966  0.00  0.00    +0.018 A 
ATOM     33  C   UNL     1      16.375  -1.540   4.154  0.00  0.00    +0.016 A 
ATOM     34  C   UNL     1      15.112  -1.127   4.527  0.00  0.00    +0.013 A 
ATOM     35 BR   UNL     1      18.660  -1.662   2.461  0.00  0.00    -0.050 Br
ENDBRANCH  26  29
ENDBRANCH  23  24
ENDBRANCH   5  23
TORSDOF 7
