REMARK  Name = ZINC36307655
REMARK  4 active torsions:
REMARK  status: ('A' for Active; 'I' for Inactive)
REMARK    1  A    between atoms: C_8  and  C_27
REMARK    2  A    between atoms: C_10  and  C_18
REMARK    3  A    between atoms: C_22  and  N_24
REMARK    4  A    between atoms: C_27  and  C_29
REMARK                            x       y       z     vdW  Elec       q    Type
REMARK                         _______ _______ _______ _____ _____    ______ ____
ROOT
ATOM      1  C   UNL     1      -0.305   1.398   0.112  0.00  0.00    +0.000 A 
ATOM      2  C   UNL     1       0.765   2.235  -0.149  0.00  0.00    +0.002 A 
ATOM      3  C   UNL     1       2.004   1.709  -0.448  0.00  0.00    +0.023 A 
ATOM      4  C   UNL     1       2.188   0.329  -0.490  0.00  0.00    +0.039 A 
ATOM      5  C   UNL     1       1.104  -0.504  -0.225  0.00  0.00    +0.004 A 
ATOM      6  C   UNL     1      -0.131   0.026   0.073  0.00  0.00    +0.008 A 
ATOM      7  C   UNL     1       1.626  -1.907  -0.348  0.00  0.00    +0.137 C 
ATOM      8  C   UNL     1       0.868  -2.692  -1.434  0.00  0.00    +0.103 C 
ATOM      9  C   UNL     1      -0.356  -3.222  -0.638  0.00  0.00    +0.050 C 
ATOM     10  C   UNL     1       0.223  -3.469   0.771  0.00  0.00    +0.077 C 
ATOM     11  N   UNL     1       1.446  -2.670   0.896  0.00  0.00    -0.271 NA
ATOM     12  C   UNL     1       2.687  -3.421   1.207  0.00  0.00    +0.155 C 
ATOM     13  S   UNL     1       2.004  -4.972   1.939  0.00  0.00    -0.144 S 
ATOM     14  C   UNL     1       0.448  -4.987   0.962  0.00  0.00    +0.090 C 
ATOM     15  C   UNL     1       3.079  -1.756  -0.702  0.00  0.00    +0.243 C 
ATOM     16  O   UNL     1       3.875  -2.651  -0.894  0.00  0.00    -0.273 OA
ATOM     17  N   UNL     1       3.326  -0.433  -0.765  0.00  0.00    -0.283 N 
ATOM     18  H   UNL     1       4.193  -0.053  -0.977  0.00  0.00    +0.155 HD
ENDROOT
BRANCH   9  19
ATOM     19  C   UNL     1      -0.867  -4.506  -1.240  0.00  0.00    -0.040 A 
ATOM     20  C   UNL     1       0.020  -5.508  -1.586  0.00  0.00    +0.004 A 
ATOM     21  C   UNL     1      -0.449  -6.686  -2.138  0.00  0.00    +0.002 A 
ATOM     22  C   UNL     1      -1.805  -6.861  -2.343  0.00  0.00    +0.033 A 
ATOM     23  C   UNL     1      -2.692  -5.860  -1.996  0.00  0.00    +0.126 A 
ATOM     24  C   UNL     1      -2.223  -4.684  -1.440  0.00  0.00    +0.036 A 
BRANCH  23  25
ATOM     25  N   UNL     1      -4.143  -6.047  -2.216  0.00  0.00    +0.056 N 
ATOM     26  O   UNL     1      -4.553  -7.077  -2.700  0.00  0.00    -0.126 OA
ATOM     27  O   UNL     1      -4.919  -5.171  -1.913  0.00  0.00    -0.126 OA
ENDBRANCH  23  25
ENDBRANCH   9  19
BRANCH   8  28
ATOM     28  C   UNL     1       1.704  -3.829  -1.961  0.00  0.00    +0.169 C 
ATOM     29  O   UNL     1       2.508  -4.377  -1.237  0.00  0.00    -0.292 OA
BRANCH  28  30
ATOM     30  C   UNL     1       1.546  -4.275  -3.353  0.00  0.00    +0.018 A 
ATOM     31  C   UNL     1       0.624  -3.641  -4.193  0.00  0.00    +0.014 A 
ATOM     32  C   UNL     1       0.480  -4.064  -5.497  0.00  0.00    +0.039 A 
ATOM     33  C   UNL     1       1.247  -5.115  -5.977  0.00  0.00    +0.123 A 
ATOM     34  C   UNL     1       2.163  -5.747  -5.149  0.00  0.00    +0.039 A 
ATOM     35  C   UNL     1       2.321  -5.331  -3.846  0.00  0.00    +0.014 A 
ATOM     36  F   UNL     1       1.101  -5.525  -7.256  0.00  0.00    -0.205 F 
ENDBRANCH  28  30
ENDBRANCH   8  28
TORSDOF 4
