REMARK  Name = ZINC35970221
REMARK  11 active torsions:
REMARK  status: ('A' for Active; 'I' for Inactive)
REMARK    1  A    between atoms: C_1  and  C_2
REMARK    2  A    between atoms: C_5  and  C_8
REMARK    3  A    between atoms: C_10  and  C_31
REMARK    4  A    between atoms: C_11  and  C_30
REMARK    5  A    between atoms: C_15  and  C_18
REMARK    6  A    between atoms: C_19  and  N_21
REMARK    7  A    between atoms: C_24  and  N_27
REMARK    8  A    between atoms: N_27  and  C_28
REMARK    9  A    between atoms: N_27  and  C_29
REMARK   10  A    between atoms: C_31  and  O_33
REMARK   11  A    between atoms: O_33  and  C_34
REMARK                            x       y       z     vdW  Elec       q    Type
REMARK                         _______ _______ _______ _____ _____    ______ ____
ROOT
ATOM      1  C   UNL     1       0.916  -3.854  -0.249  0.00  0.00    +0.150 C 
ATOM      2  C   UNL     1      -0.582  -4.043  -0.163  0.00  0.00    +0.082 C 
ATOM      3  C   UNL     1      -1.090  -4.657   0.965  0.00  0.00    +0.053 C 
ATOM      4  N   UNL     1      -0.281  -5.060   1.931  0.00  0.00    -0.230 NA
ATOM      5  C   UNL     1       1.029  -4.926   1.919  0.00  0.00    +0.166 C 
ATOM      6  N   UNL     1       1.727  -4.347   0.897  0.00  0.00    -0.267 N 
ATOM      7  C   UNL     1       3.099  -4.280   1.034  0.00  0.00    +0.048 C 
ATOM      8  C   UNL     1       3.642  -4.790   2.162  0.00  0.00    +0.072 C 
ATOM      9  S   UNL     1       2.202  -5.369   3.035  0.00  0.00    -0.060 S 
ATOM     10  C   UNL     1      -2.576  -4.868   1.097  0.00  0.00    +0.066 C 
ENDROOT
BRANCH   1  15
ATOM     11  C   UNL     1       1.961   1.795  -0.868  0.00  0.00    +0.044 C 
ATOM     12  C   UNL     1       1.689   0.322  -0.707  0.00  0.00    -0.050 A 
ATOM     13  C   UNL     1       1.720  -0.511  -1.809  0.00  0.00    +0.004 A 
ATOM     14  C   UNL     1       1.470  -1.863  -1.661  0.00  0.00    +0.006 A 
ATOM     15  C   UNL     1       1.190  -2.381  -0.410  0.00  0.00    -0.022 A 
ATOM     16  C   UNL     1       1.160  -1.548   0.692  0.00  0.00    +0.006 A 
ATOM     17  C   UNL     1       1.414  -0.197   0.545  0.00  0.00    +0.004 A 
ENDBRANCH   1  15
BRANCH   7  18
ATOM     18  C   UNL     1       3.940  -3.677  -0.009  0.00  0.00    +0.091 C 
ATOM     19  C   UNL     1       5.256  -3.493   0.209  0.00  0.00    +0.241 C 
ATOM     20  O   UNL     1       5.828  -3.968   1.342  0.00  0.00    -0.271 OA
BRANCH  19  21
ATOM     21  N   UNL     1       6.025  -2.817  -0.724  0.00  0.00    -0.298 N 
ATOM     22  C   UNL     1       7.439  -3.163  -0.920  0.00  0.00    +0.106 C 
ATOM     23  C   UNL     1       8.282  -1.892  -0.778  0.00  0.00    +0.004 C 
ATOM     24  C   UNL     1       7.756  -0.826  -1.741  0.00  0.00    -0.066 C 
ATOM     25  C   UNL     1       6.307  -0.486  -1.388  0.00  0.00    +0.004 C 
ATOM     26  C   UNL     1       5.440  -1.745  -1.541  0.00  0.00    +0.106 C 
BRANCH  24  27
ATOM     27  N   UNL     1       8.583   0.383  -1.631  0.00  0.00    +0.378 N 
ATOM     28  C   UNL     1       9.974   0.058  -1.972  0.00  0.00    -0.096 C 
ATOM     29  C   UNL     1       8.079   1.407  -2.556  0.00  0.00    -0.096 C 
ATOM     30  H   UNL     1       8.542   0.734  -0.686  0.00  0.00    -0.082 HD
ENDBRANCH  24  27
ENDBRANCH  19  21
ENDBRANCH   7  18
BRANCH   2  31
ATOM     31  C   UNL     1      -1.425  -3.610  -1.193  0.00  0.00    +0.339 C 
ATOM     32  O   UNL     1      -2.632  -3.751  -1.093  0.00  0.00    -0.245 OA
BRANCH  31  33
ATOM     33  O   UNL     1      -0.902  -3.036  -2.299  0.00  0.00    -0.465 OA
ATOM     34  C   UNL     1      -1.821  -2.618  -3.310  0.00  0.00    +0.280 C 
ENDBRANCH  31  33
ENDBRANCH   2  31
TORSDOF 6
