REMARK  Name = ZINC03011734
REMARK  5 active torsions:
REMARK  status: ('A' for Active; 'I' for Inactive)
REMARK    1  A    between atoms: C_1  and  C_2
REMARK    2  A    between atoms: C_5  and  C_8
REMARK    3  A    between atoms: C_11  and  C_34
REMARK    4  A    between atoms: C_16  and  C_18
REMARK    5  A    between atoms: N_23  and  C_26
REMARK                            x       y       z     vdW  Elec       q    Type
REMARK                         _______ _______ _______ _____ _____    ______ ____
ROOT
ATOM      1  C   UNL     1       0.080  -4.162  -0.025  0.00  0.00    +0.104 C 
ATOM      2  C   UNL     1      -1.331  -4.705   0.223  0.00  0.00    +0.063 C 
ATOM      3  C   UNL     1      -1.869  -4.176   1.557  0.00  0.00    +0.215 C 
ATOM      4  N   UNL     1      -0.863  -4.404   2.598  0.00  0.00    -0.238 N 
ATOM      5  C   UNL     1       0.458  -4.636   2.337  0.00  0.00    +0.119 A 
ATOM      6  C   UNL     1       1.095  -4.805   3.513  0.00  0.00    +0.078 A 
ATOM      7  C   UNL     1       0.134  -4.672   4.541  0.00  0.00    +0.149 A 
ATOM      8  N   UNL     1      -1.038  -4.431   3.981  0.00  0.00    -0.164 NA
ATOM      9  N   UNL     1       0.975  -4.669   1.034  0.00  0.00    -0.322 N 
ATOM     10  H   UNL     1       1.863  -5.006   0.838  0.00  0.00    +0.148 HD
ENDROOT
BRANCH   7  11
ATOM     11  C   UNL     1       0.396  -4.783   5.991  0.00  0.00    +0.267 C 
ATOM     12  O   UNL     1       1.496  -5.115   6.387  0.00  0.00    -0.268 OA
ATOM     13  N   UNL     1      -0.586  -4.516   6.875  0.00  0.00    -0.293 N 
ATOM     14  C   UNL     1      -0.309  -4.499   8.318  0.00  0.00    +0.127 C 
ATOM     15  C   UNL     1      -0.750  -3.144   8.886  0.00  0.00    +0.124 C 
ATOM     16  N   UNL     1      -2.116  -2.864   8.424  0.00  0.00    -0.327 N 
ATOM     17  C   UNL     1      -2.394  -2.881   6.981  0.00  0.00    +0.124 C 
ATOM     18  C   UNL     1      -1.951  -4.230   6.413  0.00  0.00    +0.127 C 
BRANCH  16  19
ATOM     19  C   UNL     1      -3.134  -2.587   9.340  0.00  0.00    +0.031 A 
ATOM     20  C   UNL     1      -2.836  -2.450  10.691  0.00  0.00    +0.023 A 
ATOM     21  C   UNL     1      -3.844  -2.176  11.594  0.00  0.00    +0.003 A 
ATOM     22  C   UNL     1      -5.148  -2.037  11.157  0.00  0.00    +0.020 A 
ATOM     23  C   UNL     1      -5.449  -2.172   9.813  0.00  0.00    +0.043 A 
ATOM     24  C   UNL     1      -4.444  -2.441   8.903  0.00  0.00    +0.043 A 
ATOM     25 CL   UNL     1      -7.088  -1.998   9.268  0.00  0.00    -0.083 Cl
ENDBRANCH  16  19
ENDBRANCH   7  11
BRANCH   1  30
ATOM     26  C   UNL     1      -0.016   1.614   0.115  0.00  0.00    +0.044 C 
ATOM     27  C   UNL     1       0.009   0.108   0.079  0.00  0.00    -0.050 A 
ATOM     28  C   UNL     1       0.022  -0.554  -1.135  0.00  0.00    +0.004 A 
ATOM     29  C   UNL     1       0.045  -1.936  -1.168  0.00  0.00    +0.006 A 
ATOM     30  C   UNL     1       0.056  -2.655   0.012  0.00  0.00    -0.027 A 
ATOM     31  C   UNL     1       0.045  -1.994   1.225  0.00  0.00    +0.006 A 
ATOM     32  C   UNL     1       0.026  -0.612   1.259  0.00  0.00    +0.004 A 
ENDBRANCH   1  30
BRANCH   3  33
ATOM     33  C   UNL     1      -3.160  -4.912   1.918  0.00  0.00    +0.412 C 
ATOM     34  F   UNL     1      -2.899  -6.282   2.033  0.00  0.00    -0.168 F 
ATOM     35  F   UNL     1      -3.648  -4.427   3.136  0.00  0.00    -0.168 F 
ATOM     36  F   UNL     1      -4.113  -4.701   0.916  0.00  0.00    -0.168 F 
ENDBRANCH   3  33
TORSDOF 4
