REMARK  Name = ZINC08720676
REMARK  9 active torsions:
REMARK  status: ('A' for Active; 'I' for Inactive)
REMARK    1  A    between atoms: C_1  and  C_2
REMARK    2  A    between atoms: C_2  and  C_4
REMARK    3  A    between atoms: C_2  and  N_14
REMARK    4  A    between atoms: N_6  and  C_7
REMARK    5  A    between atoms: N_14  and  C_15
REMARK    6  A    between atoms: C_18  and  O_30
REMARK    7  A    between atoms: C_19  and  S_21
REMARK    8  A    between atoms: S_21  and  N_24
REMARK    9  A    between atoms: O_30  and  C_31
REMARK                            x       y       z     vdW  Elec       q    Type
REMARK                         _______ _______ _______ _____ _____    ______ ____
ROOT
ATOM      1  C   UNL     1       4.086  -5.924  -0.999  0.00  0.00    +0.030 A 
ATOM      2  C   UNL     1       3.050  -6.692  -1.514  0.00  0.00    +0.026 A 
ATOM      3  C   UNL     1       3.325  -7.895  -2.133  0.00  0.00    +0.049 A 
ATOM      4  C   UNL     1       4.636  -8.337  -2.240  0.00  0.00    +0.146 A 
ATOM      5  C   UNL     1       5.671  -7.571  -1.725  0.00  0.00    +0.149 A 
ATOM      6  C   UNL     1       5.398  -6.364  -1.111  0.00  0.00    +0.055 A 
ENDROOT
BRANCH   5   7
ATOM      7  S   UNL     1       7.335  -8.133  -1.861  0.00  0.00    +0.064 S 
ATOM      8  O   UNL     1       7.525  -8.516  -3.216  0.00  0.00    -0.153 OA
ATOM      9  O   UNL     1       8.147  -7.156  -1.224  0.00  0.00    -0.153 OA
BRANCH   7  10
ATOM     10  N   UNL     1       7.460  -9.515  -0.957  0.00  0.00    -0.176 NA
ATOM     11  C   UNL     1       7.838  -9.450   0.462  0.00  0.00    +0.109 C 
ATOM     12  C   UNL     1       6.777 -10.196   1.285  0.00  0.00    +0.017 C 
ATOM     13  C   UNL     1       6.624 -11.618   0.741  0.00  0.00    +0.003 C 
ATOM     14  C   UNL     1       6.152 -11.561  -0.714  0.00  0.00    +0.017 C 
ATOM     15  C   UNL     1       7.200 -10.830  -1.559  0.00  0.00    +0.109 C 
ENDBRANCH   7  10
ENDBRANCH   5   7
BRANCH   1  16
ATOM     16  N   UNL     1       3.808  -4.704  -0.371  0.00  0.00    -0.333 N 
ATOM     17  H   UNL     1       4.531  -4.168  -0.011  0.00  0.00    +0.147 HD
BRANCH  16  19
ATOM     18  C   UNL     1       1.776  -4.855   0.983  0.00  0.00    +0.038 C 
ATOM     19  C   UNL     1       2.424  -4.237  -0.258  0.00  0.00    +0.154 C 
BRANCH  19  20
ATOM     20  C   UNL     1       2.409  -2.735  -0.137  0.00  0.00    +0.237 C 
ATOM     21  O   UNL     1       3.451  -2.116  -0.144  0.00  0.00    -0.273 OA
ATOM     22  N   UNL     1       1.237  -2.080  -0.020  0.00  0.00    -0.284 N 
ATOM     23  H   UNL     1       0.409  -2.579   0.062  0.00  0.00    +0.155 HD
BRANCH  22  24
ATOM     24  C   UNL     1       1.214  -0.681  -0.019  0.00  0.00    +0.034 A 
ATOM     25  C   UNL     1       2.137   0.031  -0.774  0.00  0.00    +0.024 A 
ATOM     26  C   UNL     1       2.112   1.412  -0.771  0.00  0.00    +0.017 A 
ATOM     27  C   UNL     1       1.169   2.086  -0.016  0.00  0.00    +0.018 A 
ATOM     28  C   UNL     1       0.248   1.380   0.737  0.00  0.00    +0.017 A 
ATOM     29  C   UNL     1       0.268  -0.001   0.738  0.00  0.00    +0.024 A 
ATOM     30 BR   UNL     1       1.139   3.977  -0.014  0.00  0.00    -0.050 Br
ENDBRANCH  22  24
ENDBRANCH  19  20
ENDBRANCH  16  19
ENDBRANCH   1  16
BRANCH   4  31
ATOM     31  O   UNL     1       4.906  -9.522  -2.850  0.00  0.00    -0.493 OA
ATOM     32  C   UNL     1       3.792 -10.259  -3.358  0.00  0.00    +0.277 C 
ENDBRANCH   4  31
TORSDOF 7
