REMARK  Name = ZINC35027028
REMARK  11 active torsions:
REMARK  status: ('A' for Active; 'I' for Inactive)
REMARK    1  A    between atoms: C_1  and  C_2
REMARK    2  A    between atoms: C_2  and  C_3
REMARK    3  A    between atoms: C_3  and  C_5
REMARK    4  A    between atoms: C_3  and  N_18
REMARK    5  A    between atoms: N_15  and  C_16
REMARK    6  A    between atoms: C_16  and  C_17
REMARK    7  A    between atoms: N_18  and  C_19
REMARK    8  A    between atoms: C_19  and  C_20
REMARK    9  A    between atoms: C_20  and  C_21
REMARK   10  A    between atoms: C_20  and  C_22
REMARK   11  A    between atoms: N_25  and  C_26
REMARK                            x       y       z     vdW  Elec       q    Type
REMARK                         _______ _______ _______ _____ _____    ______ ____
ROOT
ATOM      1  C   UNL     1       1.325  -0.749   0.735  0.00  0.00    +0.143 C 
ENDROOT
BRANCH   1   2
ATOM      2  C   UNL     1       1.823  -2.037   1.337  0.00  0.00    +0.134 A 
ATOM      3  N   UNL     1       1.016  -2.717   2.093  0.00  0.00    -0.232 NA
ATOM      4  C   UNL     1       1.395  -3.885   2.670  0.00  0.00    +0.078 A 
ATOM      5  C   UNL     1       0.526  -4.617   3.482  0.00  0.00    +0.028 A 
ATOM      6  C   UNL     1       0.953  -5.798   4.046  0.00  0.00    +0.002 A 
ATOM      7  C   UNL     1       2.238  -6.272   3.818  0.00  0.00    +0.001 A 
ATOM      8  C   UNL     1       3.113  -5.568   3.020  0.00  0.00    +0.015 A 
ATOM      9  C   UNL     1       2.701  -4.370   2.439  0.00  0.00    +0.065 A 
ATOM     10  C   UNL     1       3.590  -3.577   1.578  0.00  0.00    +0.262 A 
ATOM     11  O   UNL     1       4.728  -3.938   1.340  0.00  0.00    -0.267 OA
ATOM     12  N   UNL     1       3.093  -2.431   1.057  0.00  0.00    -0.295 N 
BRANCH  12  13
ATOM     13  C   UNL     1       3.934  -1.604   0.188  0.00  0.00    +0.123 C 
ATOM     14  C   UNL     1       4.627  -0.526   1.024  0.00  0.00    +0.027 C 
ENDBRANCH  12  13
ENDBRANCH   1   2
BRANCH   1  15
ATOM     15  N   UNL     1       0.439  -0.075   1.687  0.00  0.00    -0.275 N 
ATOM     16  C   UNL     1       0.805   1.103   2.230  0.00  0.00    +0.307 C 
ATOM     17  O   UNL     1       1.870   1.606   1.930  0.00  0.00    -0.252 OA
ATOM     18  N   UNL     1      -0.010   1.723   3.107  0.00  0.00    -0.268 N 
ATOM     19  H   UNL     1      -0.825   1.288   3.402  0.00  0.00    +0.156 HD
BRANCH  18  20
ATOM     20  C   UNL     1       0.321   2.994   3.591  0.00  0.00    +0.049 A 
ATOM     21  C   UNL     1       1.024   3.883   2.789  0.00  0.00    +0.024 A 
ATOM     22  C   UNL     1       1.349   5.136   3.270  0.00  0.00    +0.002 A 
ATOM     23  C   UNL     1       0.974   5.507   4.548  0.00  0.00    +0.001 A 
ATOM     24  C   UNL     1       0.273   4.625   5.350  0.00  0.00    +0.017 A 
ATOM     25  C   UNL     1      -0.059   3.371   4.873  0.00  0.00    +0.039 A 
ATOM     26 BR   UNL     1      -1.024   2.167   5.967  0.00  0.00    -0.048 Br
ENDBRANCH  18  20
BRANCH  15  27
ATOM     27  C   UNL     1      -0.845  -0.681   2.049  0.00  0.00    +0.113 C 
BRANCH  27  28
ATOM     28  C   UNL     1      -1.942  -0.136   1.134  0.00  0.00    +0.000 C 
ATOM     29  C   UNL     1      -3.256  -0.866   1.422  0.00  0.00    +0.009 C 
ATOM     30  C   UNL     1      -2.124   1.361   1.390  0.00  0.00    +0.009 C 
ENDBRANCH  27  28
ENDBRANCH  15  27
ENDBRANCH   1  15
BRANCH   1  32
ATOM     31  C   UNL     1       0.198   0.259  -1.255  0.00  0.00    +0.006 C 
ATOM     32  C   UNL     1       0.554  -1.053  -0.552  0.00  0.00    +0.027 C 
ENDBRANCH   1  32
TORSDOF 7
