REMARK  Name = ZINC39267146
REMARK  9 active torsions:
REMARK  status: ('A' for Active; 'I' for Inactive)
REMARK    1  A    between atoms: CG_4  and  CB_7
REMARK    2  A    between atoms: CB_7  and  CA_8
REMARK    3  A    between atoms: C_13  and  C_18
REMARK    4  A    between atoms: C_18  and  C_19
REMARK    5  A    between atoms: N_21  and  C_22
REMARK    6  A    between atoms: C_22  and  C_23
REMARK    7  A    between atoms: C_23  and  C_24
REMARK    8  A    between atoms: C_27  and  S_30
REMARK    9  A    between atoms: S_30  and  N_33
REMARK                            x       y       z     vdW  Elec       q    Type
REMARK                         _______ _______ _______ _____ _____    ______ ____
ROOT
ATOM      1  C   UNK A   1       7.349   0.726   0.424  0.00  0.00    +0.127 C 
ENDROOT
BRANCH   1   6
ATOM      2  CA  PHE A   2       4.171  -0.963   1.399  0.00  0.00    +0.163 C 
ATOM      3  C   PHE A   2       5.403  -1.818   1.375  0.00  0.00    +0.234 C 
ATOM      4  O   PHE A   2       5.278  -3.012   1.204  0.00  0.00    -0.274 OA
ATOM      5  N   UNK A   1       6.632  -1.318   1.533  0.00  0.00    -0.302 N 
ATOM      6  C   UNK A   1       6.887   0.101   1.742  0.00  0.00    +0.168 C 
ATOM      7  C   UNK A   1       5.656   0.811   2.216  0.00  0.00    +0.234 C 
ATOM      8  O   UNK A   1       5.780   1.883   2.771  0.00  0.00    -0.274 OA
ATOM      9  N   PHE A   2       4.427   0.313   2.053  0.00  0.00    -0.302 N 
ATOM     10  H   UNK A   1       7.387  -1.927   1.508  0.00  0.00    +0.150 HD
ATOM     11  H   PHE A   2       3.672   0.825   2.383  0.00  0.00    +0.150 HD
BRANCH   2  12
ATOM     12  CB  PHE A   2       3.711  -0.707  -0.038  0.00  0.00    +0.067 C 
BRANCH  12  16
ATOM     13  CZ  PHE A   2      -0.017   1.378   0.010  0.00  0.00    +0.000 A 
ATOM     14  CE1 PHE A   2       1.171   2.086   0.002  0.00  0.00    +0.000 A 
ATOM     15  CD1 PHE A   2       2.377   1.411  -0.013  0.00  0.00    +0.004 A 
ATOM     16  CG  PHE A   2       2.396   0.029  -0.020  0.00  0.00    -0.045 A 
ATOM     17  CD2 PHE A   2       1.208  -0.679  -0.012  0.00  0.00    +0.004 A 
ATOM     18  CE2 PHE A   2       0.002  -0.004   0.002  0.00  0.00    +0.000 A 
ENDBRANCH  12  16
ENDBRANCH   2  12
ENDBRANCH   1   6
BRANCH   1  19
ATOM     19  C   UNK A   1       8.675   0.133   0.024  0.00  0.00    +0.215 C 
ATOM     20  O   UNK A   1       9.200  -0.708   0.724  0.00  0.00    -0.276 OA
ATOM     21  N   UNK A   1       9.278   0.536  -1.112  0.00  0.00    -0.315 N 
ATOM     22  H   UNK A   1       8.859   1.208  -1.672  0.00  0.00    +0.149 HD
BRANCH  21  23
ATOM     23  C   UNK A   1      10.568  -0.041  -1.501  0.00  0.00    +0.109 C 
BRANCH  23  24
ATOM     24  C   UNK A   1      11.029   0.585  -2.819  0.00  0.00    +0.054 C 
BRANCH  24  25
ATOM     25  C   UNK A   1      12.355  -0.009  -3.219  0.00  0.00    -0.046 A 
ATOM     26  C   UNK A   1      13.532   0.577  -2.791  0.00  0.00    +0.005 A 
ATOM     27  C   UNK A   1      14.748   0.033  -3.158  0.00  0.00    +0.029 A 
ATOM     28  C   UNK A   1      14.789  -1.097  -3.953  0.00  0.00    +0.105 A 
ATOM     29  C   UNK A   1      13.612  -1.683  -4.381  0.00  0.00    +0.029 A 
ATOM     30  C   UNK A   1      12.395  -1.142  -4.010  0.00  0.00    +0.005 A 
BRANCH  28  31
ATOM     31  S   UNK A   1      16.339  -1.790  -4.422  0.00  0.00    +0.056 S 
ATOM     32  O   UNK A   1      16.111  -2.525  -5.616  0.00  0.00    -0.153 OA
ATOM     33  O   UNK A   1      17.293  -0.740  -4.344  0.00  0.00    -0.153 OA
BRANCH  31  34
ATOM     34  N   UNK A   1      16.754  -2.894  -3.259  0.00  0.00    -0.204 NA
ATOM     35  H   UNK A   1      16.167  -3.044  -2.502  0.00  0.00    +0.144 HD
ATOM     36  H   UNK A   1      17.584  -3.390  -3.335  0.00  0.00    +0.144 HD
ENDBRANCH  31  34
ENDBRANCH  28  31
ENDBRANCH  24  25
ENDBRANCH  23  24
ENDBRANCH  21  23
ENDBRANCH   1  19
TORSDOF 9
