REMARK  Name = ZINC63686321
REMARK  5 active torsions:
REMARK  status: ('A' for Active; 'I' for Inactive)
REMARK    1  A    between atoms: C_4  and  N_7
REMARK    2  A    between atoms: N_7  and  C_8
REMARK    3  A    between atoms: C_11  and  C_30
REMARK    4  A    between atoms: C_13  and  N_16
REMARK    5  A    between atoms: C_17  and  C_19
REMARK                            x       y       z     vdW  Elec       q    Type
REMARK                         _______ _______ _______ _____ _____    ______ ____
ROOT
ATOM      1  C   UNL     1       3.641  -2.114  -0.044  0.00  0.00    +0.202 C 
ATOM      2  N   UNL     1       5.004  -2.620  -0.358  0.00  0.00    -0.277 NA
ATOM      3  C   UNL     1       5.825  -2.782   0.856  0.00  0.00    +0.173 C 
ATOM      4  C   UNL     1       4.996  -3.566   1.917  0.00  0.00    +0.160 C 
ATOM      5  S   UNL     1       3.341  -2.782   1.645  0.00  0.00    -0.099 S 
ATOM      6  H   UNL     1       4.958  -3.482  -0.881  0.00  0.00    +0.125 HD
ENDROOT
BRANCH   3   7
ATOM      7  C   UNL     1       7.076  -3.553   0.523  0.00  0.00    +0.230 C 
ATOM      8  O   UNL     1       7.128  -4.215  -0.492  0.00  0.00    -0.274 OA
ATOM      9  N   UNL     1       8.138  -3.506   1.352  0.00  0.00    -0.328 N 
ATOM     10  H   UNL     1       8.096  -2.976   2.164  0.00  0.00    +0.145 HD
ATOM     11  H   UNL     1       8.943  -4.002   1.137  0.00  0.00    +0.145 HD
ENDBRANCH   3   7
BRANCH   4  12
ATOM     12  N   UNL     1       4.963  -5.000   1.617  0.00  0.00    -0.300 N 
ATOM     13  C   UNL     1       5.165  -5.899   2.601  0.00  0.00    +0.240 C 
ATOM     14  O   UNL     1       5.374  -5.521   3.734  0.00  0.00    -0.273 OA
ATOM     15  H   UNL     1       4.796  -5.302   0.711  0.00  0.00    +0.150 HD
BRANCH  13  16
ATOM     16  C   UNL     1       5.131  -7.374   2.292  0.00  0.00    +0.190 C 
ATOM     17  C   UNL     1       3.761  -7.770   1.789  0.00  0.00    +0.016 C 
ATOM     18  C   UNL     1       3.288  -8.681   2.669  0.00  0.00    -0.002 A 
ATOM     19  C   UNL     1       2.031  -9.436   2.739  0.00  0.00    +0.029 A 
ATOM     20  C   UNL     1       1.839 -10.297   3.765  0.00  0.00    +0.042 A 
ATOM     21  C   UNL     1       2.809 -10.486   4.760  0.00  0.00    +0.022 A 
ATOM     22  C   UNL     1       3.988  -9.829   4.763  0.00  0.00    +0.027 A 
ATOM     23  C   UNL     1       4.295  -8.899   3.732  0.00  0.00    +0.043 A 
ATOM     24  N   UNL     1       5.352  -8.151   3.517  0.00  0.00    -0.370 N 
ATOM     25 CL   UNL     1       0.353 -11.191   3.852  0.00  0.00    -0.084 Cl
ATOM     26  H   UNL     1       6.146  -8.118   4.073  0.00  0.00    +0.161 HD
ENDBRANCH  13  16
ENDBRANCH   4  12
BRANCH   1  27
ATOM     27  N   UNL     1       3.620  -0.649  -0.036  0.00  0.00    -0.320 N 
ATOM     28  H   UNL     1       4.452  -0.152  -0.042  0.00  0.00    +0.148 HD
BRANCH  27  32
ATOM     29  C   UNL     1      -0.017   1.379   0.010  0.00  0.00    +0.000 A 
ATOM     30  C   UNL     1       1.169   2.089   0.002  0.00  0.00    +0.002 A 
ATOM     31  C   UNL     1       2.377   1.420  -0.013  0.00  0.00    +0.023 A 
ATOM     32  C   UNL     1       2.400   0.031  -0.021  0.00  0.00    +0.029 A 
ATOM     33  C   UNL     1       1.206  -0.680  -0.013  0.00  0.00    +0.023 A 
ATOM     34  C   UNL     1       0.002  -0.004   0.002  0.00  0.00    +0.002 A 
ENDBRANCH  27  32
ENDBRANCH   1  27
TORSDOF 5
