REMARK  Name = ZINC40916170
REMARK  8 active torsions:
REMARK  status: ('A' for Active; 'I' for Inactive)
REMARK    1  A    between atoms: C_1  and  C_2
REMARK    2  A    between atoms: C_3  and  C_28
REMARK    3  A    between atoms: C_4  and  C_12
REMARK    4  A    between atoms: C_16  and  O_18
REMARK    5  A    between atoms: O_18  and  C_19
REMARK    6  A    between atoms: C_19  and  C_20
REMARK    7  A    between atoms: C_28  and  O_30
REMARK    8  A    between atoms: O_30  and  C_31
REMARK                            x       y       z     vdW  Elec       q    Type
REMARK                         _______ _______ _______ _____ _____    ______ ____
ROOT
ATOM      1  C   UNL     1      -1.716  -2.644   1.362  0.00  0.00    -0.015 A 
ATOM      2  C   UNL     1      -0.972  -2.346   2.489  0.00  0.00    +0.006 A 
ATOM      3  C   UNL     1      -1.393  -2.778   3.733  0.00  0.00    +0.004 A 
ATOM      4  C   UNL     1      -2.559  -3.509   3.853  0.00  0.00    +0.045 A 
ATOM      5  C   UNL     1      -3.308  -3.809   2.724  0.00  0.00    +0.121 A 
ATOM      6  C   UNL     1      -2.885  -3.369   1.477  0.00  0.00    +0.051 A 
ENDROOT
BRANCH   1  10
ATOM      7  C   UNL     1      -0.018   1.503   0.010  0.00  0.00    +0.061 C 
ATOM      8  C   UNL     1       0.002  -0.004   0.002  0.00  0.00    +0.020 C 
ATOM      9  C   UNL     1      -1.164  -0.668   0.004  0.00  0.00    +0.082 C 
ATOM     10  C   UNL     1      -1.253  -2.171   0.008  0.00  0.00    +0.179 C 
ATOM     11  N   UNL     1       0.061  -2.737  -0.283  0.00  0.00    -0.221 N 
ATOM     12  C   UNL     1       1.207  -2.012  -0.280  0.00  0.00    +0.218 A 
ATOM     13  N   UNL     1       2.193  -2.817  -0.570  0.00  0.00    -0.201 NA
ATOM     14  C   UNL     1       1.720  -4.051  -0.766  0.00  0.00    +0.247 A 
ATOM     15  N   UNL     1       0.420  -4.046  -0.602  0.00  0.00    -0.156 NA
ATOM     16  N   UNL     1       1.212  -0.651  -0.013  0.00  0.00    -0.287 N 
ATOM     17  H   UNL     1       2.040  -0.175   0.160  0.00  0.00    +0.155 HD
BRANCH   9  18
ATOM     18  C   UNL     1      -2.364   0.077   0.003  0.00  0.00    +0.339 C 
ATOM     19  O   UNL     1      -2.324   1.294   0.000  0.00  0.00    -0.245 OA
BRANCH  18  20
ATOM     20  O   UNL     1      -3.554  -0.559   0.005  0.00  0.00    -0.465 OA
ATOM     21  C   UNL     1      -4.726   0.258   0.004  0.00  0.00    +0.280 C 
ENDBRANCH  18  20
ENDBRANCH   9  18
ENDBRANCH   1  10
BRANCH   5  22
ATOM     22  O   UNL     1      -4.455  -4.529   2.839  0.00  0.00    -0.487 OA
BRANCH  22  23
ATOM     23  C   UNL     1      -4.831  -4.943   4.154  0.00  0.00    +0.266 C 
BRANCH  23  24
ATOM     24  C   UNL     1      -6.119  -5.723   4.085  0.00  0.00    +0.008 A 
ATOM     25  C   UNL     1      -6.734  -5.936   2.866  0.00  0.00    +0.010 A 
ATOM     26  C   UNL     1      -7.915  -6.651   2.802  0.00  0.00    +0.020 A 
ATOM     27  C   UNL     1      -8.483  -7.154   3.959  0.00  0.00    +0.042 A 
ATOM     28  C   UNL     1      -7.868  -6.942   5.180  0.00  0.00    +0.040 A 
ATOM     29  C   UNL     1      -6.683  -6.230   5.242  0.00  0.00    +0.049 A 
ATOM     30 CL   UNL     1      -5.907  -5.968   6.773  0.00  0.00    -0.083 Cl
ATOM     31 CL   UNL     1      -9.966  -8.051   3.879  0.00  0.00    -0.083 Cl
ENDBRANCH  23  24
ENDBRANCH  22  23
ENDBRANCH   5  22
TORSDOF 6
