REMARK  Name = ZINC11855155
REMARK  7 active torsions:
REMARK  status: ('A' for Active; 'I' for Inactive)
REMARK    1  A    between atoms: C_1  and  C_2
REMARK    2  A    between atoms: C_2  and  C_3
REMARK    3  A    between atoms: C_4  and  C_36
REMARK    4  A    between atoms: C_12  and  N_21
REMARK    5  A    between atoms: C_14  and  C_16
REMARK    6  A    between atoms: C_22  and  C_24
REMARK    7  A    between atoms: C_24  and  C_29
REMARK                            x       y       z     vdW  Elec       q    Type
REMARK                         _______ _______ _______ _____ _____    ______ ____
ROOT
ATOM      1  C   UNL     1      -4.356   3.202  -6.888  0.00  0.00    +0.038 A 
ATOM      2  C   UNL     1      -3.935   2.812  -5.651  0.00  0.00    +0.050 A 
ATOM      3  N   UNL     1      -2.651   2.931  -5.315  0.00  0.00    -0.217 NA
ATOM      4  C   UNL     1      -1.768   3.432  -6.151  0.00  0.00    +0.234 A 
ATOM      5  N   UNL     1      -2.128   3.838  -7.397  0.00  0.00    -0.291 N 
ATOM      6  H   UNL     1      -1.462   4.202  -8.002  0.00  0.00    +0.172 HD
ATOM      7  C   UNL     1      -3.416   3.734  -7.790  0.00  0.00    +0.256 A 
ATOM      8  O   UNL     1      -3.757   4.093  -8.905  0.00  0.00    -0.267 OA
ATOM      9  N   UNL     1      -0.448   3.542  -5.756  0.00  0.00    -0.185 N 
ATOM     10  C   UNL     1       0.060   3.178  -4.542  0.00  0.00    +0.132 A 
ATOM     11  C   UNL     1       1.389   3.452  -4.553  0.00  0.00    +0.074 A 
ATOM     12  C   UNL     1       1.708   3.994  -5.816  0.00  0.00    +0.102 A 
ATOM     13  N   UNL     1       0.603   4.048  -6.532  0.00  0.00    -0.162 NA
ATOM     14  C   UNL     1      -4.921   2.239  -4.666  0.00  0.00    +0.066 C 
ENDROOT
BRANCH  12  15
ATOM     15  C   UNL     1       3.049   4.430  -6.259  0.00  0.00    +0.039 A 
ATOM     16  C   UNL     1       3.429   4.966  -7.460  0.00  0.00    +0.018 A 
ATOM     17  C   UNL     1       4.753   5.302  -7.646  0.00  0.00    +0.008 A 
ATOM     18  C   UNL     1       5.637   5.092  -6.637  0.00  0.00    +0.046 A 
ATOM     19  S   UNL     1       4.593   4.403  -5.363  0.00  0.00    -0.095 S 
ENDBRANCH  12  15
BRANCH  10  20
ATOM     20  N   UNL     1      -0.657   2.629  -3.481  0.00  0.00    -0.269 N 
ATOM     21  C   UNL     1      -0.027   2.314  -2.333  0.00  0.00    +0.229 C 
ATOM     22  O   UNL     1       1.145   2.592  -2.188  0.00  0.00    -0.274 OA
ATOM     23  H   UNL     1      -1.611   2.474  -3.570  0.00  0.00    +0.156 HD
BRANCH  21  24
ATOM     24  C   UNL     1      -0.777   1.616  -1.228  0.00  0.00    +0.072 C 
ATOM     25  C   UNL     1       0.168   1.330  -0.048  0.00  0.00    +0.021 C 
ATOM     26  C   UNL     1      -0.407   2.083   1.170  0.00  0.00    +0.001 C 
ATOM     27  C   UNL     1      -1.258   3.219   0.547  0.00  0.00    +0.001 C 
ATOM     28  C   UNL     1      -1.894   2.532  -0.687  0.00  0.00    +0.021 C 
BRANCH  24  29
ATOM     29  C   UNL     1      -1.369   0.328  -1.740  0.00  0.00    -0.032 A 
ATOM     30  C   UNL     1      -2.247  -0.391  -0.950  0.00  0.00    +0.006 A 
ATOM     31  C   UNL     1      -2.794  -1.569  -1.421  0.00  0.00    +0.020 A 
ATOM     32  C   UNL     1      -2.454  -2.036  -2.678  0.00  0.00    +0.041 A 
ATOM     33  C   UNL     1      -1.570  -1.320  -3.465  0.00  0.00    +0.020 A 
ATOM     34  C   UNL     1      -1.028  -0.139  -2.996  0.00  0.00    +0.006 A 
ATOM     35 CL   UNL     1      -3.136  -3.520  -3.267  0.00  0.00    -0.084 Cl
ENDBRANCH  24  29
ENDBRANCH  21  24
ENDBRANCH  10  20
BRANCH   1  37
ATOM     36  C   UNL     1      -6.529   4.389  -7.023  0.00  0.00    +0.009 C 
ATOM     37  C   UNL     1      -5.805   3.067  -7.282  0.00  0.00    +0.039 C 
ENDBRANCH   1  37
TORSDOF 5
