REMARK  Name = ZINC20616201
REMARK  9 active torsions:
REMARK  status: ('A' for Active; 'I' for Inactive)
REMARK    1  A    between atoms: C_1  and  C_2
REMARK    2  A    between atoms: C_2  and  O_3
REMARK    3  A    between atoms: O_3  and  C_4
REMARK    4  A    between atoms: C_7  and  C_27
REMARK    5  A    between atoms: C_9  and  C_10
REMARK    6  A    between atoms: C_10  and  N_11
REMARK    7  A    between atoms: N_28  and  N_29
REMARK    8  A    between atoms: C_30  and  C_32
REMARK    9  A    between atoms: C_37  and  C_38
REMARK                            x       y       z     vdW  Elec       q    Type
REMARK                         _______ _______ _______ _____ _____    ______ ____
ROOT
ATOM      1  C   UNL     1      -1.254  -2.013   1.888  0.00  0.00    +0.122 A 
ATOM      2  C   UNL     1      -0.162  -2.841   1.663  0.00  0.00    +0.046 A 
ATOM      3  C   UNL     1      -0.352  -4.183   1.419  0.00  0.00    +0.013 A 
ATOM      4  C   UNL     1      -1.646  -4.712   1.398  0.00  0.00    -0.005 A 
ATOM      5  C   UNL     1      -2.741  -3.875   1.625  0.00  0.00    +0.014 A 
ATOM      6  C   UNL     1      -2.542  -2.534   1.874  0.00  0.00    -0.022 A 
ENDROOT
BRANCH   4   7
ATOM      7  C   UNL     1      -1.854  -6.147   1.136  0.00  0.00    +0.138 C 
ATOM      8  N   UNL     1      -0.835  -6.923   0.924  0.00  0.00    -0.187 NA
BRANCH   8   9
ATOM      9  N   UNL     1      -1.032  -8.288   0.676  0.00  0.00    -0.203 N 
ATOM     10  C   UNL     1       0.026  -9.093   0.456  0.00  0.00    +0.264 C 
ATOM     11  O   UNL     1       1.152  -8.635   0.474  0.00  0.00    -0.268 OA
ATOM     12  H   UNL     1      -1.931  -8.653   0.662  0.00  0.00    +0.178 HD
BRANCH  10  13
ATOM     13  C   UNL     1      -0.183 -10.532   0.194  0.00  0.00    +0.041 A 
ATOM     14  C   UNL     1      -1.460 -11.087   0.301  0.00  0.00    +0.013 A 
ATOM     15  C   UNL     1      -1.648 -12.431   0.054  0.00  0.00    +0.001 A 
ATOM     16  C   UNL     1      -0.574 -13.229  -0.299  0.00  0.00    +0.000 A 
ATOM     17  C   UNL     1       0.694 -12.686  -0.407  0.00  0.00    +0.004 A 
ATOM     18  C   UNL     1       0.895 -11.342  -0.168  0.00  0.00    -0.038 A 
ATOM     19  C   UNL     1       2.276 -10.752  -0.291  0.00  0.00    +0.044 C 
ENDBRANCH  10  13
ENDBRANCH   8   9
ENDBRANCH   4   7
BRANCH   1  20
ATOM     20  O   UNL     1      -1.063  -0.689   2.128  0.00  0.00    -0.492 OA
BRANCH  20  22
ATOM     21  C   UNL     1       0.303   1.284   2.415  0.00  0.00    +0.048 C 
ATOM     22  C   UNL     1       0.287  -0.219   2.129  0.00  0.00    +0.225 C 
ENDBRANCH  20  22
ENDBRANCH   1  20
BRANCH   6  23
ATOM     23  C   UNL     1      -3.722  -1.631   2.125  0.00  0.00    -0.039 C 
BRANCH  23  24
ATOM     24  N   UNL     1      -4.046  -0.895   0.896  0.00  0.00    +0.383 N 
ATOM     25  C   UNL     1      -5.269  -0.116   1.103  0.00  0.00    -0.073 C 
ATOM     26  C   UNL     1      -5.641   0.667  -0.148  0.00  0.00    -0.007 C 
ATOM     27  C   UNL     1      -4.485   1.571  -0.585  0.00  0.00    +0.011 C 
ATOM     28  C   UNL     1      -3.255   0.677  -0.787  0.00  0.00    +0.020 C 
ATOM     29  C   UNL     1      -2.933   0.004   0.557  0.00  0.00    -0.069 C 
ATOM     30  C   UNL     1      -3.591  -0.408  -1.784  0.00  0.00    +0.023 A 
ATOM     31  C   UNL     1      -2.575  -0.907  -2.537  0.00  0.00    +0.022 A 
ATOM     32  C   UNL     1      -2.804  -1.957  -3.433  0.00  0.00    +0.007 A 
ATOM     33  C   UNL     1      -4.057  -2.488  -3.520  0.00  0.00    +0.070 A 
ATOM     34  C   UNL     1      -5.082  -1.953  -2.727  0.00  0.00    +0.251 A 
ATOM     35  O   UNL     1      -6.192  -2.460  -2.751  0.00  0.00    -0.268 OA
ATOM     36  N   UNL     1      -4.852  -0.878  -1.933  0.00  0.00    -0.312 N 
ATOM     37  C   UNL     1      -6.010  -0.253  -1.300  0.00  0.00    +0.126 C 
ATOM     38  H   UNL     1      -4.190  -1.550   0.141  0.00  0.00    -0.081 HD
ENDBRANCH  23  24
ENDBRANCH   6  23
TORSDOF 7
