REMARK  Name = ZINC36309257
REMARK  16 active torsions:
REMARK  status: ('A' for Active; 'I' for Inactive)
REMARK    1  A    between atoms: C_1  and  C_2
REMARK    2  A    between atoms: C_2  and  C_3
REMARK    3  A    between atoms: C_3  and  C_4
REMARK    4  A    between atoms: C_4  and  C_6
REMARK    5  A    between atoms: C_4  and  O_35
REMARK    6  A    between atoms: C_6  and  N_7
REMARK    7  A    between atoms: N_7  and  C_8
REMARK    8  A    between atoms: N_7  and  C_11
REMARK    9  A    between atoms: C_8  and  C_9
REMARK   10  A    between atoms: C_11  and  C_12
REMARK   11  A    between atoms: C_22  and  C_24
REMARK   12  A    between atoms: C_24  and  O_25
REMARK   13  A    between atoms: O_25  and  C_26
REMARK   14  A    between atoms: C_29  and  C_32
REMARK   15  A    between atoms: C_32  and  C_33
REMARK   16  A    between atoms: C_32  and  C_34
REMARK                            x       y       z     vdW  Elec       q    Type
REMARK                         _______ _______ _______ _____ _____    ______ ____
ROOT
ATOM      1  C   UNL     1      -3.575  -6.348   0.804  0.00  0.00    +0.200 C 
ATOM      2  O   UNL     1      -2.434  -6.749   0.718  0.00  0.00    -0.278 OA
ATOM      3  N   UNL     1      -4.576  -7.213   1.062  0.00  0.00    -0.292 N 
ATOM      4  C   UNL     1      -5.964  -6.738   1.162  0.00  0.00    +0.113 C 
ATOM      5  C   UNL     1      -6.772  -7.363   0.014  0.00  0.00    +0.061 C 
ATOM      6  C   UNL     1      -6.394  -8.804  -0.108  0.00  0.00    -0.004 A 
ATOM      7  C   UNL     1      -5.303  -9.429   0.413  0.00  0.00    -0.014 A 
ATOM      8  C   UNL     1      -5.176 -10.791   0.144  0.00  0.00    +0.013 A 
ATOM      9  C   UNL     1      -6.113 -11.426  -0.596  0.00  0.00    +0.046 A 
ATOM     10  S   UNL     1      -7.253 -10.099  -0.962  0.00  0.00    -0.101 S 
ATOM     11  C   UNL     1      -4.296  -8.644   1.242  0.00  0.00    +0.144 C 
ENDROOT
BRANCH   1  12
ATOM     12  C   UNL     1      -3.874  -4.882   0.621  0.00  0.00    +0.019 C 
BRANCH  12  13
ATOM     13  N   UNL     1      -2.625  -4.158   0.351  0.00  0.00    +0.389 N 
ATOM     14  H   UNL     1      -1.962  -4.344   1.089  0.00  0.00    -0.081 HD
BRANCH  13  15
ATOM     15  C   UNL     1      -2.899  -2.716   0.292  0.00  0.00    -0.046 C 
BRANCH  15  16
ATOM     16  C   UNL     1      -3.339  -2.223   1.671  0.00  0.00    +0.098 C 
BRANCH  16  17
ATOM     17  O   UNL     1      -2.298  -2.466   2.619  0.00  0.00    -0.394 OA
ATOM     18  H   UNL     1      -1.488  -1.964   2.452  0.00  0.00    +0.210 HD
ENDBRANCH  16  17
BRANCH  16  19
ATOM     19  C   UNL     1      -3.630  -0.722   1.608  0.00  0.00    +0.029 C 
BRANCH  19  21
ATOM     20  C   UNL     1      -4.479   1.248   2.889  0.00  0.00    +0.004 C 
ATOM     21  C   UNL     1      -4.188  -0.253   2.953  0.00  0.00    -0.001 C 
ENDBRANCH  19  21
ENDBRANCH  16  19
ENDBRANCH  15  16
ENDBRANCH  13  15
BRANCH  13  22
ATOM     22  C   UNL     1      -2.067  -4.604  -0.932  0.00  0.00    -0.051 C 
BRANCH  22  23
ATOM     23  C   UNL     1      -0.715  -3.971  -1.140  0.00  0.00    -0.053 C 
ATOM     24  C   UNL     1       0.334  -4.724  -1.359  0.00  0.00    +0.002 C 
ENDBRANCH  22  23
ENDBRANCH  13  22
ENDBRANCH  12  13
ENDBRANCH   1  12
BRANCH  11  25
ATOM     25  C   UNL     1      -4.443  -9.018   2.719  0.00  0.00    +0.256 C 
BRANCH  25  26
ATOM     26  O   UNL     1      -5.804  -8.850   3.120  0.00  0.00    -0.490 OA
BRANCH  26  27
ATOM     27  C   UNL     1      -6.108  -9.142   4.412  0.00  0.00    +0.121 A 
ATOM     28  C   UNL     1      -5.114  -9.577   5.277  0.00  0.00    +0.046 A 
ATOM     29  C   UNL     1      -5.425  -9.873   6.590  0.00  0.00    +0.007 A 
ATOM     30  C   UNL     1      -6.725  -9.737   7.042  0.00  0.00    -0.045 A 
ATOM     31  C   UNL     1      -7.717  -9.304   6.181  0.00  0.00    +0.007 A 
ATOM     32  C   UNL     1      -7.410  -9.001   4.869  0.00  0.00    +0.046 A 
BRANCH  30  33
ATOM     33  C   UNL     1      -7.061 -10.061   8.475  0.00  0.00    +0.013 C 
ATOM     34  C   UNL     1      -7.629  -8.816   9.160  0.00  0.00    +0.012 C 
ATOM     35  C   UNL     1      -8.101 -11.183   8.513  0.00  0.00    +0.012 C 
ENDBRANCH  30  33
ENDBRANCH  26  27
ENDBRANCH  25  26
ENDBRANCH  11  25
TORSDOF 13
