REMARK  Name = ZINC30977689
REMARK  11 active torsions:
REMARK  status: ('A' for Active; 'I' for Inactive)
REMARK    1  A    between atoms: C_1  and  C_2
REMARK    2  A    between atoms: C_2  and  C_3
REMARK    3  A    between atoms: C_2  and  C_4
REMARK    4  A    between atoms: C_2  and  C_5
REMARK    5  A    between atoms: C_8  and  C_11
REMARK    6  A    between atoms: C_13  and  C_16
REMARK    7  A    between atoms: C_16  and  N_17
REMARK    8  A    between atoms: C_20  and  C_23
REMARK    9  A    between atoms: N_25  and  C_26
REMARK   10  A    between atoms: C_26  and  C_27
REMARK   11  A    between atoms: C_32  and  N_33
REMARK                            x       y       z     vdW  Elec       q    Type
REMARK                         _______ _______ _______ _____ _____    ______ ____
ROOT
ATOM      1  N   UNL     1      -6.906   3.871   4.932  0.00  0.00    +0.386 N 
ATOM      2  C   UNL     1      -6.709   5.264   4.512  0.00  0.00    -0.077 C 
ATOM      3  C   UNL     1      -6.132   5.295   3.095  0.00  0.00    -0.006 C 
ATOM      4  C   UNL     1      -4.798   4.543   3.077  0.00  0.00    +0.071 C 
ATOM      5  C   UNL     1      -5.023   3.109   3.564  0.00  0.00    -0.006 C 
ATOM      6  C   UNL     1      -5.632   3.142   4.967  0.00  0.00    -0.077 C 
ATOM      7  H   UNL     1      -7.551   3.384   4.185  0.00  0.00    -0.081 HD
ENDROOT
BRANCH   4   8
ATOM      8  C   UNL     1      -4.253   4.519   1.672  0.00  0.00    +0.216 C 
ATOM      9  O   UNL     1      -4.870   5.050   0.773  0.00  0.00    -0.276 OA
ATOM     10  N   UNL     1      -3.081   3.906   1.414  0.00  0.00    -0.311 N 
ATOM     11  H   UNL     1      -2.521   3.425   2.229  0.00  0.00    +0.149 HD
BRANCH  10  12
ATOM     12  C   UNL     1      -2.551   3.882   0.048  0.00  0.00    +0.141 C 
BRANCH  12  13
ATOM     13  C   UNL     1      -1.239   3.142   0.031  0.00  0.00    -0.007 A 
ATOM     14  C   UNL     1      -0.049   3.844   0.023  0.00  0.00    +0.007 A 
ATOM     15  C   UNL     1       1.155   3.166   0.008  0.00  0.00    +0.000 A 
ATOM     16  C   UNL     1       1.173   1.783   0.000  0.00  0.00    +0.002 A 
ATOM     17  C   UNL     1      -0.013   1.076   0.008  0.00  0.00    +0.026 A 
ATOM     18  C   UNL     1      -1.224   1.754   0.017  0.00  0.00    +0.052 A 
BRANCH  18  19
ATOM     19  N   UNL     1      -2.430   1.039   0.019  0.00  0.00    -0.306 N 
ATOM     20  C   UNL     1      -2.775   0.022  -0.833  0.00  0.00    +0.112 A 
ATOM     21  C   UNL     1      -4.011  -0.381  -0.479  0.00  0.00    +0.130 A 
ATOM     22  N   UNL     1      -4.417   0.372   0.554  0.00  0.00    -0.244 NA
ATOM     23  C   UNL     1      -3.479   1.226   0.862  0.00  0.00    +0.204 A 
ENDBRANCH  18  19
ENDBRANCH  12  13
ENDBRANCH  10  12
ENDBRANCH   4   8
BRANCH   1  24
ATOM     24  C   UNL     1      -7.588   3.804   6.231  0.00  0.00    +0.022 C 
BRANCH  24  27
ATOM     25  C   UNL     1      -8.035   0.359   7.156  0.00  0.00    +0.202 A 
ATOM     26  N   UNL     1      -7.274   1.477   7.136  0.00  0.00    -0.193 NA
ATOM     27  C   UNL     1      -7.991   2.380   6.514  0.00  0.00    +0.211 A 
ATOM     28  O   UNL     1      -9.150   1.802   6.182  0.00  0.00    -0.340 OA
ATOM     29  N   UNL     1      -9.158   0.646   6.550  0.00  0.00    -0.056 NA
BRANCH  25  33
ATOM     30  C   UNL     1      -6.974  -3.388   8.862  0.00  0.00    -0.042 A 
ATOM     31  C   UNL     1      -8.205  -3.233   8.252  0.00  0.00    +0.005 A 
ATOM     32  C   UNL     1      -8.555  -2.019   7.697  0.00  0.00    +0.012 A 
ATOM     33  C   UNL     1      -7.665  -0.949   7.752  0.00  0.00    +0.022 A 
ATOM     34  C   UNL     1      -6.424  -1.112   8.363  0.00  0.00    +0.012 A 
ATOM     35  C   UNL     1      -6.086  -2.329   8.919  0.00  0.00    +0.005 A 
BRANCH  30  37
ATOM     36  C   UNL     1      -6.612  -5.794   8.380  0.00  0.00    +0.015 C 
ATOM     37  C   UNL     1      -6.597  -4.716   9.467  0.00  0.00    -0.013 C 
ATOM     38  C   UNL     1      -5.195  -4.622  10.072  0.00  0.00    +0.015 C 
ATOM     39  C   UNL     1      -7.602  -5.082  10.561  0.00  0.00    +0.015 C 
ENDBRANCH  30  37
ENDBRANCH  25  33
ENDBRANCH  24  27
ENDBRANCH   1  24
TORSDOF 8
