REMARK  Name = ZINC22321989
REMARK  17 active torsions:
REMARK  status: ('A' for Active; 'I' for Inactive)
REMARK    1  A    between atoms: C_1  and  C_2
REMARK    2  A    between atoms: C_2  and  O_3
REMARK    3  A    between atoms: O_3  and  C_4
REMARK    4  A    between atoms: C_9  and  N_10
REMARK    5  A    between atoms: N_10  and  C_11
REMARK    6  A    between atoms: N_10  and  S_28
REMARK    7  A    between atoms: C_11  and  C_12
REMARK    8  A    between atoms: N_14  and  C_15
REMARK    9  A    between atoms: C_15  and  C_16
REMARK   10  A    between atoms: C_16  and  C_17
REMARK   11  A    between atoms: C_17  and  C_18
REMARK   12  A    between atoms: C_21  and  O_24
REMARK   13  A    between atoms: O_24  and  C_25
REMARK   14  A    between atoms: C_25  and  C_26
REMARK   15  A    between atoms: C_25  and  C_27
REMARK   16  A    between atoms: S_28  and  C_31
REMARK   17  A    between atoms: C_34  and  C_37
REMARK                            x       y       z     vdW  Elec       q    Type
REMARK                         _______ _______ _______ _____ _____    ______ ____
ROOT
ATOM      1  N   UNL     1       0.631   2.016   1.827  0.00  0.00    -0.191 N 
ENDROOT
BRANCH   1   7
ATOM      2  C   UNL     1       2.308   2.912   3.323  0.00  0.00    +0.143 A 
ATOM      3  C   UNL     1       3.511   3.570   3.518  0.00  0.00    +0.047 A 
ATOM      4  C   UNL     1       4.251   3.996   2.430  0.00  0.00    +0.004 A 
ATOM      5  C   UNL     1       3.793   3.767   1.146  0.00  0.00    +0.002 A 
ATOM      6  C   UNL     1       2.596   3.107   0.943  0.00  0.00    +0.028 A 
ATOM      7  C   UNL     1       1.846   2.681   2.030  0.00  0.00    +0.093 A 
BRANCH   2   8
ATOM      8  O   UNL     1       1.580   2.491   4.393  0.00  0.00    -0.490 OA
BRANCH   8  10
ATOM      9  C   UNL     1       1.165   2.220   6.758  0.00  0.00    +0.048 C 
ATOM     10  C   UNL     1       2.116   2.763   5.689  0.00  0.00    +0.226 C 
ENDBRANCH   8  10
ENDBRANCH   2   8
ENDBRANCH   1   7
BRANCH   1  11
ATOM     11  S   UNL     1      -0.790   2.865   1.846  0.00  0.00    +0.075 S 
ATOM     12  O   UNL     1      -0.463   4.212   1.531  0.00  0.00    -0.150 OA
ATOM     13  O   UNL     1      -1.724   2.111   1.086  0.00  0.00    -0.150 OA
BRANCH  11  14
ATOM     14  C   UNL     1      -1.375   2.864   3.508  0.00  0.00    +0.109 A 
ATOM     15  C   UNL     1      -2.216   1.856   3.944  0.00  0.00    +0.029 A 
ATOM     16  C   UNL     1      -2.671   1.853   5.249  0.00  0.00    +0.005 A 
ATOM     17  C   UNL     1      -2.294   2.862   6.115  0.00  0.00    -0.050 A 
ATOM     18  C   UNL     1      -1.458   3.872   5.678  0.00  0.00    +0.005 A 
ATOM     19  C   UNL     1      -0.999   3.873   4.374  0.00  0.00    +0.029 A 
ATOM     20  C   UNL     1      -2.795   2.861   7.537  0.00  0.00    +0.044 C 
ENDBRANCH  11  14
ENDBRANCH   1  11
BRANCH   1  21
ATOM     21  C   UNL     1       0.618   0.570   1.591  0.00  0.00    +0.227 C 
BRANCH  21  22
ATOM     22  C   UNL     1       0.628  -0.154   2.912  0.00  0.00    +0.232 C 
ATOM     23  O   UNL     1       0.644   0.475   3.949  0.00  0.00    -0.274 OA
ATOM     24  N   UNL     1       0.618  -1.501   2.942  0.00  0.00    -0.314 N 
ATOM     25  H   UNL     1       0.603  -2.072   2.002  0.00  0.00    +0.149 HD
BRANCH  24  26
ATOM     26  C   UNL     1       0.627  -2.206   4.227  0.00  0.00    +0.104 C 
BRANCH  26  27
ATOM     27  C   UNL     1       0.613  -3.716   3.981  0.00  0.00    +0.023 C 
BRANCH  27  28
ATOM     28  C   UNL     1       0.623  -4.451   5.322  0.00  0.00    +0.036 C 
BRANCH  28  29
ATOM     29  C   UNL     1       0.609  -5.938   5.080  0.00  0.00    -0.047 A 
ATOM     30  C   UNL     1      -0.595  -6.612   4.989  0.00  0.00    +0.007 A 
ATOM     31  C   UNL     1      -0.610  -7.974   4.761  0.00  0.00    +0.046 A 
ATOM     32  C   UNL     1       0.584  -8.669   4.635  0.00  0.00    +0.121 A 
ATOM     33  C   UNL     1       1.791  -7.992   4.733  0.00  0.00    +0.046 A 
ATOM     34  C   UNL     1       1.801  -6.628   4.956  0.00  0.00    +0.007 A 
BRANCH  32  35
ATOM     35  O   UNL     1       0.572 -10.010   4.416  0.00  0.00    -0.489 OA
BRANCH  35  36
ATOM     36  C   UNL     1       1.832 -10.640   4.179  0.00  0.00    +0.167 C 
ATOM     37  C   UNL     1       2.490 -10.983   5.517  0.00  0.00    +0.051 C 
ATOM     38  C   UNL     1       1.617 -11.923   3.374  0.00  0.00    +0.051 C 
ENDBRANCH  35  36
ENDBRANCH  32  35
ENDBRANCH  28  29
ENDBRANCH  27  28
ENDBRANCH  26  27
ENDBRANCH  24  26
ENDBRANCH  21  22
ENDBRANCH   1  21
TORSDOF 13
