REMARK  Name = ZINC37050540
REMARK  12 active torsions:
REMARK  status: ('A' for Active; 'I' for Inactive)
REMARK    1  A    between atoms: C_1  and  C_2
REMARK    2  A    between atoms: C_2  and  O_3
REMARK    3  A    between atoms: O_3  and  C_4
REMARK    4  A    between atoms: C_4  and  C_6
REMARK    5  A    between atoms: N_11  and  C_13
REMARK    6  A    between atoms: C_13  and  C_14
REMARK    7  A    between atoms: C_14  and  C_16
REMARK    8  A    between atoms: C_14  and  O_37
REMARK    9  A    between atoms: C_16  and  O_17
REMARK   10  A    between atoms: O_17  and  C_18
REMARK   11  A    between atoms: C_25  and  C_36
REMARK   12  A    between atoms: C_26  and  C_29
REMARK                            x       y       z     vdW  Elec       q    Type
REMARK                         _______ _______ _______ _____ _____    ______ ____
ROOT
ATOM      1  C   UNL     1      -6.718 -10.057  -0.117  0.00  0.00    +0.124 A 
ATOM      2  C   UNL     1      -5.558 -10.819   0.013  0.00  0.00    +0.046 A 
ATOM      3  C   UNL     1      -5.629 -12.183   0.035  0.00  0.00    +0.019 A 
ATOM      4  C   UNL     1      -6.869 -12.812  -0.074  0.00  0.00    +0.065 A 
ATOM      5  C   UNL     1      -8.045 -12.054  -0.213  0.00  0.00    +0.142 A 
ATOM      6  C   UNL     1      -7.956 -10.668  -0.225  0.00  0.00    +0.092 A 
ATOM      7  O   UNL     1      -9.239 -12.666  -0.334  0.00  0.00    -0.459 OA
ATOM      8  C   UNL     1      -9.402 -13.956  -0.031  0.00  0.00    +0.114 A 
ATOM      9  C   UNL     1      -8.358 -14.813   0.118  0.00  0.00    +0.067 A 
ATOM     10  C   UNL     1      -6.992 -14.282  -0.046  0.00  0.00    +0.200 A 
ATOM     11  O   UNL     1      -6.022 -15.014  -0.153  0.00  0.00    -0.286 OA
ATOM     12  C   UNL     1     -10.802 -14.483   0.152  0.00  0.00    +0.087 C 
ENDROOT
BRANCH   9  13
ATOM     13  C   UNL     1      -8.587 -16.243   0.438  0.00  0.00    -0.011 A 
ATOM     14  C   UNL     1      -9.165 -16.604   1.654  0.00  0.00    +0.011 A 
ATOM     15  C   UNL     1      -9.376 -17.935   1.948  0.00  0.00    +0.039 A 
ATOM     16  C   UNL     1      -9.015 -18.913   1.036  0.00  0.00    +0.123 A 
ATOM     17  C   UNL     1      -8.440 -18.560  -0.174  0.00  0.00    +0.039 A 
ATOM     18  C   UNL     1      -8.230 -17.230  -0.479  0.00  0.00    +0.011 A 
ATOM     19  F   UNL     1      -9.223 -20.216   1.327  0.00  0.00    -0.205 F 
ENDBRANCH   9  13
BRANCH   1  20
ATOM     20  O   UNL     1      -6.633  -8.703  -0.134  0.00  0.00    -0.489 OA
BRANCH  20  21
ATOM     21  C   UNL     1      -5.328  -8.133  -0.020  0.00  0.00    +0.258 C 
BRANCH  21  22
ATOM     22  C   UNL     1      -5.433  -6.606  -0.058  0.00  0.00    +0.135 C 
BRANCH  22  23
ATOM     23  O   UNL     1      -6.147  -6.149   1.092  0.00  0.00    -0.390 OA
ATOM     24  H   UNL     1      -5.732  -6.386   1.933  0.00  0.00    +0.210 HD
ENDBRANCH  22  23
BRANCH  22  25
ATOM     25  C   UNL     1      -4.029  -5.999  -0.061  0.00  0.00    -0.044 C 
BRANCH  25  30
ATOM     26  C   UNL     1      -4.902  -2.601  -1.395  0.00  0.00    +0.081 C 
ATOM     27  C   UNL     1      -3.538  -1.928  -1.220  0.00  0.00    +0.011 C 
ATOM     28  C   UNL     1      -2.898  -2.423   0.080  0.00  0.00    -0.018 C 
ATOM     29  C   UNL     1      -2.791  -3.949   0.041  0.00  0.00    -0.079 C 
ATOM     30  N   UNL     1      -4.130  -4.534  -0.102  0.00  0.00    +0.382 N 
ATOM     31  C   UNL     1      -4.721  -4.121  -1.380  0.00  0.00    -0.064 C 
ATOM     32  H   UNL     1      -4.716  -4.218   0.656  0.00  0.00    -0.082 HD
BRANCH  26  33
ATOM     33  C   UNL     1      -5.506  -2.180  -2.710  0.00  0.00    +0.308 C 
ATOM     34  O   UNL     1      -5.768  -3.009  -3.548  0.00  0.00    -0.251 OA
BRANCH  33  35
ATOM     35  O   UNL     1      -5.755  -0.882  -2.949  0.00  0.00    -0.465 OA
BRANCH  35  37
ATOM     36  C   UNL     1      -6.537   0.959  -4.305  0.00  0.00    +0.048 C 
ATOM     37  C   UNL     1      -6.328  -0.554  -4.216  0.00  0.00    +0.229 C 
ENDBRANCH  35  37
ENDBRANCH  33  35
ENDBRANCH  26  33
ENDBRANCH  25  30
ENDBRANCH  22  25
ENDBRANCH  21  22
ENDBRANCH  20  21
ENDBRANCH   1  20
TORSDOF 10
