REMARK  Name = ZINC08578654
REMARK  11 active torsions:
REMARK  status: ('A' for Active; 'I' for Inactive)
REMARK    1  A    between atoms: C_1  and  C_2
REMARK    2  A    between atoms: C_2  and  O_3
REMARK    3  A    between atoms: O_3  and  C_4
REMARK    4  A    between atoms: C_6  and  C_11
REMARK    5  A    between atoms: C_9  and  O_10
REMARK    6  A    between atoms: C_13  and  C_25
REMARK    7  A    between atoms: C_15  and  C_20
REMARK    8  A    between atoms: C_15  and  O_24
REMARK    9  A    between atoms: C_25  and  O_27
REMARK   10  A    between atoms: O_27  and  C_28
REMARK   11  A    between atoms: C_28  and  C_29
REMARK                            x       y       z     vdW  Elec       q    Type
REMARK                         _______ _______ _______ _____ _____    ______ ____
ROOT
ATOM      1  C   UNL     1      -0.097  -4.718   0.642  0.00  0.00    +0.121 C 
ATOM      2  C   UNL     1       0.876  -5.459   1.565  0.00  0.00    +0.181 C 
ATOM      3  C   UNL     1       0.140  -6.643   2.201  0.00  0.00    +0.244 C 
ATOM      4  N   UNL     1      -0.424  -7.482   1.143  0.00  0.00    -0.291 N 
ATOM      5  C   UNL     1      -0.786  -6.963  -0.040  0.00  0.00    +0.133 C 
ATOM      6  N   UNL     1      -0.649  -5.660  -0.332  0.00  0.00    -0.319 N 
ATOM      7  S   UNL     1      -1.452  -8.005  -1.225  0.00  0.00    -0.019 S 
ATOM      8  H   UNL     1      -0.538  -8.432   1.300  0.00  0.00    +0.151 HD
ATOM      9  H   UNL     1      -0.920  -5.337  -1.205  0.00  0.00    +0.148 HD
ENDROOT
BRANCH   1  12
ATOM     10  C   UNL     1       1.313  -1.322  -0.227  0.00  0.00    +0.162 A 
ATOM     11  C   UNL     1       0.641  -2.335   0.437  0.00  0.00    +0.055 A 
ATOM     12  C   UNL     1       0.635  -3.617  -0.082  0.00  0.00    -0.023 A 
ATOM     13  C   UNL     1       1.299  -3.891  -1.263  0.00  0.00    +0.009 A 
ATOM     14  C   UNL     1       1.972  -2.885  -1.930  0.00  0.00    +0.049 A 
ATOM     15  C   UNL     1       1.977  -1.597  -1.419  0.00  0.00    +0.158 A 
BRANCH  15  16
ATOM     16  O   UNL     1       2.633  -0.604  -2.078  0.00  0.00    -0.503 OA
ATOM     17  H   UNL     1       3.559  -0.504  -1.815  0.00  0.00    +0.292 HD
ENDBRANCH  15  16
BRANCH  10  18
ATOM     18  O   UNL     1       1.319  -0.061   0.281  0.00  0.00    -0.489 OA
BRANCH  18  20
ATOM     19  C   UNL     1       0.735   1.616   1.921  0.00  0.00    +0.048 C 
ATOM     20  C   UNL     1       0.617   0.147   1.508  0.00  0.00    +0.226 C 
ENDBRANCH  18  20
ENDBRANCH  10  18
ENDBRANCH   1  12
BRANCH   3  21
ATOM     21  C   UNL     1       1.121  -7.466   3.038  0.00  0.00    +0.436 C 
ATOM     22  F   UNL     1       1.763  -6.631   3.959  0.00  0.00    -0.166 F 
ATOM     23  F   UNL     1       0.425  -8.467   3.722  0.00  0.00    -0.166 F 
ATOM     24  F   UNL     1       2.074  -8.051   2.197  0.00  0.00    -0.166 F 
ENDBRANCH   3  21
BRANCH   3  25
ATOM     25  O   UNL     1      -0.912  -6.157   3.037  0.00  0.00    -0.364 OA
ATOM     26  H   UNL     1      -1.422  -6.854   3.473  0.00  0.00    +0.212 HD
ENDBRANCH   3  25
BRANCH   2  27
ATOM     27  C   UNL     1       2.051  -5.959   0.765  0.00  0.00    +0.317 C 
ATOM     28  O   UNL     1       1.878  -6.750  -0.132  0.00  0.00    -0.250 OA
BRANCH  27  29
ATOM     29  O   UNL     1       3.290  -5.527   1.049  0.00  0.00    -0.465 OA
BRANCH  29  30
ATOM     30  C   UNL     1       4.356  -6.043   0.250  0.00  0.00    +0.229 C 
ATOM     31  C   UNL     1       5.682  -5.440   0.718  0.00  0.00    +0.048 C 
ENDBRANCH  29  30
ENDBRANCH  27  29
ENDBRANCH   2  27
TORSDOF 9
