REMARK  Name = ZINC39695126
REMARK  6 active torsions:
REMARK  status: ('A' for Active; 'I' for Inactive)
REMARK    1  A    between atoms: C_1  and  C_2
REMARK    2  A    between atoms: C_3  and  C_9
REMARK    3  A    between atoms: C_9  and  N_10
REMARK    4  A    between atoms: C_11  and  C_13
REMARK    5  A    between atoms: C_24  and  C_26
REMARK    6  A    between atoms: C_29  and  C_31
REMARK                            x       y       z     vdW  Elec       q    Type
REMARK                         _______ _______ _______ _____ _____    ______ ____
ROOT
ATOM      1  C   UNL     1       2.959   1.739  -4.246  0.00  0.00    +0.100 C 
ATOM      2  C   UNL     1       3.394   2.822  -3.233  0.00  0.00    +0.121 C 
ATOM      3  N   UNL     1       4.170   3.796  -4.036  0.00  0.00    -0.294 N 
ATOM      4  C   UNL     1       3.429   3.890  -5.317  0.00  0.00    +0.115 C 
ATOM      5  C   UNL     1       2.983   2.445  -5.612  0.00  0.00    -0.004 C 
ATOM      6  C   UNL     1       1.589   2.440  -6.234  0.00  0.00    -0.010 C 
ATOM      7  C   UNL     1       1.650   3.094  -7.617  0.00  0.00    -0.082 C 
ATOM      8  N   UNL     1       2.590   2.357  -8.469  0.00  0.00    +0.379 N 
ATOM      9  C   UNL     1       3.945   2.445  -7.912  0.00  0.00    -0.082 C 
ATOM     10  C   UNL     1       3.982   1.763  -6.542  0.00  0.00    -0.010 C 
ATOM     11  C   UNL     1       5.294   4.449  -3.682  0.00  0.00    +0.282 C 
ATOM     12  O   UNL     1       5.818   5.226  -4.460  0.00  0.00    -0.267 OA
ATOM     13  H   UNL     1       2.310   1.388  -8.517  0.00  0.00    -0.086 HD
ATOM     14  H   UNL     1       2.582   2.752  -9.397  0.00  0.00    -0.086 HD
ENDROOT
BRANCH  11  15
ATOM     15  C   UNL     1       5.887   4.225  -2.362  0.00  0.00    +0.190 A 
ATOM     16  C   UNL     1       7.025   4.827  -1.872  0.00  0.00    +0.055 A 
ATOM     17  C   UNL     1       7.225   4.325  -0.583  0.00  0.00    +0.050 A 
ATOM     18  C   UNL     1       6.213   3.444  -0.333  0.00  0.00    +0.136 A 
ATOM     19  O   UNL     1       5.409   3.395  -1.409  0.00  0.00    -0.450 OA
BRANCH  18  20
ATOM     20  C   UNL     1       6.028   2.675   0.914  0.00  0.00    +0.017 A 
ATOM     21  C   UNL     1       6.931   2.824   1.969  0.00  0.00    +0.014 A 
ATOM     22  C   UNL     1       6.753   2.104   3.131  0.00  0.00    +0.039 A 
ATOM     23  C   UNL     1       5.681   1.234   3.254  0.00  0.00    +0.123 A 
ATOM     24  C   UNL     1       4.782   1.083   2.210  0.00  0.00    +0.039 A 
ATOM     25  C   UNL     1       4.946   1.802   1.045  0.00  0.00    +0.014 A 
ATOM     26  F   UNL     1       5.511   0.532   4.396  0.00  0.00    -0.205 F 
ENDBRANCH  18  20
ENDBRANCH  11  15
BRANCH   1  28
ATOM     27  N   UNL     1       1.203  -0.003  -4.256  0.00  0.00    -0.311 N 
ATOM     28  C   UNL     1       1.568   1.253  -3.930  0.00  0.00    +0.218 C 
ATOM     29  O   UNL     1       0.778   1.992  -3.383  0.00  0.00    -0.275 OA
ATOM     30  H   UNL     1       1.836  -0.594  -4.693  0.00  0.00    +0.149 HD
BRANCH  27  31
ATOM     31  C   UNL     1      -0.149  -0.475  -3.949  0.00  0.00    +0.139 C 
BRANCH  31  34
ATOM     32  C   UNL     1       0.894  -2.635  -2.338  0.00  0.00    +0.045 C 
ATOM     33  C   UNL     1       0.199  -2.935  -3.641  0.00  0.00    -0.027 A 
ATOM     34  C   UNL     1      -0.300  -1.901  -4.412  0.00  0.00    -0.026 A 
ATOM     35  C   UNL     1      -0.938  -2.176  -5.607  0.00  0.00    +0.005 A 
ATOM     36  C   UNL     1      -1.077  -3.484  -6.032  0.00  0.00    +0.002 A 
ATOM     37  C   UNL     1      -0.579  -4.518  -5.262  0.00  0.00    +0.020 A 
ATOM     38  C   UNL     1       0.065  -4.243  -4.068  0.00  0.00    +0.044 A 
ATOM     39 CL   UNL     1       0.697  -5.541  -3.104  0.00  0.00    -0.083 Cl
ENDBRANCH  31  34
ENDBRANCH  27  31
ENDBRANCH   1  28
TORSDOF 5
