REMARK  Name = ZINC32577038
REMARK  9 active torsions:
REMARK  status: ('A' for Active; 'I' for Inactive)
REMARK    1  A    between atoms: C_1  and  C_2
REMARK    2  A    between atoms: C_5  and  N_8
REMARK    3  A    between atoms: C_17  and  S_18
REMARK    4  A    between atoms: S_18  and  C_19
REMARK    5  A    between atoms: C_19  and  C_20
REMARK    6  A    between atoms: N_22  and  N_23
REMARK    7  A    between atoms: C_24  and  C_25
REMARK    8  A    between atoms: C_29  and  O_31
REMARK    9  A    between atoms: O_31  and  C_32
REMARK                            x       y       z     vdW  Elec       q    Type
REMARK                         _______ _______ _______ _____ _____    ______ ____
ROOT
ATOM      1  N   UNL     1       1.062  -5.013   4.086  0.00  0.00    -0.255 N 
ATOM      2  C   UNL     1       1.488  -3.950   4.807  0.00  0.00    +0.268 A 
ATOM      3  O   UNL     1       2.672  -3.694   4.946  0.00  0.00    -0.267 OA
ATOM      4  C   UNL     1       0.462  -3.143   5.398  0.00  0.00    +0.076 A 
ATOM      5  C   UNL     1       0.652  -1.954   6.213  0.00  0.00    -0.023 A 
ATOM      6  C   UNL     1      -0.466  -1.347   6.670  0.00  0.00    -0.004 A 
ATOM      7  S   UNL     1      -1.813  -2.317   6.044  0.00  0.00    -0.073 S 
ATOM      8  C   UNL     1      -0.878  -3.534   5.173  0.00  0.00    +0.117 A 
ATOM      9  N   UNL     1      -1.231  -4.592   4.453  0.00  0.00    -0.215 NA
ATOM     10  C   UNL     1      -0.257  -5.317   3.920  0.00  0.00    +0.178 A 
ATOM     11  C   UNL     1      -0.546  -0.117   7.523  0.00  0.00    +0.043 C 
ATOM     12  C   UNL     1       0.844   0.154   8.117  0.00  0.00    +0.005 C 
ATOM     13  C   UNL     1       1.883   0.059   6.995  0.00  0.00    +0.005 C 
ATOM     14  C   UNL     1       2.032  -1.396   6.550  0.00  0.00    +0.037 C 
ENDROOT
BRANCH   1  19
ATOM     15  C   UNL     1       4.943  -8.360   1.647  0.00  0.00    +0.044 C 
ATOM     16  C   UNL     1       3.912  -7.471   2.294  0.00  0.00    -0.050 A 
ATOM     17  C   UNL     1       3.762  -6.164   1.868  0.00  0.00    +0.005 A 
ATOM     18  C   UNL     1       2.819  -5.347   2.460  0.00  0.00    +0.026 A 
ATOM     19  C   UNL     1       2.020  -5.840   3.483  0.00  0.00    +0.052 A 
ATOM     20  C   UNL     1       2.176  -7.151   3.912  0.00  0.00    +0.026 A 
ATOM     21  C   UNL     1       3.118  -7.965   3.313  0.00  0.00    +0.005 A 
ENDBRANCH   1  19
BRANCH  10  22
ATOM     22  S   UNL     1      -0.684  -6.730   2.957  0.00  0.00    -0.078 S 
BRANCH  22  23
ATOM     23  C   UNL     1      -2.489  -6.653   3.070  0.00  0.00    +0.174 C 
BRANCH  23  24
ATOM     24  C   UNL     1      -3.090  -7.799   2.298  0.00  0.00    +0.242 C 
ATOM     25  O   UNL     1      -2.369  -8.590   1.727  0.00  0.00    -0.273 OA
ATOM     26  N   UNL     1      -4.429  -7.945   2.241  0.00  0.00    -0.206 N 
ATOM     27  H   UNL     1      -5.083  -7.228   2.759  0.00  0.00    +0.177 HD
BRANCH  26  28
ATOM     28  N   UNL     1      -4.987  -9.010   1.524  0.00  0.00    -0.188 NA
ATOM     29  C   UNL     1      -6.273  -9.079   1.359  0.00  0.00    +0.138 C 
BRANCH  29  30
ATOM     30  C   UNL     1      -7.084  -7.847   1.370  0.00  0.00    -0.002 A 
ATOM     31  C   UNL     1      -6.468  -6.600   1.233  0.00  0.00    +0.010 A 
ATOM     32  C   UNL     1      -7.231  -5.451   1.239  0.00  0.00    +0.004 A 
ATOM     33  C   UNL     1      -8.604  -5.528   1.390  0.00  0.00    +0.045 A 
ATOM     34  C   UNL     1      -9.224  -6.761   1.533  0.00  0.00    +0.121 A 
ATOM     35  C   UNL     1      -8.470  -7.922   1.523  0.00  0.00    +0.055 A 
BRANCH  34  36
ATOM     36  O   UNL     1     -10.573  -6.830   1.682  0.00  0.00    -0.495 OA
ATOM     37  C   UNL     1     -11.290  -5.593   1.683  0.00  0.00    +0.277 C 
ENDBRANCH  34  36
ENDBRANCH  29  30
ENDBRANCH  26  28
ENDBRANCH  23  24
ENDBRANCH  22  23
ENDBRANCH  10  22
TORSDOF 7
