REMARK  Name = ZINC36812742
REMARK  6 active torsions:
REMARK  status: ('A' for Active; 'I' for Inactive)
REMARK    1  A    between atoms: C_1  and  C_2
REMARK    2  A    between atoms: C_2  and  C_3
REMARK    3  A    between atoms: C_10  and  C_15
REMARK    4  A    between atoms: C_15  and  N_16
REMARK    5  A    between atoms: C_19  and  C_23
REMARK    6  A    between atoms: C_19  and  C_24
REMARK                            x       y       z     vdW  Elec       q    Type
REMARK                         _______ _______ _______ _____ _____    ______ ____
ROOT
ATOM      1  N   UNL     1       1.356  -3.212  -6.223  0.00  0.00    -0.220 N 
ATOM      2  C   UNL     1       1.983  -4.313  -6.683  0.00  0.00    +0.251 C 
ATOM      3  O   UNL     1       3.143  -4.407  -7.024  0.00  0.00    -0.272 OA
ATOM      4  C   UNL     1       0.937  -5.410  -6.684  0.00  0.00    +0.135 C 
ATOM      5  N   UNL     1      -0.272  -4.737  -6.178  0.00  0.00    -0.281 N 
ATOM      6  C   UNL     1       0.073  -3.460  -5.932  0.00  0.00    +0.310 C 
ATOM      7  O   UNL     1      -0.695  -2.624  -5.498  0.00  0.00    -0.252 OA
ATOM      8  C   UNL     1       1.350  -6.549  -5.750  0.00  0.00    +0.047 C 
ATOM      9  H   UNL     1      -1.145  -5.137  -6.045  0.00  0.00    +0.152 HD
ENDROOT
BRANCH   4  10
ATOM     10  C   UNL     1       0.711  -5.925  -8.082  0.00  0.00    -0.012 A 
ATOM     11  C   UNL     1       1.744  -5.907  -9.001  0.00  0.00    +0.010 A 
ATOM     12  C   UNL     1       1.540  -6.377 -10.284  0.00  0.00    +0.050 A 
ATOM     13  C   UNL     1       0.297  -6.868 -10.654  0.00  0.00    +0.162 A 
ATOM     14  C   UNL     1      -0.741  -6.889  -9.731  0.00  0.00    +0.162 A 
ATOM     15  C   UNL     1      -0.528  -6.420  -8.443  0.00  0.00    +0.055 A 
ATOM     16  O   UNL     1      -1.966  -7.375 -10.071  0.00  0.00    -0.485 OA
ATOM     17  C   UNL     1      -2.245  -7.495 -11.470  0.00  0.00    +0.270 C 
ATOM     18  C   UNL     1      -1.035  -8.154 -12.146  0.00  0.00    +0.270 C 
ATOM     19  O   UNL     1       0.110  -7.324 -11.923  0.00  0.00    -0.485 OA
ENDBRANCH   4  10
BRANCH   1  20
ATOM     20  C   UNL     1       2.000  -1.907  -6.057  0.00  0.00    +0.154 C 
BRANCH  20  28
ATOM     21  C   UNL     1       6.215  -3.198  -3.325  0.00  0.00    -0.026 A 
ATOM     22  C   UNL     1       5.378  -2.565  -2.430  0.00  0.00    +0.052 A 
ATOM     23  C   UNL     1       4.144  -2.089  -2.852  0.00  0.00    +0.140 A 
ATOM     24  C   UNL     1       3.760  -2.257  -4.194  0.00  0.00    +0.024 A 
ATOM     25  C   UNL     1       4.618  -2.901  -5.090  0.00  0.00    +0.032 A 
ATOM     26  C   UNL     1       5.840  -3.361  -4.652  0.00  0.00    +0.045 A 
ATOM     27 CL   UNL     1       6.913  -4.154  -5.762  0.00  0.00    -0.083 Cl
ATOM     28  C   UNL     1       2.454  -1.750  -4.628  0.00  0.00    -0.012 A 
ATOM     29  C   UNL     1       1.667  -1.135  -3.710  0.00  0.00    +0.098 A 
ATOM     30  C   UNL     1       2.117  -1.000  -2.378  0.00  0.00    +0.338 A 
ATOM     31  O   UNL     1       1.401  -0.447  -1.564  0.00  0.00    -0.245 OA
ATOM     32  O   UNL     1       3.313  -1.467  -1.988  0.00  0.00    -0.422 OA
BRANCH  21  34
ATOM     33  C   UNL     1       7.462  -5.220  -2.613  0.00  0.00    +0.009 C 
ATOM     34  C   UNL     1       7.553  -3.713  -2.860  0.00  0.00    +0.033 C 
ENDBRANCH  21  34
ENDBRANCH  20  28
ENDBRANCH   1  20
TORSDOF 4
