REMARK  Name = ZINC64557399
REMARK  11 active torsions:
REMARK  status: ('A' for Active; 'I' for Inactive)
REMARK    1  A    between atoms: C_1  and  C_2
REMARK    2  A    between atoms: C_2  and  C_3
REMARK    3  A    between atoms: C_3  and  C_4
REMARK    4  A    between atoms: C_4  and  N_5
REMARK    5  A    between atoms: C_10  and  C_24
REMARK    6  A    between atoms: C_14  and  C_15
REMARK    7  A    between atoms: C_14  and  C_16
REMARK    8  A    between atoms: N_18  and  C_19
REMARK    9  A    between atoms: N_26  and  C_27
REMARK   10  A    between atoms: C_27  and  C_28
REMARK   11  A    between atoms: C_28  and  C_29
REMARK                            x       y       z     vdW  Elec       q    Type
REMARK                         _______ _______ _______ _____ _____    ______ ____
ROOT
ATOM      1  N   UNL     1      -2.787  -2.571   0.015  0.00  0.00    -0.281 N 
ATOM      2  C   UNL     1      -3.398  -2.801   1.202  0.00  0.00    +0.266 C 
ATOM      3  O   UNL     1      -2.921  -2.419   2.253  0.00  0.00    -0.268 OA
ATOM      4  C   UNL     1      -4.672  -3.537   1.149  0.00  0.00    +0.124 A 
ATOM      5  C   UNL     1      -5.606  -3.774   2.100  0.00  0.00    +0.067 A 
ATOM      6  C   UNL     1      -6.614  -4.520   1.450  0.00  0.00    +0.148 A 
ATOM      7  N   UNL     1      -6.239  -4.687   0.192  0.00  0.00    -0.166 NA
ATOM      8  N   UNL     1      -5.106  -4.137  -0.014  0.00  0.00    -0.256 N 
ATOM      9  C   UNL     1      -4.295  -4.098  -1.238  0.00  0.00    +0.179 C 
ATOM     10  C   UNL     1      -3.467  -2.810  -1.253  0.00  0.00    +0.130 C 
ATOM     11  C   UNL     1      -2.421  -2.908  -2.365  0.00  0.00    +0.044 C 
ENDROOT
BRANCH  10  12
ATOM     12  C   UNL     1      -4.377  -1.645  -1.546  0.00  0.00    +0.238 C 
ATOM     13  O   UNL     1      -4.541  -1.276  -2.689  0.00  0.00    -0.273 OA
ATOM     14  N   UNL     1      -5.007  -1.012  -0.536  0.00  0.00    -0.311 N 
ATOM     15  H   UNL     1      -4.876  -1.307   0.378  0.00  0.00    +0.149 HD
BRANCH  14  16
ATOM     16  C   UNL     1      -5.891   0.121  -0.821  0.00  0.00    +0.073 C 
ATOM     17  C   UNL     1      -5.079   1.432  -0.846  0.00  0.00    +0.022 C 
ATOM     18  C   UNL     1      -6.025   2.478  -0.205  0.00  0.00    +0.002 C 
ATOM     19  C   UNL     1      -6.718   1.668   0.919  0.00  0.00    +0.002 C 
ATOM     20  C   UNL     1      -6.934   0.271   0.301  0.00  0.00    +0.022 C 
ENDBRANCH  14  16
ENDBRANCH  10  12
BRANCH   6  21
ATOM     21  C   UNL     1      -7.861  -5.022   2.063  0.00  0.00    +0.264 C 
ATOM     22  O   UNL     1      -8.094  -4.802   3.235  0.00  0.00    -0.268 OA
ATOM     23  N   UNL     1      -8.741  -5.725   1.322  0.00  0.00    -0.310 N 
ATOM     24  H   UNL     1      -8.556  -5.901   0.386  0.00  0.00    +0.149 HD
BRANCH  23  25
ATOM     25  C   UNL     1      -9.977  -6.223   1.929  0.00  0.00    +0.109 C 
BRANCH  25  26
ATOM     26  C   UNL     1     -10.792  -6.981   0.880  0.00  0.00    +0.052 C 
BRANCH  26  27
ATOM     27  C   UNL     1     -12.064  -7.494   1.505  0.00  0.00    -0.040 C 
ATOM     28  C   UNL     1     -13.278  -6.898   1.485  0.00  0.00    -0.001 A 
ATOM     29  C   UNL     1     -13.759  -5.641   0.898  0.00  0.00    +0.010 A 
ATOM     30  C   UNL     1     -15.060  -5.303   1.047  0.00  0.00    +0.001 A 
ATOM     31  C   UNL     1     -15.958  -6.120   1.748  0.00  0.00    +0.002 A 
ATOM     32  C   UNL     1     -15.591  -7.288   2.315  0.00  0.00    +0.026 A 
ATOM     33  C   UNL     1     -14.246  -7.743   2.219  0.00  0.00    +0.043 A 
ATOM     34  N   UNL     1     -13.655  -8.819   2.676  0.00  0.00    -0.380 N 
ATOM     35  C   UNL     1     -12.243  -8.782   2.277  0.00  0.00    +0.144 C 
ATOM     36  H   UNL     1     -14.079  -9.525   3.188  0.00  0.00    +0.160 HD
ENDBRANCH  26  27
ENDBRANCH  25  26
ENDBRANCH  23  25
ENDBRANCH   6  21
BRANCH   1  37
ATOM     37  C   UNL     1      -1.413  -2.063   0.004  0.00  0.00    +0.109 C 
BRANCH  37  38
ATOM     38  C   UNL     1      -1.433  -0.534   0.013  0.00  0.00    +0.019 C 
BRANCH  38  40
ATOM     39  C   UNL     1      -0.019   1.526   0.010  0.00  0.00    +0.004 C 
ATOM     40  C   UNL     1       0.002  -0.004   0.002  0.00  0.00    -0.002 C 
ENDBRANCH  38  40
ENDBRANCH  37  38
ENDBRANCH   1  37
TORSDOF 9
