REMARK  Name = ZINC44168663
REMARK  11 active torsions:
REMARK  status: ('A' for Active; 'I' for Inactive)
REMARK    1  A    between atoms: C_1  and  C_2
REMARK    2  A    between atoms: C_2  and  C_3
REMARK    3  A    between atoms: C_8  and  C_9
REMARK    4  A    between atoms: C_14  and  C_17
REMARK    5  A    between atoms: N_19  and  C_20
REMARK    6  A    between atoms: C_20  and  C_21
REMARK    7  A    between atoms: C_25  and  C_27
REMARK    8  A    between atoms: C_31  and  C_37
REMARK    9  A    between atoms: C_31  and  C_38
REMARK   10  A    between atoms: C_34  and  C_35
REMARK   11  A    between atoms: C_34  and  C_36
REMARK                            x       y       z     vdW  Elec       q    Type
REMARK                         _______ _______ _______ _____ _____    ______ ____
ROOT
ATOM      1  C   UNL     1      -1.410  -0.319   2.509  0.00  0.00    -0.030 C 
ATOM      2  C   UNL     1      -2.236  -1.530   2.059  0.00  0.00    +0.058 C 
ATOM      3  S   UNL     1      -3.997  -1.071   2.114  0.00  0.00    -0.163 S 
ATOM      4  C   UNL     1      -4.169  -0.350   3.776  0.00  0.00    +0.062 C 
ATOM      5  C   UNL     1      -3.054   0.685   3.969  0.00  0.00    +0.027 C 
ATOM      6  N   UNL     1      -1.748   0.026   3.891  0.00  0.00    +0.392 N 
ATOM      7  H   UNL     1      -1.767  -0.816   4.447  0.00  0.00    -0.084 HD
ATOM      8  H   UNL     1      -1.043   0.648   4.259  0.00  0.00    -0.084 HD
ENDROOT
BRANCH   1  14
ATOM      9  C   UNL     1       0.731  -0.503   1.223  0.00  0.00    -0.046 A 
ATOM     10  C   UNL     1       2.075  -0.808   1.151  0.00  0.00    +0.008 A 
ATOM     11  C   UNL     1       2.756  -1.267   2.271  0.00  0.00    -0.038 A 
ATOM     12  C   UNL     1       2.084  -1.415   3.464  0.00  0.00    -0.038 A 
ATOM     13  C   UNL     1       0.731  -1.111   3.534  0.00  0.00    +0.006 A 
ATOM     14  C   UNL     1       0.057  -0.652   2.421  0.00  0.00    -0.057 A 
ATOM     15  C   UNL     1       2.762  -1.892   4.721  0.00  0.00    -0.010 C 
ATOM     16  C   UNL     1       4.086  -2.578   4.391  0.00  0.00    +0.012 C 
ATOM     17  C   UNL     1       4.900  -1.647   3.485  0.00  0.00    +0.012 C 
ATOM     18  C   UNL     1       4.219  -1.588   2.119  0.00  0.00    -0.010 C 
ATOM     19  C   UNL     1       4.369  -2.942   1.421  0.00  0.00    +0.016 C 
ATOM     20  C   UNL     1       4.888  -0.506   1.268  0.00  0.00    +0.016 C 
ATOM     21  C   UNL     1       1.847  -2.883   5.443  0.00  0.00    +0.016 C 
ATOM     22  C   UNL     1       3.028  -0.695   5.636  0.00  0.00    +0.016 C 
BRANCH   9  24
ATOM     23  C   UNL     1      -0.019   1.526   0.010  0.00  0.00    +0.009 C 
ATOM     24  C   UNL     1       0.002  -0.004   0.002  0.00  0.00    +0.032 C 
ENDBRANCH   9  24
ENDBRANCH   1  14
BRANCH   5  25
ATOM     25  C   UNL     1      -3.205   1.338   5.318  0.00  0.00    +0.200 C 
ATOM     26  O   UNL     1      -2.312   1.256   6.135  0.00  0.00    -0.278 OA
ATOM     27  N   UNL     1      -4.333   2.013   5.618  0.00  0.00    -0.313 N 
ATOM     28  H   UNL     1      -5.047   2.078   4.965  0.00  0.00    +0.149 HD
BRANCH  27  29
ATOM     29  C   UNL     1      -4.480   2.647   6.930  0.00  0.00    +0.139 C 
BRANCH  29  30
ATOM     30  C   UNL     1      -5.820   3.332   7.010  0.00  0.00    -0.030 A 
ATOM     31  C   UNL     1      -5.949   4.649   6.610  0.00  0.00    +0.005 A 
ATOM     32  C   UNL     1      -7.178   5.276   6.683  0.00  0.00    +0.001 A 
ATOM     33  C   UNL     1      -8.279   4.586   7.156  0.00  0.00    +0.012 A 
ATOM     34  C   UNL     1      -8.150   3.269   7.556  0.00  0.00    +0.055 A 
ATOM     35  C   UNL     1      -6.922   2.640   7.478  0.00  0.00    +0.017 A 
BRANCH  34  36
ATOM     36  C   UNL     1      -9.350   2.518   8.072  0.00  0.00    +0.417 C 
ATOM     37  F   UNL     1     -10.470   3.357   8.052  0.00  0.00    -0.166 F 
ATOM     38  F   UNL     1      -9.588   1.404   7.259  0.00  0.00    -0.166 F 
ATOM     39  F   UNL     1      -9.107   2.095   9.383  0.00  0.00    -0.166 F 
ENDBRANCH  34  36
ENDBRANCH  29  30
ENDBRANCH  27  29
ENDBRANCH   5  25
TORSDOF 6
