REMARK  Name = ZINC09345087
REMARK  9 active torsions:
REMARK  status: ('A' for Active; 'I' for Inactive)
REMARK    1  A    between atoms: C_1  and  C_2
REMARK    2  A    between atoms: C_5  and  C_8
REMARK    3  A    between atoms: C_19  and  C_21
REMARK    4  A    between atoms: C_25  and  O_29
REMARK    5  A    between atoms: C_26  and  O_27
REMARK    6  A    between atoms: O_27  and  C_28
REMARK    7  A    between atoms: O_29  and  C_30
REMARK    8  A    between atoms: C_35  and  S_37
REMARK    9  A    between atoms: S_37  and  C_38
REMARK                            x       y       z     vdW  Elec       q    Type
REMARK                         _______ _______ _______ _____ _____    ______ ____
ROOT
ATOM      1  C   UNL     1      -0.044  -4.208  -0.164  0.00  0.00    +0.159 C 
ATOM      2  C   UNL     1       1.362  -4.750  -0.037  0.00  0.00    +0.025 C 
ATOM      3  C   UNL     1       1.632  -5.584   0.988  0.00  0.00    +0.058 C 
ATOM      4  C   UNL     1       3.019  -6.100   1.104  0.00  0.00    +0.040 A 
ATOM      5  C   UNL     1       3.323  -7.190   1.909  0.00  0.00    +0.013 A 
ATOM      6  C   UNL     1       4.628  -7.638   1.986  0.00  0.00    +0.001 A 
ATOM      7  C   UNL     1       5.626  -7.005   1.267  0.00  0.00    +0.004 A 
ATOM      8  C   UNL     1       5.332  -5.919   0.463  0.00  0.00    +0.046 A 
ATOM      9  C   UNL     1       4.030  -5.458   0.377  0.00  0.00    +0.131 A 
ATOM     10  O   UNL     1       3.714  -4.389  -0.398  0.00  0.00    -0.479 OA
ATOM     11  C   UNL     1       2.430  -4.383  -1.026  0.00  0.00    +0.238 C 
ATOM     12  N   UNL     1       0.678  -5.940   1.882  0.00  0.00    -0.326 N 
ATOM     13  C   UNL     1      -0.568  -5.516   1.846  0.00  0.00    +0.216 C 
ATOM     14  N   UNL     1      -0.996  -4.652   0.862  0.00  0.00    -0.209 N 
ATOM     15  N   UNL     1      -2.347  -4.397   1.110  0.00  0.00    -0.239 N 
ATOM     16  C   UNL     1      -2.676  -5.115   2.229  0.00  0.00    +0.174 C 
ATOM     17  N   UNL     1      -1.621  -5.769   2.645  0.00  0.00    -0.192 NA
ATOM     18  H   UNL     1       0.929  -6.548   2.595  0.00  0.00    +0.169 HD
ATOM     19  H   UNL     1      -2.935  -3.824   0.593  0.00  0.00    +0.172 HD
ENDROOT
BRANCH   1  24
ATOM     20  C   UNL     1       0.223   1.562   0.009  0.00  0.00    +0.044 C 
ATOM     21  C   UNL     1       0.153   0.058  -0.036  0.00  0.00    -0.050 A 
ATOM     22  C   UNL     1      -0.059  -0.589  -1.239  0.00  0.00    +0.004 A 
ATOM     23  C   UNL     1      -0.123  -1.969  -1.281  0.00  0.00    +0.006 A 
ATOM     24  C   UNL     1       0.026  -2.703  -0.119  0.00  0.00    -0.021 A 
ATOM     25  C   UNL     1       0.240  -2.057   1.084  0.00  0.00    +0.006 A 
ATOM     26  C   UNL     1       0.308  -0.676   1.125  0.00  0.00    +0.004 A 
ENDBRANCH   1  24
BRANCH  11  27
ATOM     27  C   UNL     1       2.424  -5.378  -2.158  0.00  0.00    +0.042 A 
ATOM     28  C   UNL     1       3.273  -6.469  -2.125  0.00  0.00    +0.011 A 
ATOM     29  C   UNL     1       3.270  -7.383  -3.161  0.00  0.00    +0.004 A 
ATOM     30  C   UNL     1       2.419  -7.209  -4.237  0.00  0.00    +0.049 A 
ATOM     31  C   UNL     1       1.566  -6.119  -4.277  0.00  0.00    +0.162 A 
ATOM     32  C   UNL     1       1.565  -5.201  -3.230  0.00  0.00    +0.168 A 
BRANCH  32  33
ATOM     33  O   UNL     1       0.725  -4.132  -3.262  0.00  0.00    -0.491 OA
ATOM     34  C   UNL     1       1.154  -2.993  -4.011  0.00  0.00    +0.277 C 
ENDBRANCH  32  33
BRANCH  31  35
ATOM     35  O   UNL     1       0.728  -5.947  -5.334  0.00  0.00    -0.491 OA
ATOM     36  C   UNL     1       0.780  -6.930  -6.370  0.00  0.00    +0.277 C 
ENDBRANCH  31  35
ENDBRANCH  11  27
BRANCH  16  37
ATOM     37  S   UNL     1      -4.267  -5.159   2.985  0.00  0.00    -0.092 S 
ATOM     38  C   UNL     1      -4.050  -6.272   4.401  0.00  0.00    +0.093 C 
ENDBRANCH  16  37
TORSDOF 5
