REMARK  Name = ZINC13639530
REMARK  8 active torsions:
REMARK  status: ('A' for Active; 'I' for Inactive)
REMARK    1  A    between atoms: C_1  and  O_2
REMARK    2  A    between atoms: O_2  and  C_3
REMARK    3  A    between atoms: C_6  and  N_9
REMARK    4  A    between atoms: N_9  and  S_10
REMARK    5  A    between atoms: S_10  and  C_13
REMARK    6  A    between atoms: C_26  and  C_29
REMARK    7  A    between atoms: C_32  and  O_36
REMARK    8  A    between atoms: C_34  and  O_35
REMARK                            x       y       z     vdW  Elec       q    Type
REMARK                         _______ _______ _______ _____ _____    ______ ____
ROOT
ATOM      1  C   UNL     1       3.326   3.152   0.417  0.00  0.00    +0.109 A 
ATOM      2  C   UNL     1       2.149   3.789   0.068  0.00  0.00    +0.030 A 
ATOM      3  C   UNL     1       0.957   3.095   0.113  0.00  0.00    +0.025 A 
ATOM      4  C   UNL     1       0.942   1.763   0.509  0.00  0.00    +0.031 A 
ATOM      5  C   UNL     1       2.129   1.109   0.842  0.00  0.00    -0.018 A 
ATOM      6  C   UNL     1       3.328   1.806   0.782  0.00  0.00    +0.034 A 
ATOM      7  C   UNL     1       2.168  -0.327   1.292  0.00  0.00    +0.049 C 
ATOM      8  C   UNL     1       2.754  -0.342   2.705  0.00  0.00    -0.023 C 
ATOM      9  C   UNL     1       1.799  -0.374   3.601  0.00  0.00    -0.030 C 
ATOM     10  C   UNL     1       0.439  -0.380   2.927  0.00  0.00    +0.033 C 
ATOM     11  C   UNL     1       0.759  -0.910   1.509  0.00  0.00    +0.029 C 
ATOM     12  C   UNL     1      -0.239  -0.389   0.493  0.00  0.00    +0.108 C 
ATOM     13  N   UNL     1      -0.277   1.077   0.547  0.00  0.00    -0.336 N 
ATOM     14  H   UNL     1      -1.119   1.554   0.604  0.00  0.00    +0.147 HD
ENDROOT
BRANCH  12  15
ATOM     15  C   UNL     1       0.176  -0.829  -0.888  0.00  0.00    +0.015 A 
ATOM     16  C   UNL     1       0.797   0.064  -1.740  0.00  0.00    +0.012 A 
ATOM     17  C   UNL     1       1.179  -0.336  -3.006  0.00  0.00    +0.046 A 
ATOM     18  C   UNL     1       0.938  -1.637  -3.425  0.00  0.00    +0.120 A 
ATOM     19  C   UNL     1       0.315  -2.535  -2.573  0.00  0.00    +0.091 A 
ATOM     20  C   UNL     1      -0.062  -2.132  -1.301  0.00  0.00    +0.125 A 
BRANCH  20  21
ATOM     21  O   UNL     1      -0.669  -3.012  -0.461  0.00  0.00    -0.506 OA
ATOM     22  H   UNL     1      -1.633  -3.022  -0.532  0.00  0.00    +0.292 HD
ENDBRANCH  20  21
BRANCH  18  23
ATOM     23  O   UNL     1       1.313  -2.030  -4.671  0.00  0.00    -0.507 OA
ATOM     24  H   UNL     1       2.209  -2.392  -4.716  0.00  0.00    +0.292 HD
ENDBRANCH  18  23
ENDBRANCH  12  15
BRANCH   1  25
ATOM     25  S   UNL     1       4.851   4.033   0.359  0.00  0.00    +0.072 S 
ATOM     26  O   UNL     1       5.865   3.073   0.095  0.00  0.00    -0.150 OA
ATOM     27  O   UNL     1       4.636   5.163  -0.475  0.00  0.00    -0.150 OA
BRANCH  25  28
ATOM     28  N   UNL     1       5.138   4.616   1.882  0.00  0.00    -0.216 N 
ATOM     29  H   UNL     1       5.160   5.573   2.038  0.00  0.00    +0.174 HD
BRANCH  28  33
ATOM     30  C   UNL     1       5.761   1.973   5.044  0.00  0.00    +0.120 A 
ATOM     31  C   UNL     1       6.763   2.183   4.108  0.00  0.00    +0.047 A 
ATOM     32  C   UNL     1       6.557   3.058   3.061  0.00  0.00    +0.028 A 
ATOM     33  C   UNL     1       5.347   3.729   2.944  0.00  0.00    +0.048 A 
ATOM     34  C   UNL     1       4.346   3.522   3.884  0.00  0.00    +0.028 A 
ATOM     35  C   UNL     1       4.551   2.642   4.928  0.00  0.00    +0.047 A 
BRANCH  30  37
ATOM     36  C   UNL     1       4.889   0.943   7.003  0.00  0.00    +0.277 C 
ATOM     37  O   UNL     1       5.964   1.111   6.076  0.00  0.00    -0.495 OA
ENDBRANCH  30  37
ENDBRANCH  28  33
ENDBRANCH  25  28
ENDBRANCH   1  25
TORSDOF 7
