REMARK  Name = ZINC03773474
REMARK  9 active torsions:
REMARK  status: ('A' for Active; 'I' for Inactive)
REMARK    1  A    between atoms: C_1  and  C_2
REMARK    2  A    between atoms: C_5  and  C_8
REMARK    3  A    between atoms: C_8  and  N_9
REMARK    4  A    between atoms: N_9  and  C_10
REMARK    5  A    between atoms: C_10  and  C_12
REMARK    6  A    between atoms: C_10  and  C_19
REMARK    7  A    between atoms: N_21  and  C_22
REMARK    8  A    between atoms: C_31  and  C_33
REMARK    9  A    between atoms: C_33  and  C_34
REMARK                            x       y       z     vdW  Elec       q    Type
REMARK                         _______ _______ _______ _____ _____    ______ ____
ROOT
ATOM      1  C   UNL     1       1.819  -5.584   0.983  0.00  0.00    +0.193 C 
ENDROOT
BRANCH   1   2
ATOM      2  C   UNL     1       1.661  -6.933   0.330  0.00  0.00    -0.018 A 
ATOM      3  C   UNL     1       0.850  -7.072  -0.781  0.00  0.00    +0.007 A 
ATOM      4  C   UNL     1       0.704  -8.309  -1.380  0.00  0.00    +0.020 A 
ATOM      5  C   UNL     1       1.370  -9.408  -0.868  0.00  0.00    +0.041 A 
ATOM      6  C   UNL     1       2.182  -9.268   0.244  0.00  0.00    +0.020 A 
ATOM      7  C   UNL     1       2.331  -8.030   0.839  0.00  0.00    +0.007 A 
ATOM      8 CL   UNL     1       1.188 -10.962  -1.620  0.00  0.00    -0.084 Cl
ENDBRANCH   1   2
BRANCH   1   9
ATOM      9  C   UNL     1       0.627  -5.308   1.862  0.00  0.00    +0.242 C 
ATOM     10  O   UNL     1      -0.423  -4.956   1.367  0.00  0.00    -0.273 OA
ATOM     11  N   UNL     1       0.726  -5.453   3.198  0.00  0.00    -0.284 N 
ATOM     12  H   UNL     1       1.594  -5.603   3.606  0.00  0.00    +0.155 HD
BRANCH  11  13
ATOM     13  C   UNL     1      -0.422  -5.388   3.998  0.00  0.00    +0.037 A 
ATOM     14  C   UNL     1      -1.641  -5.827   3.498  0.00  0.00    +0.027 A 
ATOM     15  C   UNL     1      -2.775  -5.764   4.286  0.00  0.00    +0.051 A 
ATOM     16  C   UNL     1      -2.699  -5.263   5.575  0.00  0.00    +0.166 A 
ATOM     17  C   UNL     1      -1.477  -4.822   6.079  0.00  0.00    +0.168 A 
ATOM     18  C   UNL     1      -0.341  -4.891   5.291  0.00  0.00    +0.072 A 
ATOM     19  O   UNL     1      -1.666  -4.379   7.356  0.00  0.00    -0.453 OA
ATOM     20  C   UNL     1      -3.085  -4.172   7.486  0.00  0.00    +0.466 C 
ATOM     21  O   UNL     1      -3.653  -5.095   6.538  0.00  0.00    -0.453 OA
ENDBRANCH  11  13
ENDBRANCH   1   9
BRANCH   1  22
ATOM     22  N   UNL     1       1.914  -4.550  -0.050  0.00  0.00    -0.281 N 
ATOM     23  C   UNL     1       3.037  -4.434  -0.787  0.00  0.00    +0.221 C 
ATOM     24  O   UNL     1       4.060  -4.971  -0.421  0.00  0.00    -0.275 OA
BRANCH  22  25
ATOM     25  C   UNL     1       0.789  -3.641  -0.282  0.00  0.00    +0.144 C 
BRANCH  25  30
ATOM     26  C   UNL     1       1.046   0.745   3.473  0.00  0.00    +0.044 C 
ATOM     27  C   UNL     1       0.979  -0.399   2.494  0.00  0.00    -0.050 A 
ATOM     28  C   UNL     1       2.027  -0.624   1.621  0.00  0.00    +0.003 A 
ATOM     29  C   UNL     1       1.966  -1.673   0.723  0.00  0.00    +0.005 A 
ATOM     30  C   UNL     1       0.856  -2.498   0.698  0.00  0.00    -0.030 A 
ATOM     31  C   UNL     1      -0.192  -2.273   1.571  0.00  0.00    +0.005 A 
ATOM     32  C   UNL     1      -0.128  -1.226   2.472  0.00  0.00    +0.003 A 
ENDBRANCH  25  30
ENDBRANCH  22  25
BRANCH  23  33
ATOM     33  C   UNL     1       3.020  -3.637  -2.066  0.00  0.00    +0.131 C 
BRANCH  33  34
ATOM     34  C   UNL     1       4.221  -4.000  -2.900  0.00  0.00    -0.039 A 
ATOM     35  C   UNL     1       5.405  -3.303  -2.747  0.00  0.00    +0.004 A 
ATOM     36  C   UNL     1       6.507  -3.636  -3.511  0.00  0.00    +0.000 A 
ATOM     37  C   UNL     1       6.426  -4.666  -4.430  0.00  0.00    +0.000 A 
ATOM     38  C   UNL     1       5.242  -5.364  -4.582  0.00  0.00    +0.000 A 
ATOM     39  C   UNL     1       4.141  -5.034  -3.814  0.00  0.00    +0.004 A 
ENDBRANCH  33  34
ENDBRANCH  23  33
ENDBRANCH   1  22
TORSDOF 8
