REMARK  Name = ZINC34697840
REMARK  10 active torsions:
REMARK  status: ('A' for Active; 'I' for Inactive)
REMARK    1  A    between atoms: C_1  and  C_2
REMARK    2  A    between atoms: C_5  and  C_8
REMARK    3  A    between atoms: C_13  and  C_15
REMARK    4  A    between atoms: C_15  and  N_16
REMARK    5  A    between atoms: N_16  and  C_17
REMARK    6  A    between atoms: N_16  and  C_18
REMARK    7  A    between atoms: C_24  and  C_26
REMARK    8  A    between atoms: C_26  and  C_27
REMARK    9  A    between atoms: C_30  and  O_33
REMARK   10  A    between atoms: O_33  and  C_34
REMARK                            x       y       z     vdW  Elec       q    Type
REMARK                         _______ _______ _______ _____ _____    ______ ____
ROOT
ATOM      1  C   UNL     1       0.097  -4.276   0.161  0.00  0.00    +0.039 C 
ATOM      2  C   UNL     1      -1.020  -4.814   1.080  0.00  0.00    +0.116 C 
ATOM      3  N   UNL     1      -0.423  -5.998   1.741  0.00  0.00    -0.300 N 
ATOM      4  C   UNL     1       0.972  -5.590   2.031  0.00  0.00    +0.110 C 
ATOM      5  C   UNL     1       1.411  -4.787   0.785  0.00  0.00    -0.001 C 
ATOM      6  C   UNL     1      -1.014  -7.178   2.015  0.00  0.00    +0.220 C 
ATOM      7  O   UNL     1      -0.385  -8.057   2.566  0.00  0.00    -0.275 OA
ENDROOT
BRANCH   1  12
ATOM      8  C   UNL     1       0.022   1.502   0.084  0.00  0.00    +0.044 C 
ATOM      9  C   UNL     1       0.042  -0.004   0.104  0.00  0.00    -0.050 A 
ATOM     10  C   UNL     1      -0.077  -0.713  -1.077  0.00  0.00    +0.003 A 
ATOM     11  C   UNL     1      -0.059  -2.095  -1.059  0.00  0.00    +0.004 A 
ATOM     12  C   UNL     1       0.078  -2.769   0.141  0.00  0.00    -0.043 A 
ATOM     13  C   UNL     1       0.199  -2.060   1.321  0.00  0.00    +0.004 A 
ATOM     14  C   UNL     1       0.185  -0.678   1.303  0.00  0.00    +0.003 A 
ENDBRANCH   1  12
BRANCH   5  15
ATOM     15  C   UNL     1       2.151  -5.694  -0.201  0.00  0.00    -0.073 C 
BRANCH  15  16
ATOM     16  N   UNL     1       2.576  -4.907  -1.366  0.00  0.00    +0.380 N 
ATOM     17  C   UNL     1       3.572  -3.912  -0.947  0.00  0.00    -0.096 C 
ATOM     18  H   UNL     1       1.777  -4.437  -1.764  0.00  0.00    -0.082 HD
BRANCH  16  19
ATOM     19  C   UNL     1       3.168  -5.801  -2.370  0.00  0.00    -0.069 C 
ATOM     20  C   UNL     1       3.611  -4.981  -3.584  0.00  0.00    -0.015 C 
ATOM     21  C   UNL     1       4.228  -5.911  -4.630  0.00  0.00    -0.002 C 
ATOM     22  C   UNL     1       3.190  -6.948  -5.066  0.00  0.00    -0.000 C 
ATOM     23  C   UNL     1       2.747  -7.768  -3.853  0.00  0.00    -0.002 C 
ATOM     24  C   UNL     1       2.131  -6.837  -2.806  0.00  0.00    -0.015 C 
ENDBRANCH  16  19
ENDBRANCH  15  16
ENDBRANCH   5  15
BRANCH   6  25
ATOM     25  C   UNL     1      -2.455  -7.404   1.637  0.00  0.00    +0.131 C 
BRANCH  25  26
ATOM     26  C   UNL     1      -2.870  -8.793   2.051  0.00  0.00    -0.038 A 
ATOM     27  C   UNL     1      -2.709  -9.851   1.176  0.00  0.00    +0.007 A 
ATOM     28  C   UNL     1      -3.089 -11.124   1.552  0.00  0.00    +0.046 A 
ATOM     29  C   UNL     1      -3.632 -11.341   2.810  0.00  0.00    +0.120 A 
ATOM     30  C   UNL     1      -3.792 -10.278   3.687  0.00  0.00    +0.046 A 
ATOM     31  C   UNL     1      -3.406  -9.007   3.307  0.00  0.00    +0.007 A 
BRANCH  29  32
ATOM     32  O   UNL     1      -4.008 -12.593   3.183  0.00  0.00    -0.495 OA
ATOM     33  C   UNL     1      -4.559 -12.742   4.493  0.00  0.00    +0.277 C 
ENDBRANCH  29  32
ENDBRANCH  25  26
ENDBRANCH   6  25
TORSDOF 7
