REMARK  Name = ZINC12532454
REMARK  6 active torsions:
REMARK  status: ('A' for Active; 'I' for Inactive)
REMARK    1  A    between atoms: C_1  and  C_2
REMARK    2  A    between atoms: C_7  and  N_8
REMARK    3  A    between atoms: C_9  and  C_29
REMARK    4  A    between atoms: C_12  and  S_13
REMARK    5  A    between atoms: S_13  and  C_14
REMARK    6  A    between atoms: C_14  and  C_15
REMARK                            x       y       z     vdW  Elec       q    Type
REMARK                         _______ _______ _______ _____ _____    ______ ____
ROOT
ATOM      1  N   UNL     1      -2.089   3.849 -10.113  0.00  0.00    -0.287 N 
ATOM      2  C   UNL     1      -1.371   3.820 -11.298  0.00  0.00    +0.074 A 
ATOM      3  C   UNL     1      -0.146   3.313 -10.997  0.00  0.00    +0.140 A 
ATOM      4  N   UNL     1      -0.112   3.048  -9.685  0.00  0.00    -0.229 NA
ATOM      5  C   UNL     1      -1.268   3.356  -9.141  0.00  0.00    +0.174 A 
ENDROOT
BRANCH   1  12
ATOM      6  C   UNL     1      -4.201   1.966 -10.420  0.00  0.00    +0.046 C 
ATOM      7  C   UNL     1      -4.466   3.412 -10.086  0.00  0.00    -0.027 A 
ATOM      8  C   UNL     1      -5.763   3.856  -9.916  0.00  0.00    +0.005 A 
ATOM      9  C   UNL     1      -6.007   5.183  -9.615  0.00  0.00    +0.000 A 
ATOM     10  C   UNL     1      -4.954   6.069  -9.479  0.00  0.00    +0.002 A 
ATOM     11  C   UNL     1      -3.655   5.630  -9.643  0.00  0.00    +0.026 A 
ATOM     12  C   UNL     1      -3.406   4.297  -9.945  0.00  0.00    +0.052 A 
ENDBRANCH   1  12
BRANCH   2  13
ATOM     13  C   UNL     1      -1.844   4.256 -12.628  0.00  0.00    +0.000 A 
ATOM     14  C   UNL     1      -3.101   4.849 -12.765  0.00  0.00    +0.011 A 
ATOM     15  C   UNL     1      -3.535   5.258 -14.009  0.00  0.00    +0.020 A 
ATOM     16  C   UNL     1      -2.732   5.070 -15.122  0.00  0.00    +0.041 A 
ATOM     17  C   UNL     1      -1.487   4.478 -14.993  0.00  0.00    +0.020 A 
ATOM     18  C   UNL     1      -1.039   4.070 -13.754  0.00  0.00    +0.011 A 
ATOM     19 CL   UNL     1      -3.289   5.581 -16.685  0.00  0.00    -0.084 Cl
ENDBRANCH   2  13
BRANCH   5  20
ATOM     20  S   UNL     1      -1.685   3.172  -7.439  0.00  0.00    -0.080 S 
BRANCH  20  21
ATOM     21  C   UNL     1      -0.135   2.481  -6.809  0.00  0.00    +0.151 C 
BRANCH  21  22
ATOM     22  C   UNL     1      -0.261   2.234  -5.328  0.00  0.00    +0.121 A 
ATOM     23  N   UNL     1       0.793   1.715  -4.647  0.00  0.00    -0.310 N 
ATOM     24  H   UNL     1       1.613   1.509  -5.125  0.00  0.00    +0.170 HD
ATOM     25  C   UNL     1       0.724   1.479  -3.323  0.00  0.00    +0.260 A 
ATOM     26  O   UNL     1       1.678   1.012  -2.725  0.00  0.00    -0.267 OA
ATOM     27  C   UNL     1      -0.492   1.786  -2.631  0.00  0.00    +0.075 A 
ATOM     28  C   UNL     1      -0.791   1.612  -1.202  0.00  0.00    -0.023 A 
ATOM     29  C   UNL     1      -2.016   1.978  -0.788  0.00  0.00    -0.004 A 
ATOM     30  S   UNL     1      -2.837   2.567  -2.251  0.00  0.00    -0.073 S 
ATOM     31  C   UNL     1      -1.523   2.318  -3.416  0.00  0.00    +0.116 A 
ATOM     32  N   UNL     1      -1.381   2.524  -4.723  0.00  0.00    -0.226 NA
ATOM     33  C   UNL     1      -2.207   1.760   0.689  0.00  0.00    +0.043 C 
ATOM     34  C   UNL     1      -0.772   1.602   1.246  0.00  0.00    +0.010 C 
ATOM     35  C   UNL     1      -0.013   1.086   0.008  0.00  0.00    +0.037 C 
ENDBRANCH  21  22
ENDBRANCH  20  21
ENDBRANCH   5  20
TORSDOF 5
