REMARK  Name = ZINC40092559
REMARK  16 active torsions:
REMARK  status: ('A' for Active; 'I' for Inactive)
REMARK    1  A    between atoms: C_1  and  C_2
REMARK    2  A    between atoms: C_2  and  C_3
REMARK    3  A    between atoms: C_3  and  C_4
REMARK    4  A    between atoms: C_4  and  O_5
REMARK    5  A    between atoms: O_5  and  C_6
REMARK    6  A    between atoms: C_9  and  C_13
REMARK    7  A    between atoms: C_11  and  C_12
REMARK    8  A    between atoms: C_13  and  C_15
REMARK    9  A    between atoms: N_19  and  C_29
REMARK   10  A    between atoms: C_20  and  C_22
REMARK   11  A    between atoms: C_25  and  O_28
REMARK   12  A    between atoms: C_29  and  C_30
REMARK   13  A    between atoms: C_30  and  O_31
REMARK   14  A    between atoms: O_31  and  C_32
REMARK   15  A    between atoms: C_32  and  C_33
REMARK   16  A    between atoms: C_33  and  O_34
REMARK                            x       y       z     vdW  Elec       q    Type
REMARK                         _______ _______ _______ _____ _____    ______ ____
ROOT
ATOM      1  C   UNL     1       1.589  -9.145  -1.319  0.00  0.00    +0.076 C 
ATOM      2  C   UNL     1       1.669 -10.457  -0.995  0.00  0.00    +0.249 C 
ATOM      3  C   UNL     1       0.633 -10.771   0.012  0.00  0.00    +0.288 C 
ATOM      4  O   UNL     1       0.449 -11.867   0.503  0.00  0.00    -0.266 OA
ATOM      5  N   UNL     1      -0.075  -9.666   0.303  0.00  0.00    -0.281 N 
ATOM      6  C   UNL     1       0.465  -8.560  -0.496  0.00  0.00    +0.145 C 
ATOM      7  O   UNL     1       2.555 -11.339  -1.510  0.00  0.00    -0.282 OA
ENDROOT
BRANCH   6   8
ATOM      8  C   UNL     1       0.994  -7.474   0.405  0.00  0.00    -0.022 A 
ATOM      9  C   UNL     1       0.784  -6.146   0.083  0.00  0.00    +0.009 A 
ATOM     10  C   UNL     1       1.268  -5.149   0.908  0.00  0.00    +0.046 A 
ATOM     11  C   UNL     1       1.966  -5.482   2.060  0.00  0.00    +0.117 A 
ATOM     12  C   UNL     1       2.175  -6.815   2.382  0.00  0.00    +0.046 A 
ATOM     13  C   UNL     1       1.684  -7.808   1.556  0.00  0.00    +0.009 A 
BRANCH  11  14
ATOM     14  O   UNL     1       2.443  -4.503   2.873  0.00  0.00    -0.507 OA
ATOM     15  H   UNL     1       1.825  -4.228   3.564  0.00  0.00    +0.292 HD
ENDBRANCH  11  14
ENDBRANCH   6   8
BRANCH   1  16
ATOM     16  C   UNL     1       2.435  -8.429  -2.280  0.00  0.00    +0.195 C 
ATOM     17  O   UNL     1       3.621  -8.278  -2.052  0.00  0.00    -0.287 OA
BRANCH  16  21
ATOM     18  C   UNL     1       0.745  -6.880  -5.855  0.00  0.00    +0.123 A 
ATOM     19  C   UNL     1      -0.028  -7.663  -5.005  0.00  0.00    +0.046 A 
ATOM     20  C   UNL     1       0.515  -8.168  -3.846  0.00  0.00    +0.015 A 
ATOM     21  C   UNL     1       1.847  -7.891  -3.522  0.00  0.00    +0.023 A 
ATOM     22  C   UNL     1       2.621  -7.102  -4.379  0.00  0.00    +0.018 A 
ATOM     23  C   UNL     1       2.071  -6.606  -5.539  0.00  0.00    -0.008 A 
ATOM     24  C   UNL     1       2.906  -5.761  -6.466  0.00  0.00    +0.047 C 
BRANCH  18  25
ATOM     25  O   UNL     1       0.205  -6.385  -6.997  0.00  0.00    -0.492 OA
BRANCH  25  26
ATOM     26  C   UNL     1      -1.163  -6.704  -7.260  0.00  0.00    +0.229 C 
BRANCH  26  27
ATOM     27  C   UNL     1      -1.591  -6.064  -8.581  0.00  0.00    +0.041 C 
BRANCH  27  29
ATOM     28  C   UNL     1      -3.485  -5.765 -10.184  0.00  0.00    +0.004 C 
ATOM     29  C   UNL     1      -3.056  -6.405  -8.862  0.00  0.00    -0.000 C 
ENDBRANCH  27  29
ENDBRANCH  26  27
ENDBRANCH  25  26
ENDBRANCH  18  25
ENDBRANCH  16  21
ENDBRANCH   1  16
BRANCH   5  30
ATOM     30  C   UNL     1      -1.186  -9.579   1.255  0.00  0.00    +0.137 C 
BRANCH  30  31
ATOM     31  C   UNL     1      -2.499  -9.895   0.537  0.00  0.00    +0.179 C 
BRANCH  31  32
ATOM     32  O   UNL     1      -2.490 -11.257   0.105  0.00  0.00    -0.376 OA
BRANCH  32  33
ATOM     33  C   UNL     1      -3.629 -11.627  -0.675  0.00  0.00    +0.187 C 
BRANCH  33  34
ATOM     34  C   UNL     1      -3.574 -13.126  -0.978  0.00  0.00    +0.184 C 
BRANCH  34  35
ATOM     35  O   UNL     1      -3.699 -13.863   0.239  0.00  0.00    -0.393 OA
ATOM     36  H   UNL     1      -3.673 -14.823   0.122  0.00  0.00    +0.209 HD
ENDBRANCH  34  35
ENDBRANCH  33  34
ENDBRANCH  32  33
ENDBRANCH  31  32
ENDBRANCH  30  31
ENDBRANCH   5  30
TORSDOF 14
