REMARK  Name = ZINC13500652
REMARK  11 active torsions:
REMARK  status: ('A' for Active; 'I' for Inactive)
REMARK    1  A    between atoms: C_1  and  C_2
REMARK    2  A    between atoms: C_9  and  C_14
REMARK    3  A    between atoms: C_14  and  N_69
REMARK    4  A    between atoms: C_15  and  N_69
REMARK    5  A    between atoms: C_21  and  C_23
REMARK    6  A    between atoms: C_21  and  C_34
REMARK    7  A    between atoms: C_21  and  N_69
REMARK    8  A    between atoms: N_27  and  C_28
REMARK    9  A    between atoms: C_28  and  C_29
REMARK   10  A    between atoms: C_34  and  C_35
REMARK   11  A    between atoms: C_34  and  C_36
REMARK                            x       y       z     vdW  Elec       q    Type
REMARK                         _______ _______ _______ _____ _____    ______ ____
ROOT
ATOM      1  N   UNL     1      -1.842   0.009   1.559  0.00  0.00    +0.391 N 
ATOM      2  H   UNL     1      -1.446  -0.236   2.474  0.00  0.00    -0.080 HD
ENDROOT
BRANCH   1   3
ATOM      3  C   UNL     1      -3.281   0.303   1.722  0.00  0.00    -0.067 C 
ATOM      4  C   UNL     1      -3.898  -0.753   2.641  0.00  0.00    -0.015 C 
ATOM      5  C   UNL     1      -5.385  -0.453   2.837  0.00  0.00    -0.002 C 
ATOM      6  C   UNL     1      -6.094  -0.480   1.482  0.00  0.00    -0.000 C 
ATOM      7  C   UNL     1      -5.478   0.577   0.563  0.00  0.00    -0.002 C 
ATOM      8  C   UNL     1      -3.991   0.277   0.366  0.00  0.00    -0.015 C 
ENDBRANCH   1   3
BRANCH   1   9
ATOM      9  C   UNL     1      -1.662  -1.132   0.636  0.00  0.00    -0.036 C 
BRANCH   9  18
ATOM     10  C   UNL     1      -5.735  -7.343   1.305  0.00  0.00    +0.044 C 
ATOM     11  C   UNL     1      -4.657  -6.417   1.809  0.00  0.00    -0.050 A 
ATOM     12  C   UNL     1      -3.975  -6.727   2.978  0.00  0.00    +0.005 A 
ATOM     13  C   UNL     1      -2.986  -5.895   3.456  0.00  0.00    +0.026 A 
ATOM     14  C   UNL     1      -2.667  -4.732   2.763  0.00  0.00    +0.049 A 
ATOM     15  C   UNL     1      -3.361  -4.421   1.578  0.00  0.00    -0.001 A 
ATOM     16  C   UNL     1      -4.361  -5.281   1.111  0.00  0.00    +0.013 A 
ATOM     17  C   UNL     1      -3.018  -3.195   0.855  0.00  0.00    +0.017 A 
ATOM     18  C   UNL     1      -2.040  -2.401   1.356  0.00  0.00    +0.001 A 
ATOM     19  C   UNL     1      -1.370  -2.761   2.545  0.00  0.00    +0.251 A 
ATOM     20  O   UNL     1      -0.491  -2.035   2.975  0.00  0.00    -0.268 OA
ATOM     21  N   UNL     1      -1.682  -3.882   3.219  0.00  0.00    -0.322 N 
ATOM     22  H   UNL     1      -1.205  -4.097   4.035  0.00  0.00    +0.169 HD
ENDBRANCH   9  18
ENDBRANCH   1   9
BRANCH   1  23
ATOM     23  C   UNL     1      -1.139   1.199   1.035  0.00  0.00    +0.006 C 
BRANCH  23  24
ATOM     24  C   UNL     1      -1.771   2.443   1.603  0.00  0.00    +0.139 A 
ATOM     25  N   UNL     1      -2.190   2.617   2.833  0.00  0.00    -0.115 NA
ATOM     26  N   UNL     1      -2.665   3.810   2.927  0.00  0.00    -0.023 NA
ATOM     27  N   UNL     1      -2.561   4.403   1.789  0.00  0.00    -0.044 NA
ATOM     28  N   UNL     1      -2.009   3.595   0.948  0.00  0.00    -0.223 N 
BRANCH  28  29
ATOM     29  C   UNL     1      -1.703   3.876  -0.457  0.00  0.00    +0.221 C 
BRANCH  29  30
ATOM     30  C   UNL     1      -2.882   3.493  -1.314  0.00  0.00    +0.126 A 
ATOM     31  C   UNL     1      -3.908   4.297  -1.645  0.00  0.00    +0.046 A 
ATOM     32  C   UNL     1      -4.780   3.535  -2.457  0.00  0.00    +0.041 A 
ATOM     33  C   UNL     1      -4.238   2.309  -2.567  0.00  0.00    +0.195 A 
ATOM     34  O   UNL     1      -3.088   2.289  -1.873  0.00  0.00    -0.466 OA
ENDBRANCH  29  30
ENDBRANCH  28  29
ENDBRANCH  23  24
BRANCH  23  35
ATOM     35  C   UNL     1       0.327   1.129   1.466  0.00  0.00    -0.024 C 
ATOM     36  C   UNL     1       1.006  -0.055   0.774  0.00  0.00    +0.006 C 
ATOM     37  C   UNL     1       0.404   0.945   2.983  0.00  0.00    +0.006 C 
ENDBRANCH  23  35
ENDBRANCH   1  23
TORSDOF 8
