REMARK  Name = ZINC24987199
REMARK  6 active torsions:
REMARK  status: ('A' for Active; 'I' for Inactive)
REMARK    1  A    between atoms: C_1  and  C_2
REMARK    2  A    between atoms: C_7  and  N_8
REMARK    3  A    between atoms: C_9  and  C_11
REMARK    4  A    between atoms: C_11  and  N_12
REMARK    5  A    between atoms: N_15  and  C_16
REMARK    6  A    between atoms: C_16  and  C_17
REMARK                            x       y       z     vdW  Elec       q    Type
REMARK                         _______ _______ _______ _____ _____    ______ ____
ROOT
ATOM      1  N   UNL     1      -1.191   1.867   0.018  0.00  0.00    -0.284 N 
ATOM      2  C   UNL     1      -0.014   1.209   0.005  0.00  0.00    +0.234 C 
ATOM      3  O   UNL     1       0.003  -0.004   0.005  0.00  0.00    -0.274 OA
ATOM      4  H   UNL     1      -1.207   2.963   0.109  0.00  0.00    +0.155 HD
ENDROOT
BRANCH   1  11
ATOM      5  C   UNL     1      -3.546   3.040   1.100  0.00  0.00    +0.046 C 
ATOM      6  C   UNL     1      -3.564   1.691   0.428  0.00  0.00    -0.028 A 
ATOM      7  C   UNL     1      -4.749   0.989   0.320  0.00  0.00    +0.020 A 
ATOM      8  C   UNL     1      -4.765  -0.252  -0.291  0.00  0.00    +0.018 A 
ATOM      9  C   UNL     1      -3.597  -0.791  -0.800  0.00  0.00    +0.017 A 
ATOM     10  C   UNL     1      -2.411  -0.091  -0.699  0.00  0.00    +0.024 A 
ATOM     11  C   UNL     1      -2.391   1.155  -0.086  0.00  0.00    +0.036 A 
ATOM     12 BR   UNL     1      -6.387  -1.214  -0.431  0.00  0.00    -0.050 Br
ENDBRANCH   1  11
BRANCH   2  13
ATOM     13  C   UNL     1       1.280   1.980  -0.015  0.00  0.00    +0.202 C 
BRANCH  13  14
ATOM     14  N   UNL     1       2.407   1.044  -0.032  0.00  0.00    -0.291 N 
ATOM     15  C   UNL     1       3.671   1.511  -0.051  0.00  0.00    +0.300 C 
ATOM     16  O   UNL     1       3.876   2.709  -0.055  0.00  0.00    -0.253 OA
ATOM     17  N   UNL     1       4.707   0.649  -0.067  0.00  0.00    -0.296 N 
ATOM     18  H   UNL     1       2.221  -0.040  -0.029  0.00  0.00    +0.151 HD
ATOM     19  H   UNL     1       4.521  -0.435  -0.064  0.00  0.00    +0.151 HD
BRANCH  17  20
ATOM     20  C   UNL     1       6.081   1.157  -0.088  0.00  0.00    +0.132 C 
BRANCH  20  21
ATOM     21  C   UNL     1       7.045  -0.002  -0.103  0.00  0.00    -0.016 C 
ATOM     22  C   UNL     1       7.949  -0.090  -1.046  0.00  0.00    +0.005 C 
ENDBRANCH  20  21
ENDBRANCH  17  20
ENDBRANCH  13  14
ENDBRANCH   2  13
TORSDOF 5
