REMARK  Name = ZINC64928238
REMARK  8 active torsions:
REMARK  status: ('A' for Active; 'I' for Inactive)
REMARK    1  A    between atoms: C_1  and  C_2
REMARK    2  A    between atoms: C_2  and  C_4
REMARK    3  A    between atoms: C_2  and  N_10
REMARK    4  A    between atoms: C_4  and  C_5
REMARK    5  A    between atoms: C_11  and  C_13
REMARK    6  A    between atoms: C_13  and  C_14
REMARK    7  A    between atoms: N_24  and  S_25
REMARK    8  A    between atoms: S_25  and  C_28
REMARK                            x       y       z     vdW  Elec       q    Type
REMARK                         _______ _______ _______ _____ _____    ______ ____
ROOT
ATOM      1  C   UNL     1      -3.675  -1.375   2.398  0.00  0.00    +0.119 C 
ATOM      2  C   UNL     1      -5.158  -1.642   2.363  0.00  0.00    -0.025 A 
ATOM      3  C   UNL     1      -5.971  -0.702   1.743  0.00  0.00    +0.005 A 
ATOM      4  C   UNL     1      -7.335  -0.895   1.670  0.00  0.00    +0.000 A 
ATOM      5  C   UNL     1      -7.896  -2.034   2.217  0.00  0.00    +0.000 A 
ATOM      6  C   UNL     1      -7.090  -2.966   2.837  0.00  0.00    +0.004 A 
ATOM      7  C   UNL     1      -5.717  -2.772   2.917  0.00  0.00    -0.041 A 
ATOM      8  C   UNL     1      -4.904  -3.818   3.632  0.00  0.00    +0.052 C 
ATOM      9  C   UNL     1      -3.432  -3.729   3.234  0.00  0.00    +0.115 C 
ATOM     10  N   UNL     1      -3.025  -2.318   3.315  0.00  0.00    -0.168 NA
ENDROOT
BRANCH  10  11
ATOM     11  S   UNL     1      -1.879  -1.814   4.399  0.00  0.00    +0.061 S 
ATOM     12  O   UNL     1      -0.825  -2.765   4.347  0.00  0.00    -0.153 OA
ATOM     13  O   UNL     1      -1.670  -0.430   4.155  0.00  0.00    -0.153 OA
BRANCH  11  14
ATOM     14  C   UNL     1      -2.592  -1.939   6.006  0.00  0.00    +0.106 A 
ATOM     15  C   UNL     1      -3.282  -0.868   6.542  0.00  0.00    +0.029 A 
ATOM     16  C   UNL     1      -3.841  -0.966   7.802  0.00  0.00    +0.017 A 
ATOM     17  C   UNL     1      -3.710  -2.136   8.527  0.00  0.00    +0.018 A 
ATOM     18  C   UNL     1      -3.019  -3.208   7.991  0.00  0.00    +0.017 A 
ATOM     19  C   UNL     1      -2.465  -3.111   6.729  0.00  0.00    +0.029 A 
ATOM     20 BR   UNL     1      -4.474  -2.271  10.252  0.00  0.00    -0.050 Br
ENDBRANCH  11  14
ENDBRANCH  10  11
BRANCH   1  21
ATOM     21  C   UNL     1      -3.092  -1.548   0.994  0.00  0.00    +0.121 C 
BRANCH  21  23
ATOM     22  N   UNL     1      -0.885  -1.323  -0.101  0.00  0.00    -0.312 N 
ATOM     23  C   UNL     1      -1.647  -1.121   0.993  0.00  0.00    +0.215 C 
ATOM     24  O   UNL     1      -1.169  -0.596   1.976  0.00  0.00    -0.276 OA
ATOM     25  H   UNL     1      -1.268  -1.743  -0.887  0.00  0.00    +0.149 HD
BRANCH  22  27
ATOM     26  C   UNL     1       0.615   0.569  -0.488  0.00  0.00    +0.028 C 
ATOM     27  C   UNL     1       0.519  -0.908  -0.101  0.00  0.00    +0.077 C 
BRANCH  27  28
ATOM     28  C   UNL     1       1.300  -1.751  -1.112  0.00  0.00    +0.096 C 
BRANCH  28  29
ATOM     29  C   UNL     1       1.309  -3.190  -0.665  0.00  0.00    +0.107 A 
ATOM     30  C   UNL     1       0.398  -4.122  -0.996  0.00  0.00    +0.045 A 
ATOM     31  C   UNL     1       0.792  -5.323  -0.362  0.00  0.00    +0.041 A 
ATOM     32  C   UNL     1       1.920  -5.053   0.318  0.00  0.00    +0.195 A 
ATOM     33  O   UNL     1       2.232  -3.760   0.126  0.00  0.00    -0.468 OA
ENDBRANCH  28  29
ENDBRANCH  27  28
ENDBRANCH  22  27
ENDBRANCH  21  23
ENDBRANCH   1  21
TORSDOF 7
