REMARK  Name = ZINC33809050
REMARK  10 active torsions:
REMARK  status: ('A' for Active; 'I' for Inactive)
REMARK    1  A    between atoms: C_1  and  C_2
REMARK    2  A    between atoms: C_7  and  N_8
REMARK    3  A    between atoms: C_9  and  C_11
REMARK    4  A    between atoms: C_12  and  C_38
REMARK    5  A    between atoms: C_19  and  C_20
REMARK    6  A    between atoms: C_23  and  C_26
REMARK    7  A    between atoms: C_26  and  C_27
REMARK    8  A    between atoms: C_26  and  C_28
REMARK    9  A    between atoms: C_30  and  C_32
REMARK   10  A    between atoms: C_35  and  C_37
REMARK                            x       y       z     vdW  Elec       q    Type
REMARK                         _______ _______ _______ _____ _____    ______ ____
ROOT
ATOM      1  C   UNL     1      -3.481   0.756   2.100  0.00  0.00    +0.066 C 
ATOM      2  C   UNL     1      -4.798   1.102   1.992  0.00  0.00    +0.052 C 
ATOM      3  N   UNL     1      -5.674   0.265   1.450  0.00  0.00    -0.228 NA
ATOM      4  C   UNL     1      -5.385  -0.927   0.994  0.00  0.00    +0.178 A 
ATOM      5  N   UNL     1      -4.121  -1.472   1.012  0.00  0.00    -0.272 N 
ATOM      6  C   UNL     1      -3.946  -2.704   0.515  0.00  0.00    +0.268 A 
ATOM      7  O   UNL     1      -2.848  -3.227   0.509  0.00  0.00    -0.266 OA
ATOM      8  C   UNL     1      -5.123  -3.405  -0.022  0.00  0.00    +0.081 A 
ATOM      9  C   UNL     1      -5.213  -4.641  -0.573  0.00  0.00    +0.028 C 
ATOM     10  S   UNL     1      -6.401  -2.187   0.248  0.00  0.00    -0.046 S 
ATOM     11  C   UNL     1      -3.060  -0.606   1.597  0.00  0.00    +0.195 C 
ATOM     12  C   UNL     1      -5.259   2.449   2.487  0.00  0.00    +0.066 C 
ENDROOT
BRANCH   9  13
ATOM     13  C   UNL     1      -3.992  -5.397  -0.887  0.00  0.00    -0.024 A 
ATOM     14  C   UNL     1      -2.879  -4.742  -1.426  0.00  0.00    +0.008 A 
ATOM     15  C   UNL     1      -1.735  -5.457  -1.712  0.00  0.00    +0.004 A 
ATOM     16  C   UNL     1      -1.690  -6.821  -1.478  0.00  0.00    -0.045 A 
ATOM     17  C   UNL     1      -2.789  -7.477  -0.951  0.00  0.00    +0.004 A 
ATOM     18  C   UNL     1      -3.938  -6.776  -0.653  0.00  0.00    +0.008 A 
BRANCH  16  19
ATOM     19  C   UNL     1      -0.438  -7.595  -1.801  0.00  0.00    +0.013 C 
ATOM     20  C   UNL     1      -0.126  -7.463  -3.293  0.00  0.00    +0.012 C 
ATOM     21  C   UNL     1       0.730  -7.039  -0.984  0.00  0.00    +0.012 C 
ENDBRANCH  16  19
ENDBRANCH   9  13
BRANCH  11  22
ATOM     22  C   UNL     1      -2.436  -1.352   2.748  0.00  0.00    +0.133 A 
ATOM     23  C   UNL     1      -1.124  -1.606   2.901  0.00  0.00    +0.047 A 
ATOM     24  C   UNL     1      -0.985  -2.325   4.111  0.00  0.00    +0.045 A 
ATOM     25  C   UNL     1      -2.220  -2.467   4.624  0.00  0.00    +0.102 A 
ATOM     26  O   UNL     1      -3.094  -1.871   3.797  0.00  0.00    -0.462 OA
ATOM     27  C   UNL     1      -2.564  -3.171   5.911  0.00  0.00    +0.086 C 
ENDBRANCH  11  22
BRANCH   1  29
ATOM     28  N   UNL     1      -2.435   1.735   4.008  0.00  0.00    -0.281 N 
ATOM     29  C   UNL     1      -2.545   1.639   2.668  0.00  0.00    +0.248 C 
ATOM     30  O   UNL     1      -1.833   2.318   1.948  0.00  0.00    -0.270 OA
ATOM     31  H   UNL     1      -3.058   1.102   4.657  0.00  0.00    +0.155 HD
BRANCH  28  38
ATOM     32  C   UNL     1      -2.994   2.749   6.607  0.00  0.00    +0.045 C 
ATOM     33  C   UNL     1      -1.764   3.158   5.839  0.00  0.00    -0.029 A 
ATOM     34  C   UNL     1      -0.865   4.046   6.396  0.00  0.00    +0.005 A 
ATOM     35  C   UNL     1       0.262   4.426   5.690  0.00  0.00    +0.000 A 
ATOM     36  C   UNL     1       0.495   3.915   4.426  0.00  0.00    +0.002 A 
ATOM     37  C   UNL     1      -0.397   3.023   3.866  0.00  0.00    +0.023 A 
ATOM     38  C   UNL     1      -1.530   2.638   4.573  0.00  0.00    +0.037 A 
ENDBRANCH  28  38
ENDBRANCH   1  29
TORSDOF 5
