REMARK  Name = ZINC41013630
REMARK  4 active torsions:
REMARK  status: ('A' for Active; 'I' for Inactive)
REMARK    1  A    between atoms: C_1  and  C_2
REMARK    2  A    between atoms: C_11  and  N_15
REMARK    3  A    between atoms: C_12  and  C_13
REMARK    4  A    between atoms: C_16  and  C_18
REMARK                            x       y       z     vdW  Elec       q    Type
REMARK                         _______ _______ _______ _____ _____    ______ ____
ROOT
ATOM      1  N   UNL     1       1.812  -6.318   0.499  0.00  0.00    -0.275 N 
ATOM      2  C   UNL     1       2.164  -7.160   1.491  0.00  0.00    +0.256 C 
ATOM      3  O   UNL     1       2.271  -6.748   2.630  0.00  0.00    -0.270 OA
ATOM      4  H   UNL     1       1.727  -6.647  -0.409  0.00  0.00    +0.156 HD
ENDROOT
BRANCH   1  14
ATOM      5  C   UNL     1      -0.019   1.526   0.010  0.00  0.00    +0.008 C 
ATOM      6  C   UNL     1       0.002  -0.004   0.002  0.00  0.00    -0.009 C 
ATOM      7  C   UNL     1       0.739  -0.508  -1.246  0.00  0.00    +0.008 C 
ATOM      8  C   UNL     1       0.542  -2.015  -1.327  0.00  0.00    +0.037 C 
ATOM      9  C   UNL     1       0.942  -2.701  -0.028  0.00  0.00    -0.023 A 
ATOM     10  C   UNL     1       1.014  -2.005   1.126  0.00  0.00    -0.022 A 
ATOM     11  C   UNL     1       1.354  -2.607   2.371  0.00  0.00    +0.061 A 
ATOM     12  S   UNL     1       1.423  -1.706   3.825  0.00  0.00    -0.044 S 
ATOM     13  S   UNL     1       1.702  -4.349   2.324  0.00  0.00    -0.065 S 
ATOM     14  C   UNL     1       1.574  -4.992   0.776  0.00  0.00    +0.091 A 
ATOM     15  C   UNL     1       1.208  -4.075  -0.202  0.00  0.00    +0.083 A 
ATOM     16  C   UNL     1       0.757  -0.518   1.222  0.00  0.00    +0.040 C 
BRANCH  15  17
ATOM     17  C   UNL     1       1.088  -4.582  -1.536  0.00  0.00    +0.102 C 
ATOM     18  N   UNL     1       0.993  -4.984  -2.594  0.00  0.00    -0.191 NA
ENDBRANCH  15  17
ENDBRANCH   1  14
BRANCH   2  19
ATOM     19  C   UNL     1       2.419  -8.579   1.195  0.00  0.00    +0.122 A 
ATOM     20  C   UNL     1       2.777  -9.472   2.196  0.00  0.00    +0.031 A 
ATOM     21  C   UNL     1       3.037 -10.818   1.829  0.00  0.00    +0.019 A 
ATOM     22  C   UNL     1       3.206 -11.804   2.812  0.00  0.00    +0.026 A 
ATOM     23  C   UNL     1       3.414 -13.102   2.442  0.00  0.00    +0.019 A 
ATOM     24  C   UNL     1       3.468 -13.454   1.099  0.00  0.00    +0.019 A 
ATOM     25  C   UNL     1       3.324 -12.496   0.116  0.00  0.00    +0.048 A 
ATOM     26  C   UNL     1       3.119 -11.169   0.469  0.00  0.00    +0.139 A 
ATOM     27  O   UNL     1       3.020 -10.214  -0.487  0.00  0.00    -0.422 OA
ATOM     28  C   UNL     1       2.298  -9.110  -0.175  0.00  0.00    +0.350 A 
ATOM     29  O   UNL     1       1.578  -8.573  -0.997  0.00  0.00    -0.244 OA
ATOM     30 BR   UNL     1       3.631 -14.432   3.768  0.00  0.00    -0.050 Br
ENDBRANCH   2  19
TORSDOF 3
