REMARK  Name = ZINC59404954
REMARK  12 active torsions:
REMARK  status: ('A' for Active; 'I' for Inactive)
REMARK    1  A    between atoms: C_1  and  C_2
REMARK    2  A    between atoms: C_2  and  C_3
REMARK    3  A    between atoms: C_3  and  N_4
REMARK    4  A    between atoms: N_4  and  C_5
REMARK    5  A    between atoms: N_4  and  C_20
REMARK    6  A    between atoms: C_5  and  C_6
REMARK    7  A    between atoms: N_8  and  C_9
REMARK    8  A    between atoms: C_14  and  S_15
REMARK    9  A    between atoms: S_15  and  C_16
REMARK   10  A    between atoms: C_16  and  C_17
REMARK   11  A    between atoms: C_20  and  C_22
REMARK   12  A    between atoms: C_20  and  C_23
REMARK                            x       y       z     vdW  Elec       q    Type
REMARK                         _______ _______ _______ _____ _____    ______ ____
ROOT
ATOM      1  C   UNL     1       1.092  -1.724  -1.281  0.00  0.00    +0.201 C 
ATOM      2  O   UNL     1       0.052  -1.100  -1.252  0.00  0.00    -0.278 OA
ATOM      3  N   UNL     1       1.757  -1.872  -2.443  0.00  0.00    -0.286 N 
ATOM      4  H   UNL     1       2.551  -2.428  -2.481  0.00  0.00    +0.155 HD
ENDROOT
BRANCH   3   5
ATOM      5  C   UNL     1       1.302  -1.221  -3.598  0.00  0.00    +0.047 A 
ATOM      6  C   UNL     1      -0.039  -0.895  -3.730  0.00  0.00    +0.024 A 
ATOM      7  C   UNL     1      -0.485  -0.254  -4.871  0.00  0.00    +0.002 A 
ATOM      8  C   UNL     1       0.402   0.065  -5.882  0.00  0.00    +0.001 A 
ATOM      9  C   UNL     1       1.741  -0.256  -5.760  0.00  0.00    +0.016 A 
ATOM     10  C   UNL     1       2.199  -0.895  -4.616  0.00  0.00    +0.030 A 
BRANCH  10  11
ATOM     11  S   UNL     1       3.906  -1.299  -4.454  0.00  0.00    -0.114 S 
BRANCH  11  12
ATOM     12  C   UNL     1       4.650  -0.689  -5.992  0.00  0.00    +0.169 C 
BRANCH  12  13
ATOM     13  C   UNL     1       6.129  -0.976  -5.982  0.00  0.00    +0.221 C 
ATOM     14  O   UNL     1       6.633  -1.536  -5.032  0.00  0.00    -0.275 OA
ATOM     15  N   UNL     1       6.894  -0.609  -7.030  0.00  0.00    -0.329 N 
ATOM     16  H   UNL     1       6.491  -0.161  -7.791  0.00  0.00    +0.145 HD
ATOM     17  H   UNL     1       7.846  -0.793  -7.024  0.00  0.00    +0.145 HD
ENDBRANCH  12  13
ENDBRANCH  11  12
ENDBRANCH  10  11
ENDBRANCH   3   5
BRANCH   1  18
ATOM     18  C   UNL     1       1.639  -2.335  -0.016  0.00  0.00    +0.020 C 
BRANCH  18  19
ATOM     19  N   UNL     1       0.820  -1.911   1.127  0.00  0.00    +0.390 N 
ATOM     20  H   UNL     1      -0.150  -2.120   0.942  0.00  0.00    -0.080 HD
BRANCH  19  21
ATOM     21  C   UNL     1       1.254  -2.628   2.333  0.00  0.00    -0.040 C 
ATOM     22  C   UNL     1       0.401  -2.187   3.524  0.00  0.00    -0.008 C 
BRANCH  21  23
ATOM     23  C   UNL     1       1.092  -4.112   2.122  0.00  0.00    -0.060 A 
ATOM     24  C   UNL     1      -0.018  -4.597   1.455  0.00  0.00    +0.003 A 
ATOM     25  C   UNL     1      -0.168  -5.957   1.261  0.00  0.00    +0.021 A 
ATOM     26  C   UNL     1       0.793  -6.833   1.733  0.00  0.00    +0.059 A 
ATOM     27  C   UNL     1       1.904  -6.347   2.399  0.00  0.00    +0.059 A 
ATOM     28  C   UNL     1       2.056  -4.985   2.588  0.00  0.00    +0.023 A 
ATOM     29 CL   UNL     1       3.111  -7.446   2.992  0.00  0.00    -0.082 Cl
ATOM     30 CL   UNL     1       0.604  -8.542   1.489  0.00  0.00    -0.082 Cl
ENDBRANCH  21  23
ENDBRANCH  19  21
BRANCH  19  31
ATOM     31  C   UNL     1       0.978  -0.465   1.333  0.00  0.00    -0.078 C 
BRANCH  31  33
ATOM     32  C   UNL     1       2.634   1.377   1.658  0.00  0.00    +0.002 C 
ATOM     33  C   UNL     1       2.459  -0.138   1.535  0.00  0.00    -0.022 C 
ENDBRANCH  31  33
ENDBRANCH  19  31
ENDBRANCH  18  19
ENDBRANCH   1  18
TORSDOF 10
