REMARK  Name = ZINC05415055
REMARK  7 active torsions:
REMARK  status: ('A' for Active; 'I' for Inactive)
REMARK    1  A    between atoms: C_3  and  O_30
REMARK    2  A    between atoms: C_6  and  C_7
REMARK    3  A    between atoms: C_22  and  C_23
REMARK    4  A    between atoms: C_22  and  N_56
REMARK    5  A    between atoms: C_26  and  C_28
REMARK    6  A    between atoms: C_28  and  O_29
REMARK    7  A    between atoms: O_30  and  C_31
REMARK                            x       y       z     vdW  Elec       q    Type
REMARK                         _______ _______ _______ _____ _____    ______ ____
ROOT
ATOM      1  C   UNL     1       2.317  -1.529  -3.243  0.00  0.00    +0.047 A 
ATOM      2  C   UNL     1       1.225  -2.237  -2.764  0.00  0.00    +0.015 A 
ATOM      3  C   UNL     1       0.485  -1.694  -1.712  0.00  0.00    +0.022 A 
ATOM      4  C   UNL     1       0.811  -0.484  -1.182  0.00  0.00    +0.023 A 
ATOM      5  N   UNL     1       1.822   0.251  -1.704  0.00  0.00    -0.311 N 
ATOM      6  C   UNL     1       2.622  -0.278  -2.663  0.00  0.00    +0.259 A 
ATOM      7  O   UNL     1       3.613   0.332  -3.028  0.00  0.00    -0.267 OA
ATOM      8  C   UNL     1       2.078   1.642  -1.327  0.00  0.00    +0.126 C 
ATOM      9  C   UNL     1       1.435   2.010  -0.001  0.00  0.00    -0.007 C 
ATOM     10  C   UNL     1      -0.019   1.528   0.010  0.00  0.00    +0.011 C 
ATOM     11  C   UNL     1       0.002  -0.004   0.002  0.00  0.00    +0.020 C 
ATOM     12  C   UNL     1       0.721  -0.478   1.276  0.00  0.00    -0.069 C 
ATOM     13  C   UNL     1       2.203   1.437   1.180  0.00  0.00    -0.073 C 
ATOM     14  N   UNL     1       2.132  -0.039   1.179  0.00  0.00    +0.385 N 
ATOM     15  H   UNL     1       2.530  -0.391   0.300  0.00  0.00    -0.081 HD
ENDROOT
BRANCH   1  21
ATOM     16  C   UNL     1       4.481  -2.409  -4.110  0.00  0.00    +0.012 A 
ATOM     17  C   UNL     1       5.250  -2.921  -5.135  0.00  0.00    +0.046 A 
ATOM     18  C   UNL     1       4.700  -3.094  -6.397  0.00  0.00    +0.130 A 
ATOM     19  C   UNL     1       3.373  -2.757  -6.633  0.00  0.00    +0.046 A 
ATOM     20  C   UNL     1       2.598  -2.250  -5.612  0.00  0.00    +0.012 A 
ATOM     21  C   UNL     1       3.147  -2.075  -4.342  0.00  0.00    -0.012 A 
BRANCH  18  22
ATOM     22  O   UNL     1       5.461  -3.594  -7.406  0.00  0.00    -0.406 OA
BRANCH  22  23
ATOM     23  C   UNL     1       6.818  -3.920  -7.094  0.00  0.00    +0.575 C 
ATOM     24  F   UNL     1       6.845  -4.889  -6.086  0.00  0.00    -0.133 F 
ATOM     25  F   UNL     1       7.452  -4.417  -8.237  0.00  0.00    -0.133 F 
ATOM     26  F   UNL     1       7.484  -2.771  -6.654  0.00  0.00    -0.133 F 
ENDBRANCH  22  23
ENDBRANCH  18  22
ENDBRANCH   1  21
BRANCH  14  27
ATOM     27  C   UNL     1       2.910  -0.583   2.310  0.00  0.00    -0.003 C 
BRANCH  27  28
ATOM     28  C   UNL     1       3.002  -2.079   2.159  0.00  0.00    +0.089 A 
ATOM     29  C   UNL     1       3.961  -2.745   1.489  0.00  0.00    +0.043 A 
ATOM     30  C   UNL     1       3.660  -4.121   1.605  0.00  0.00    +0.047 A 
ATOM     31  C   UNL     1       2.537  -4.215   2.338  0.00  0.00    +0.130 A 
ATOM     32  O   UNL     1       2.146  -2.975   2.676  0.00  0.00    -0.464 OA
BRANCH  31  33
ATOM     33  C   UNL     1       1.838  -5.494   2.721  0.00  0.00    +0.230 C 
BRANCH  33  34
ATOM     34  O   UNL     1       2.356  -5.966   3.966  0.00  0.00    -0.387 OA
ATOM     35  H   UNL     1       1.951  -6.789   4.274  0.00  0.00    +0.210 HD
ENDBRANCH  33  34
ENDBRANCH  31  33
ENDBRANCH  27  28
ENDBRANCH  14  27
TORSDOF 7
