REMARK  Name = ZINC13064824
REMARK  10 active torsions:
REMARK  status: ('A' for Active; 'I' for Inactive)
REMARK    1  A    between atoms: C_1  and  C_2
REMARK    2  A    between atoms: C_2  and  C_3
REMARK    3  A    between atoms: C_3  and  C_5
REMARK    4  A    between atoms: C_3  and  N_69
REMARK    5  A    between atoms: N_9  and  C_10
REMARK    6  A    between atoms: C_15  and  C_16
REMARK    7  A    between atoms: C_15  and  N_69
REMARK    8  A    between atoms: C_19  and  C_29
REMARK    9  A    between atoms: C_21  and  C_28
REMARK   10  A    between atoms: C_30  and  N_69
REMARK                            x       y       z     vdW  Elec       q    Type
REMARK                         _______ _______ _______ _____ _____    ______ ____
ROOT
ATOM      1  N   UNL     1       2.750  -1.886   1.040  0.00  0.00    +0.391 N 
ATOM      2  H   UNL     1       2.741  -1.721   2.053  0.00  0.00    -0.080 HD
ENDROOT
BRANCH   1   3
ATOM      3  C   UNL     1       3.829  -1.077   0.432  0.00  0.00    -0.067 C 
ATOM      4  C   UNL     1       3.609   0.411   0.772  0.00  0.00    -0.015 C 
ATOM      5  C   UNL     1       4.068   1.163  -0.503  0.00  0.00    -0.002 C 
ATOM      6  C   UNL     1       3.571   0.239  -1.643  0.00  0.00    -0.002 C 
ATOM      7  C   UNL     1       3.805  -1.187  -1.102  0.00  0.00    -0.015 C 
ENDBRANCH   1   3
BRANCH   1   8
ATOM      8  C   UNL     1       1.443  -1.488   0.476  0.00  0.00    +0.003 C 
BRANCH   8   9
ATOM      9  C   UNL     1       1.182  -2.219  -0.815  0.00  0.00    +0.138 A 
ATOM     10  N   UNL     1       1.506  -3.459  -1.092  0.00  0.00    -0.115 NA
ATOM     11  N   UNL     1       1.115  -3.714  -2.293  0.00  0.00    -0.023 NA
ATOM     12  N   UNL     1       0.550  -2.669  -2.790  0.00  0.00    -0.044 NA
ATOM     13  N   UNL     1       0.572  -1.726  -1.909  0.00  0.00    -0.228 N 
BRANCH  13  14
ATOM     14  C   UNL     1       0.034  -0.373  -2.069  0.00  0.00    +0.111 C 
ATOM     15  C   UNL     1      -1.469  -0.439  -2.410  0.00  0.00    +0.027 C 
ATOM     16  C   UNL     1      -1.680   0.716  -3.421  0.00  0.00    +0.002 C 
ATOM     17  C   UNL     1      -0.386   0.669  -4.270  0.00  0.00    +0.002 C 
ATOM     18  C   UNL     1       0.723   0.332  -3.251  0.00  0.00    +0.027 C 
ENDBRANCH  13  14
ENDBRANCH   8   9
BRANCH   8  20
ATOM     19  C   UNL     1       0.520  -0.973   2.740  0.00  0.00    +0.002 C 
ATOM     20  C   UNL     1       0.349  -1.835   1.488  0.00  0.00    -0.011 C 
ENDBRANCH   8  20
ENDBRANCH   1   8
BRANCH   1  21
ATOM     21  C   UNL     1       2.993  -3.322   0.788  0.00  0.00    -0.036 C 
BRANCH  21  22
ATOM     22  C   UNL     1       4.054  -3.806   1.742  0.00  0.00    +0.001 A 
ATOM     23  C   UNL     1       3.696  -4.363   2.926  0.00  0.00    +0.017 A 
ATOM     24  C   UNL     1       4.751  -4.827   3.828  0.00  0.00    +0.002 A 
ATOM     25  C   UNL     1       4.443  -5.415   5.060  0.00  0.00    -0.041 A 
ATOM     26  C   UNL     1       5.451  -5.833   5.881  0.00  0.00    +0.007 A 
ATOM     27  C   UNL     1       6.779  -5.681   5.505  0.00  0.00    -0.048 A 
ATOM     28  C   UNL     1       7.105  -5.105   4.296  0.00  0.00    +0.029 A 
ATOM     29  C   UNL     1       6.096  -4.671   3.443  0.00  0.00    +0.050 A 
ATOM     30  N   UNL     1       6.394  -4.092   2.228  0.00  0.00    -0.322 N 
ATOM     31  H   UNL     1       7.321  -3.985   1.964  0.00  0.00    +0.169 HD
ATOM     32  C   UNL     1       5.418  -3.673   1.404  0.00  0.00    +0.251 A 
ATOM     33  O   UNL     1       5.718  -3.165   0.337  0.00  0.00    -0.268 OA
ATOM     34  C   UNL     1       7.874  -6.151   6.427  0.00  0.00    +0.044 C 
ATOM     35  C   UNL     1       3.005  -5.584   5.479  0.00  0.00    +0.044 C 
ENDBRANCH  21  22
ENDBRANCH   1  21
TORSDOF 7
