REMARK  Name = ZINC54201307
REMARK  8 active torsions:
REMARK  status: ('A' for Active; 'I' for Inactive)
REMARK    1  A    between atoms: C_1  and  O_2
REMARK    2  A    between atoms: O_2  and  C_3
REMARK    3  A    between atoms: C_6  and  C_9
REMARK    4  A    between atoms: C_12  and  C_29
REMARK    5  A    between atoms: C_21  and  C_22
REMARK    6  A    between atoms: C_25  and  O_28
REMARK    7  A    between atoms: C_32  and  O_35
REMARK    8  A    between atoms: O_35  and  C_36
REMARK                            x       y       z     vdW  Elec       q    Type
REMARK                         _______ _______ _______ _____ _____    ______ ____
ROOT
ATOM      1  C   UNL     1      -6.054  -2.766   0.141  0.00  0.00    +0.135 C 
ATOM      2  C   UNL     1      -6.013  -3.265  -1.317  0.00  0.00    +0.087 C 
ATOM      3  C   UNL     1      -5.578  -4.708  -1.197  0.00  0.00    +0.069 C 
ATOM      4  N   UNL     1      -5.401  -5.002   0.046  0.00  0.00    -0.182 NA
ATOM      5  N   UNL     1      -5.651  -3.945   0.924  0.00  0.00    -0.200 N 
ATOM      6  C   UNL     1      -5.540  -3.994   2.292  0.00  0.00    +0.149 C 
ATOM      7  N   UNL     1      -5.798  -2.957   3.034  0.00  0.00    -0.153 NA
ATOM      8  C   UNL     1      -5.694  -2.991   4.369  0.00  0.00    +0.302 C 
ATOM      9  O   UNL     1      -5.906  -2.096   5.170  0.00  0.00    -0.260 OA
ATOM     10  S   UNL     1      -5.168  -4.668   4.687  0.00  0.00    -0.026 S 
ATOM     11  C   UNL     1      -5.127  -5.226   2.988  0.00  0.00    +0.057 C 
ATOM     12  C   UNL     1      -4.803  -6.447   2.480  0.00  0.00    +0.026 C 
ENDROOT
BRANCH   1  16
ATOM     13  C   UNL     1      -3.285   0.438   0.713  0.00  0.00    +0.120 A 
ATOM     14  C   UNL     1      -4.640   0.706   0.574  0.00  0.00    +0.046 A 
ATOM     15  C   UNL     1      -5.533  -0.331   0.389  0.00  0.00    +0.009 A 
ATOM     16  C   UNL     1      -5.078  -1.636   0.342  0.00  0.00    -0.025 A 
ATOM     17  C   UNL     1      -3.729  -1.906   0.480  0.00  0.00    +0.009 A 
ATOM     18  C   UNL     1      -2.831  -0.872   0.660  0.00  0.00    +0.046 A 
BRANCH  13  20
ATOM     19  C   UNL     1      -2.944   2.780   0.939  0.00  0.00    +0.277 C 
ATOM     20  O   UNL     1      -2.405   1.457   0.894  0.00  0.00    -0.495 OA
ENDBRANCH  13  20
ENDBRANCH   1  16
BRANCH  12  21
ATOM     21  C   UNL     1      -4.600  -7.586   3.381  0.00  0.00    -0.024 A 
ATOM     22  C   UNL     1      -4.088  -8.793   2.886  0.00  0.00    +0.011 A 
ATOM     23  C   UNL     1      -3.900  -9.858   3.736  0.00  0.00    +0.046 A 
ATOM     24  C   UNL     1      -4.216  -9.739   5.085  0.00  0.00    +0.117 A 
ATOM     25  C   UNL     1      -4.725  -8.544   5.582  0.00  0.00    +0.046 A 
ATOM     26  C   UNL     1      -4.912  -7.470   4.743  0.00  0.00    +0.011 A 
BRANCH  24  27
ATOM     27  O   UNL     1      -4.028 -10.793   5.919  0.00  0.00    -0.507 OA
ATOM     28  H   UNL     1      -3.152 -10.819   6.328  0.00  0.00    +0.292 HD
ENDBRANCH  24  27
ENDBRANCH  12  21
BRANCH   3  29
ATOM     29  C   UNL     1      -5.386  -5.636  -2.325  0.00  0.00    -0.002 A 
ATOM     30  C   UNL     1      -5.604  -5.200  -3.636  0.00  0.00    +0.013 A 
ATOM     31  C   UNL     1      -5.422  -6.071  -4.688  0.00  0.00    +0.046 A 
ATOM     32  C   UNL     1      -5.024  -7.380  -4.448  0.00  0.00    +0.120 A 
ATOM     33  C   UNL     1      -4.807  -7.818  -3.148  0.00  0.00    +0.046 A 
ATOM     34  C   UNL     1      -4.980  -6.952  -2.090  0.00  0.00    +0.013 A 
BRANCH  32  35
ATOM     35  O   UNL     1      -4.848  -8.236  -5.489  0.00  0.00    -0.495 OA
ATOM     36  C   UNL     1      -4.438  -9.567  -5.171  0.00  0.00    +0.277 C 
ENDBRANCH  32  35
ENDBRANCH   3  29
TORSDOF 6
