REMARK  Name = ZINC38797329
REMARK  6 active torsions:
REMARK  status: ('A' for Active; 'I' for Inactive)
REMARK    1  A    between atoms: C_7  and  N_19
REMARK    2  A    between atoms: C_9  and  S_12
REMARK    3  A    between atoms: C_10  and  O_11
REMARK    4  A    between atoms: S_12  and  C_13
REMARK    5  A    between atoms: N_19  and  S_20
REMARK    6  A    between atoms: S_20  and  C_23
REMARK                            x       y       z     vdW  Elec       q    Type
REMARK                         _______ _______ _______ _____ _____    ______ ____
ROOT
ATOM      1  C   UNL     1       0.020   1.340   0.550  0.00  0.00    +0.001 A 
ATOM      2  C   UNL     1       1.218   2.043   0.660  0.00  0.00    +0.001 A 
ATOM      3  C   UNL     1       2.415   1.414   0.508  0.00  0.00    +0.012 A 
ATOM      4  C   UNL     1       2.447   0.035   0.235  0.00  0.00    +0.026 A 
ATOM      5  C   UNL     1       1.228  -0.679   0.124  0.00  0.00    +0.008 A 
ATOM      6  C   UNL     1       0.012   0.004   0.287  0.00  0.00    +0.010 A 
ATOM      7  C   UNL     1       1.254  -2.063  -0.150  0.00  0.00    +0.057 A 
ATOM      8  C   UNL     1       2.462  -2.705  -0.306  0.00  0.00    +0.044 A 
ATOM      9  C   UNL     1       3.664  -2.002  -0.197  0.00  0.00    +0.059 A 
ATOM     10  C   UNL     1       3.667  -0.646   0.072  0.00  0.00    +0.138 A 
ENDROOT
BRANCH  10  11
ATOM     11  O   UNL     1       4.845   0.028   0.176  0.00  0.00    -0.505 OA
ATOM     12  H   UNL     1       5.206   0.053   1.073  0.00  0.00    +0.292 HD
ENDBRANCH  10  11
BRANCH   7  13
ATOM     13  N   UNL     1       0.060  -2.779  -0.262  0.00  0.00    -0.216 N 
ATOM     14  H   UNL     1      -0.720  -2.361  -0.659  0.00  0.00    +0.174 HD
BRANCH  13  15
ATOM     15  S   UNL     1      -0.024  -4.340   0.283  0.00  0.00    +0.072 S 
ATOM     16  O   UNL     1      -1.380  -4.743   0.156  0.00  0.00    -0.150 OA
ATOM     17  O   UNL     1       1.042  -5.045  -0.339  0.00  0.00    -0.150 OA
BRANCH  15  18
ATOM     18  C   UNL     1       0.333  -4.309   2.009  0.00  0.00    +0.110 A 
ATOM     19  C   UNL     1       1.716  -4.446   2.447  0.00  0.00    +0.031 A 
ATOM     20  C   UNL     1       2.058  -4.430   3.754  0.00  0.00    +0.027 A 
ATOM     21  C   UNL     1       1.018  -4.272   4.769  0.00  0.00    +0.056 A 
ATOM     22  N   UNL     1       1.005  -4.217   6.077  0.00  0.00    -0.268 N 
ATOM     23  C   UNL     1      -0.296  -4.055   6.492  0.00  0.00    +0.308 C 
ATOM     24  O   UNL     1      -0.653  -3.967   7.647  0.00  0.00    -0.252 OA
ATOM     25  N   UNL     1      -1.130  -4.006   5.400  0.00  0.00    -0.267 N 
ATOM     26  C   UNL     1      -0.403  -4.132   4.318  0.00  0.00    +0.058 A 
ATOM     27  C   UNL     1      -0.684  -4.155   2.884  0.00  0.00    +0.054 A 
ATOM     28  H   UNL     1      -2.094  -3.898   5.427  0.00  0.00    +0.156 HD
ATOM     29  H   UNL     1       1.781  -4.280   6.655  0.00  0.00    +0.156 HD
ENDBRANCH  15  18
ENDBRANCH  13  15
ENDBRANCH   7  13
BRANCH   9  30
ATOM     30  S   UNL     1       5.194  -2.853  -0.401  0.00  0.00    -0.047 S 
BRANCH  30  31
ATOM     31  C   UNL     1       5.722  -2.397  -2.019  0.00  0.00    +0.189 A 
ATOM     32  H   UNL     1       7.445  -3.525  -2.330  0.00  0.00    +0.191 HD
ATOM     33  N   UNL     1       5.130  -1.529  -2.812  0.00  0.00    -0.209 NA
ATOM     34  C   UNL     1       5.805  -1.435  -3.958  0.00  0.00    +0.245 A 
ATOM     35  N   UNL     1       6.834  -2.237  -3.916  0.00  0.00    -0.160 NA
ATOM     36  N   UNL     1       6.809  -2.873  -2.664  0.00  0.00    -0.254 N 
ENDBRANCH  30  31
ENDBRANCH   9  30
TORSDOF 6
