REMARK  Name = ZINC37264035
REMARK  11 active torsions:
REMARK  status: ('A' for Active; 'I' for Inactive)
REMARK    1  A    between atoms: C_1  and  C_2
REMARK    2  A    between atoms: C_2  and  C_3
REMARK    3  A    between atoms: C_3  and  N_4
REMARK    4  A    between atoms: C_5  and  C_7
REMARK    5  A    between atoms: C_7  and  N_8
REMARK    6  A    between atoms: C_11  and  C_21
REMARK    7  A    between atoms: N_13  and  C_14
REMARK    8  A    between atoms: C_21  and  C_22
REMARK    9  A    between atoms: C_21  and  C_23
REMARK   10  A    between atoms: C_21  and  C_24
REMARK   11  A    between atoms: C_25  and  C_31
REMARK                            x       y       z     vdW  Elec       q    Type
REMARK                         _______ _______ _______ _____ _____    ______ ____
ROOT
ATOM      1  N   UNL     1      -6.556 -10.760   0.035  0.00  0.00    -0.246 N 
ATOM      2  C   UNL     1      -6.440  -9.518   0.676  0.00  0.00    +0.136 A 
ATOM      3  C   UNL     1      -6.920  -9.262   1.915  0.00  0.00    +0.034 A 
ATOM      4  C   UNL     1      -6.631  -7.931   2.220  0.00  0.00    +0.075 A 
ATOM      5  N   UNL     1      -5.996  -7.405   1.201  0.00  0.00    -0.169 NA
ATOM      6  N   UNL     1      -5.859  -8.388   0.208  0.00  0.00    -0.218 N 
ATOM      7  C   UNL     1      -7.631 -10.265   2.787  0.00  0.00    +0.115 C 
ATOM      8  S   UNL     1      -9.310 -10.536   2.114  0.00  0.00    -0.138 S 
ATOM      9  C   UNL     1      -8.993 -10.575   0.318  0.00  0.00    +0.166 C 
ATOM     10  C   UNL     1      -7.753 -11.356   0.010  0.00  0.00    +0.231 C 
ATOM     11  O   UNL     1      -7.835 -12.536  -0.258  0.00  0.00    -0.274 OA
ENDROOT
BRANCH   6  12
ATOM     12  C   UNL     1      -5.236  -8.229  -1.038  0.00  0.00    +0.068 A 
ATOM     13  C   UNL     1      -5.819  -8.761  -2.180  0.00  0.00    +0.030 A 
ATOM     14  C   UNL     1      -5.204  -8.604  -3.406  0.00  0.00    +0.040 A 
ATOM     15  C   UNL     1      -4.005  -7.916  -3.497  0.00  0.00    +0.124 A 
ATOM     16  C   UNL     1      -3.421  -7.386  -2.359  0.00  0.00    +0.040 A 
ATOM     17  C   UNL     1      -4.037  -7.536  -1.132  0.00  0.00    +0.030 A 
ATOM     18  F   UNL     1      -3.404  -7.764  -4.697  0.00  0.00    -0.205 F 
ENDBRANCH   6  12
BRANCH   7  19
ATOM     19  C   UNL     1      -7.725  -9.735   4.194  0.00  0.00    +0.005 A 
ATOM     20  C   UNL     1      -8.826  -8.995   4.582  0.00  0.00    +0.008 A 
ATOM     21  C   UNL     1      -8.913  -8.509   5.873  0.00  0.00    +0.000 A 
ATOM     22  C   UNL     1      -7.899  -8.762   6.778  0.00  0.00    +0.003 A 
ATOM     23  C   UNL     1      -6.798  -9.502   6.393  0.00  0.00    +0.038 A 
ATOM     24  C   UNL     1      -6.712  -9.994   5.101  0.00  0.00    +0.128 A 
ATOM     25  F   UNL     1      -5.638 -10.722   4.725  0.00  0.00    -0.205 F 
ENDBRANCH   7  19
BRANCH   4  26
ATOM     26  C   UNL     1      -6.987  -7.221   3.501  0.00  0.00    +0.007 C 
ATOM     27  C   UNL     1      -6.351  -7.954   4.684  0.00  0.00    +0.017 C 
ATOM     28  C   UNL     1      -6.464  -5.784   3.450  0.00  0.00    +0.017 C 
ATOM     29  C   UNL     1      -8.508  -7.205   3.669  0.00  0.00    +0.017 C 
ENDBRANCH   4  26
BRANCH   1  30
ATOM     30  C   UNL     1      -5.394 -11.387  -0.599  0.00  0.00    +0.210 C 
BRANCH  30  32
ATOM     31  N   UNL     1      -3.454 -12.755   0.098  0.00  0.00    -0.314 N 
ATOM     32  C   UNL     1      -4.623 -12.173   0.430  0.00  0.00    +0.231 C 
ATOM     33  O   UNL     1      -5.056 -12.282   1.558  0.00  0.00    -0.274 OA
ATOM     34  H   UNL     1      -3.072 -12.608  -0.781  0.00  0.00    +0.149 HD
BRANCH  31  35
ATOM     35  C   UNL     1      -2.760 -13.610   1.064  0.00  0.00    +0.104 C 
BRANCH  35  37
ATOM     36  C   UNL     1      -0.809 -15.132   1.409  0.00  0.00    +0.005 C 
ATOM     37  C   UNL     1      -1.534 -14.239   0.400  0.00  0.00    +0.015 C 
ENDBRANCH  35  37
ENDBRANCH  31  35
ENDBRANCH  30  32
ENDBRANCH   1  30
TORSDOF 7
