REMARK  Name = ZINC04100104
REMARK  10 active torsions:
REMARK  status: ('A' for Active; 'I' for Inactive)
REMARK    1  A    between atoms: C_1  and  C_2
REMARK    2  A    between atoms: C_2  and  C_3
REMARK    3  A    between atoms: C_3  and  C_4
REMARK    4  A    between atoms: C_4  and  C_5
REMARK    5  A    between atoms: C_5  and  C_28
REMARK    6  A    between atoms: N_6  and  N_7
REMARK    7  A    between atoms: C_8  and  S_10
REMARK    8  A    between atoms: S_10  and  C_11
REMARK    9  A    between atoms: N_16  and  C_19
REMARK   10  A    between atoms: C_23  and  N_25
REMARK                            x       y       z     vdW  Elec       q    Type
REMARK                         _______ _______ _______ _____ _____    ______ ____
ROOT
ATOM      1  N   UNL     1       3.215  -2.512  -0.369  0.00  0.00    -0.217 N 
ATOM      2  C   UNL     1       4.551  -2.737  -0.618  0.00  0.00    +0.146 C 
ATOM      3  N   UNL     1       4.928  -3.220  -1.770  0.00  0.00    -0.380 N 
ATOM      4  H   UNL     1       2.935  -2.153   0.487  0.00  0.00    +0.176 HD
ATOM      5  H   UNL     1       5.868  -3.378  -1.945  0.00  0.00    +0.158 HD
ATOM      6  H   UNL     1       4.267  -3.421  -2.451  0.00  0.00    +0.158 HD
ENDROOT
BRANCH   1   8
ATOM      7  C   UNL     1       1.002  -2.590  -1.119  0.00  0.00    +0.066 C 
ATOM      8  N   UNL     1       2.261  -2.802  -1.353  0.00  0.00    -0.185 NA
BRANCH   7   9
ATOM      9  C   UNL     1      -0.002  -2.896  -2.155  0.00  0.00    -0.002 A 
ATOM     10  C   UNL     1      -1.357  -2.663  -1.908  0.00  0.00    +0.010 A 
ATOM     11  C   UNL     1      -2.291  -2.951  -2.881  0.00  0.00    +0.001 A 
ATOM     12  C   UNL     1      -1.889  -3.469  -4.100  0.00  0.00    +0.000 A 
ATOM     13  C   UNL     1      -0.548  -3.702  -4.351  0.00  0.00    +0.001 A 
ATOM     14  C   UNL     1       0.398  -3.413  -3.389  0.00  0.00    +0.010 A 
ENDBRANCH   7   9
BRANCH   7  15
ATOM     15  C   UNL     1       0.567  -2.032   0.212  0.00  0.00    +0.057 C 
BRANCH  15  16
ATOM     16  C   UNL     1       0.548  -0.504   0.142  0.00  0.00    +0.006 C 
BRANCH  16  18
ATOM     17  C   UNL     1       0.088   1.591   1.423  0.00  0.00    +0.004 C 
ATOM     18  C   UNL     1       0.106   0.063   1.493  0.00  0.00    -0.003 C 
ENDBRANCH  16  18
ENDBRANCH  15  16
ENDBRANCH   7  15
ENDBRANCH   1   8
BRANCH   2  19
ATOM     19  S   UNL     1       5.751  -2.372   0.620  0.00  0.00    -0.078 S 
BRANCH  19  20
ATOM     20  C   UNL     1       7.329  -2.823  -0.153  0.00  0.00    +0.149 C 
ATOM     21  C   UNL     1       8.507  -2.494   0.787  0.00  0.00    +0.120 C 
ATOM     22  C   UNL     1       9.145  -3.843   1.041  0.00  0.00    +0.228 C 
ATOM     23  O   UNL     1      10.117  -4.040   1.738  0.00  0.00    -0.275 OA
ATOM     24  N   UNL     1       8.466  -4.784   0.374  0.00  0.00    -0.209 N 
ATOM     25  C   UNL     1       7.423  -4.322  -0.335  0.00  0.00    +0.240 C 
ATOM     26  O   UNL     1       6.676  -4.996  -1.011  0.00  0.00    -0.274 OA
BRANCH  24  27
ATOM     27  C   UNL     1       8.816  -6.141   0.410  0.00  0.00    +0.046 A 
ATOM     28  C   UNL     1       9.299  -6.766  -0.732  0.00  0.00    +0.024 A 
ATOM     29  C   UNL     1       9.643  -8.103  -0.693  0.00  0.00    +0.004 A 
ATOM     30  C   UNL     1       9.506  -8.820   0.482  0.00  0.00    +0.033 A 
ATOM     31  C   UNL     1       9.024  -8.201   1.620  0.00  0.00    +0.128 A 
ATOM     32  C   UNL     1       8.684  -6.862   1.589  0.00  0.00    +0.056 A 
BRANCH  31  33
ATOM     33  N   UNL     1       8.878  -8.972   2.875  0.00  0.00    +0.056 N 
ATOM     34  O   UNL     1       9.180 -10.142   2.905  0.00  0.00    -0.126 OA
ATOM     35  O   UNL     1       8.457  -8.431   3.871  0.00  0.00    -0.126 OA
ENDBRANCH  31  33
ENDBRANCH  24  27
ENDBRANCH  19  20
ENDBRANCH   2  19
TORSDOF 9
