REMARK  Name = ZINC12165601
REMARK  9 active torsions:
REMARK  status: ('A' for Active; 'I' for Inactive)
REMARK    1  A    between atoms: C_4  and  C_7
REMARK    2  A    between atoms: C_7  and  C_8
REMARK    3  A    between atoms: C_7  and  C_29
REMARK    4  A    between atoms: C_8  and  C_9
REMARK    5  A    between atoms: C_9  and  N_10
REMARK    6  A    between atoms: C_11  and  C_13
REMARK    7  A    between atoms: C_21  and  C_22
REMARK    8  A    between atoms: C_21  and  N_68
REMARK    9  A    between atoms: C_27  and  O_28
REMARK                            x       y       z     vdW  Elec       q    Type
REMARK                         _______ _______ _______ _____ _____    ______ ____
ROOT
ATOM      1  N   UNL     1      -2.547   1.809   3.529  0.00  0.00    -0.315 N 
ATOM      2  C   UNL     1      -1.427   1.261   3.017  0.00  0.00    +0.217 C 
ATOM      3  O   UNL     1      -1.439   0.116   2.618  0.00  0.00    -0.275 OA
ATOM      4  H   UNL     1      -2.537   2.725   3.848  0.00  0.00    +0.149 HD
ENDROOT
BRANCH   2   5
ATOM      5  C   UNL     1      -0.159   2.072   2.940  0.00  0.00    +0.082 C 
ATOM      6  C   UNL     1       0.343   2.470   1.550  0.00  0.00    +0.020 C 
ATOM      7  C   UNL     1       1.077   1.396   2.349  0.00  0.00    -0.021 C 
ATOM      8  C   UNL     1       2.442   1.755   2.944  0.00  0.00    -0.011 C 
ATOM      9  C   UNL     1       3.534   1.318   1.960  0.00  0.00    -0.078 C 
ATOM     10  C   UNL     1       2.123  -0.388   0.963  0.00  0.00    -0.078 C 
ATOM     11  C   UNL     1       0.943  -0.058   1.883  0.00  0.00    -0.011 C 
ATOM     12  N   UNL     1       3.384  -0.130   1.693  0.00  0.00    +0.382 N 
ATOM     13  H   UNL     1       3.358  -0.632   2.588  0.00  0.00    -0.081 HD
BRANCH  12  14
ATOM     14  C   UNL     1       4.532  -0.617   0.903  0.00  0.00    -0.039 C 
BRANCH  14  15
ATOM     15  C   UNL     1       5.772  -0.541   1.755  0.00  0.00    -0.022 A 
ATOM     16  C   UNL     1       6.664   0.502   1.586  0.00  0.00    +0.005 A 
ATOM     17  C   UNL     1       7.802   0.573   2.368  0.00  0.00    +0.000 A 
ATOM     18  C   UNL     1       8.051  -0.399   3.320  0.00  0.00    +0.004 A 
ATOM     19  C   UNL     1       7.164  -1.443   3.492  0.00  0.00    +0.045 A 
ATOM     20  C   UNL     1       6.018  -1.514   2.712  0.00  0.00    +0.118 A 
BRANCH  20  21
ATOM     21  O   UNL     1       5.140  -2.537   2.884  0.00  0.00    -0.507 OA
ATOM     22  H   UNL     1       5.327  -3.311   2.335  0.00  0.00    +0.292 HD
ENDBRANCH  20  21
ENDBRANCH  14  15
ENDBRANCH  12  14
ENDBRANCH   2   5
BRANCH   1  23
ATOM     23  C   UNL     1      -3.779   1.020   3.603  0.00  0.00    +0.105 C 
BRANCH  23  24
ATOM     24  C   UNL     1      -4.892   1.871   4.220  0.00  0.00    +0.031 C 
BRANCH  24  25
ATOM     25  C   UNL     1      -6.179   1.048   4.298  0.00  0.00    +0.050 C 
BRANCH  25  29
ATOM     26  C   UNL     1      -9.187   3.297   6.332  0.00  0.00    +0.000 A 
ATOM     27  C   UNL     1      -8.510   3.856   5.265  0.00  0.00    +0.000 A 
ATOM     28  C   UNL     1      -7.537   3.128   4.607  0.00  0.00    +0.004 A 
ATOM     29  C   UNL     1      -7.240   1.841   5.016  0.00  0.00    -0.040 A 
ATOM     30  C   UNL     1      -7.921   1.280   6.080  0.00  0.00    +0.004 A 
ATOM     31  C   UNL     1      -8.891   2.010   6.742  0.00  0.00    +0.000 A 
ENDBRANCH  25  29
BRANCH  25  32
ATOM     32  C   UNL     1      -6.652   0.722   2.905  0.00  0.00    -0.040 A 
ATOM     33  C   UNL     1      -6.809   1.732   1.974  0.00  0.00    +0.004 A 
ATOM     34  C   UNL     1      -7.239   1.432   0.695  0.00  0.00    +0.000 A 
ATOM     35  C   UNL     1      -7.521   0.124   0.349  0.00  0.00    +0.000 A 
ATOM     36  C   UNL     1      -7.368  -0.886   1.281  0.00  0.00    +0.000 A 
ATOM     37  C   UNL     1      -6.934  -0.587   2.559  0.00  0.00    +0.004 A 
ENDBRANCH  25  32
ENDBRANCH  24  25
ENDBRANCH  23  24
ENDBRANCH   1  23
TORSDOF 9
