REMARK  Name = ZINC39992730
REMARK  10 active torsions:
REMARK  status: ('A' for Active; 'I' for Inactive)
REMARK    1  A    between atoms: C_1  and  C_2
REMARK    2  A    between atoms: C_2  and  O_3
REMARK    3  A    between atoms: O_3  and  C_4
REMARK    4  A    between atoms: C_4  and  C_6
REMARK    5  A    between atoms: C_10  and  N_11
REMARK    6  A    between atoms: C_12  and  C_14
REMARK    7  A    between atoms: C_14  and  C_32
REMARK    8  A    between atoms: C_15  and  C_16
REMARK    9  A    between atoms: N_18  and  C_26
REMARK   10  A    between atoms: C_20  and  C_21
REMARK                            x       y       z     vdW  Elec       q    Type
REMARK                         _______ _______ _______ _____ _____    ______ ____
ROOT
ATOM      1  C   UNL     1       5.961  -2.677   0.397  0.00  0.00    +0.114 C 
ATOM      2  C   UNL     1       7.320  -2.837   0.585  0.00  0.00    +0.035 C 
ENDROOT
BRANCH   2   3
ATOM      3  C   UNL     1       8.204  -2.729  -0.517  0.00  0.00    +0.025 A 
ATOM      4  C   UNL     1       7.872  -2.798  -1.862  0.00  0.00    +0.123 A 
ATOM      5  N   UNL     1       9.002  -2.649  -2.573  0.00  0.00    -0.239 N 
ATOM      6  N   UNL     1      10.086  -2.480  -1.709  0.00  0.00    -0.163 NA
ATOM      7  C   UNL     1       9.659  -2.515  -0.465  0.00  0.00    +0.135 A 
BRANCH   5   8
ATOM      8  C   UNL     1       9.080  -2.661  -3.971  0.00  0.00    +0.065 A 
ATOM      9  C   UNL     1       7.931  -2.832  -4.731  0.00  0.00    +0.028 A 
ATOM     10  C   UNL     1       8.012  -2.843  -6.110  0.00  0.00    +0.002 A 
ATOM     11  C   UNL     1       9.236  -2.684  -6.734  0.00  0.00    +0.000 A 
ATOM     12  C   UNL     1      10.382  -2.514  -5.979  0.00  0.00    +0.002 A 
ATOM     13  C   UNL     1      10.307  -2.496  -4.600  0.00  0.00    +0.028 A 
ENDBRANCH   5   8
BRANCH   7  14
ATOM     14  C   UNL     1      10.482  -2.370   0.751  0.00  0.00    +0.155 A 
ATOM     15  C   UNL     1      11.759  -2.813   0.909  0.00  0.00    +0.051 A 
ATOM     16  C   UNL     1      12.151  -2.463   2.216  0.00  0.00    +0.042 A 
ATOM     17  C   UNL     1      11.107  -1.829   2.785  0.00  0.00    +0.196 A 
ATOM     18  O   UNL     1      10.102  -1.770   1.896  0.00  0.00    -0.461 OA
ENDBRANCH   7  14
ENDBRANCH   2   3
BRANCH   1  20
ATOM     19  N   UNL     1       3.705  -2.784   1.321  0.00  0.00    -0.275 N 
ATOM     20  C   UNL     1       5.031  -2.941   1.504  0.00  0.00    +0.259 C 
ATOM     21  O   UNL     1       5.458  -3.299   2.585  0.00  0.00    -0.269 OA
ATOM     22  H   UNL     1       3.364  -2.498   0.459  0.00  0.00    +0.156 HD
BRANCH  19  27
ATOM     23  C   UNL     1       1.445  -2.926   2.360  0.00  0.00    +0.091 A 
ATOM     24  C   UNL     1       0.751  -3.252   3.594  0.00  0.00    -0.021 A 
ATOM     25  C   UNL     1       1.566  -3.618   4.606  0.00  0.00    -0.004 A 
ATOM     26  S   UNL     1       3.196  -3.529   3.926  0.00  0.00    -0.077 S 
ATOM     27  C   UNL     1       2.828  -3.032   2.364  0.00  0.00    +0.087 A 
ATOM     28  C   UNL     1       1.158  -4.009   5.993  0.00  0.00    +0.043 C 
ATOM     29  C   UNL     1      -0.298  -3.570   6.210  0.00  0.00    +0.005 C 
ATOM     30  C   UNL     1      -1.135  -4.021   5.009  0.00  0.00    +0.005 C 
ATOM     31  C   UNL     1      -0.759  -3.198   3.774  0.00  0.00    +0.037 C 
BRANCH  23  32
ATOM     32  C   UNL     1       0.716  -2.508   1.161  0.00  0.00    +0.342 C 
ATOM     33  O   UNL     1       0.336  -3.341   0.360  0.00  0.00    -0.245 OA
BRANCH  32  34
ATOM     34  O   UNL     1       0.464  -1.201   0.946  0.00  0.00    -0.461 OA
BRANCH  34  36
ATOM     35  C   UNL     1      -0.442   0.651  -0.316  0.00  0.00    +0.048 C 
ATOM     36  C   UNL     1      -0.253  -0.866  -0.244  0.00  0.00    +0.229 C 
ENDBRANCH  34  36
ENDBRANCH  32  34
ENDBRANCH  23  32
ENDBRANCH  19  27
ENDBRANCH   1  20
BRANCH   1  37
ATOM     37  C   UNL     1       5.458  -2.255  -0.875  0.00  0.00    +0.104 C 
ATOM     38  N   UNL     1       5.059  -1.920  -1.885  0.00  0.00    -0.191 NA
ENDBRANCH   1  37
TORSDOF 9
