REMARK  Name = ZINC63152242
REMARK  8 active torsions:
REMARK  status: ('A' for Active; 'I' for Inactive)
REMARK    1  A    between atoms: C_2  and  C_3
REMARK    2  A    between atoms: C_3  and  C_4
REMARK    3  A    between atoms: C_8  and  C_11
REMARK    4  A    between atoms: C_9  and  O_10
REMARK    5  A    between atoms: N_12  and  N_13
REMARK    6  A    between atoms: C_14  and  C_16
REMARK    7  A    between atoms: C_16  and  S_17
REMARK    8  A    between atoms: S_17  and  C_18
REMARK                            x       y       z     vdW  Elec       q    Type
REMARK                         _______ _______ _______ _____ _____    ______ ____
ROOT
ATOM      1  N   UNL     1       1.023  -6.817  -0.817  0.00  0.00    -0.206 N 
ATOM      2  C   UNL     1       1.618  -7.192   0.332  0.00  0.00    +0.242 C 
ATOM      3  O   UNL     1       1.643  -6.433   1.278  0.00  0.00    -0.273 OA
ATOM      4  H   UNL     1       1.002  -7.425  -1.573  0.00  0.00    +0.177 HD
ENDROOT
BRANCH   1   6
ATOM      5  C   UNL     1      -0.140  -5.190  -2.028  0.00  0.00    +0.142 C 
ATOM      6  N   UNL     1       0.433  -5.551  -0.920  0.00  0.00    -0.188 NA
BRANCH   5  11
ATOM      7  C   UNL     1      -1.318  -1.726  -1.159  0.00  0.00    -0.002 A 
ATOM      8  C   UNL     1      -1.926  -1.349  -2.342  0.00  0.00    +0.007 A 
ATOM      9  C   UNL     1      -1.956  -2.216  -3.421  0.00  0.00    +0.001 A 
ATOM     10  C   UNL     1      -1.377  -3.465  -3.326  0.00  0.00    +0.013 A 
ATOM     11  C   UNL     1      -0.759  -3.857  -2.136  0.00  0.00    +0.036 A 
ATOM     12  C   UNL     1      -0.728  -2.974  -1.048  0.00  0.00    +0.129 A 
BRANCH  12  13
ATOM     13  O   UNL     1      -0.125  -3.343   0.112  0.00  0.00    -0.506 OA
ATOM     14  H   UNL     1      -0.714  -3.785   0.738  0.00  0.00    +0.292 HD
ENDBRANCH  12  13
BRANCH   7  15
ATOM     15  C   UNL     1      -1.293  -0.775   0.010  0.00  0.00    +0.065 C 
BRANCH  15  17
ATOM     16  C   UNL     1      -0.016   1.306   0.009  0.00  0.00    +0.004 C 
ATOM     17  C   UNL     1       0.002  -0.004   0.002  0.00  0.00    -0.030 C 
ENDBRANCH  15  17
ENDBRANCH   7  15
ENDBRANCH   5  11
ENDBRANCH   1   6
BRANCH   2  18
ATOM     18  C   UNL     1       2.252  -8.555   0.443  0.00  0.00    +0.170 C 
BRANCH  18  19
ATOM     19  S   UNL     1       2.963  -8.758   2.100  0.00  0.00    -0.106 S 
BRANCH  19  20
ATOM     20  C   UNL     1       3.676 -10.425   2.070  0.00  0.00    +0.236 C 
ATOM     21  N   UNL     1       4.646 -10.539   0.974  0.00  0.00    -0.355 N 
ATOM     22  C   UNL     1       4.222 -11.472   0.171  0.00  0.00    +0.061 A 
ATOM     23  C   UNL     1       4.753 -12.032  -1.079  0.00  0.00    +0.027 A 
ATOM     24  C   UNL     1       4.079 -13.016  -1.706  0.00  0.00    +0.002 A 
ATOM     25  C   UNL     1       2.871 -13.542  -1.212  0.00  0.00    +0.002 A 
ATOM     26  C   UNL     1       2.298 -13.101  -0.075  0.00  0.00    +0.027 A 
ATOM     27  C   UNL     1       2.944 -12.028   0.694  0.00  0.00    +0.061 A 
ATOM     28  N   UNL     1       2.628 -11.417   1.799  0.00  0.00    -0.355 N 
ATOM     29  H   UNL     1       5.456 -10.015   0.867  0.00  0.00    +0.162 HD
ATOM     30  H   UNL     1       1.844 -11.587   2.344  0.00  0.00    +0.162 HD
ENDBRANCH  19  20
ENDBRANCH  18  19
ENDBRANCH   2  18
TORSDOF 8
