REMARK  Name = ZINC31045056
REMARK  5 active torsions:
REMARK  status: ('A' for Active; 'I' for Inactive)
REMARK    1  A    between atoms: C_5  and  N_7
REMARK    2  A    between atoms: C_13  and  C_15
REMARK    3  A    between atoms: N_20  and  C_22
REMARK    4  A    between atoms: C_22  and  C_23
REMARK    5  A    between atoms: C_25  and  C_28
REMARK                            x       y       z     vdW  Elec       q    Type
REMARK                         _______ _______ _______ _____ _____    ______ ____
ROOT
ATOM      1  C   UNL     1       3.168   3.500  -0.823  0.00  0.00    +0.059 C 
ATOM      2  C   UNL     1       4.188   2.389  -1.089  0.00  0.00    +0.009 C 
ATOM      3  C   UNL     1       5.598   2.986  -1.069  0.00  0.00    -0.018 C 
ATOM      4  C   UNL     1       5.690   4.100  -2.114  0.00  0.00    -0.078 C 
ATOM      5  N   UNL     1       4.696   5.138  -1.815  0.00  0.00    +0.386 N 
ATOM      6  C   UNL     1       3.331   4.599  -1.876  0.00  0.00    -0.065 C 
ATOM      7  H   UNL     1       4.873   5.486  -0.787  0.00  0.00    -0.081 HD
ENDROOT
BRANCH   1  14
ATOM      8  N   UNL     1      -0.122   2.070   2.602  0.00  0.00    -0.325 N 
ATOM      9  C   UNL     1       1.216   2.677   2.593  0.00  0.00    +0.124 C 
ATOM     10  C   UNL     1       2.014   2.129   1.405  0.00  0.00    +0.126 C 
ATOM     11  N   UNL     1       1.228   2.337   0.179  0.00  0.00    -0.298 N 
ATOM     12  C   UNL     1      -0.169   1.877   0.161  0.00  0.00    +0.126 C 
ATOM     13  C   UNL     1      -0.880   2.435   1.398  0.00  0.00    +0.124 C 
ATOM     14  C   UNL     1       1.774   2.932  -0.900  0.00  0.00    +0.217 C 
ATOM     15  O   UNL     1       1.143   3.011  -1.933  0.00  0.00    -0.275 OA
BRANCH   8  20
ATOM     16  C   UNL     1      -1.012   2.424   6.152  0.00  0.00    +0.002 A 
ATOM     17  C   UNL     1      -2.209   3.109   6.055  0.00  0.00    +0.003 A 
ATOM     18  C   UNL     1      -2.716   3.451   4.815  0.00  0.00    +0.040 A 
ATOM     19  C   UNL     1      -2.027   3.108   3.666  0.00  0.00    +0.144 A 
ATOM     20  C   UNL     1      -0.822   2.419   3.761  0.00  0.00    +0.065 A 
ATOM     21  C   UNL     1      -0.320   2.074   5.008  0.00  0.00    +0.026 A 
ATOM     22  F   UNL     1      -2.522   3.442   2.455  0.00  0.00    -0.204 F 
ENDBRANCH   8  20
ENDBRANCH   1  14
BRANCH   5  23
ATOM     23  C   UNL     1       4.848   6.288  -2.716  0.00  0.00    +0.022 C 
BRANCH  23  24
ATOM     24  C   UNL     1       4.517   5.870  -4.125  0.00  0.00    +0.211 A 
ATOM     25  N   UNL     1       3.337   5.913  -4.692  0.00  0.00    -0.193 NA
ATOM     26  C   UNL     1       3.520   5.444  -5.947  0.00  0.00    +0.202 A 
ATOM     27  N   UNL     1       4.788   5.147  -6.067  0.00  0.00    -0.056 NA
ATOM     28  O   UNL     1       5.373   5.390  -5.033  0.00  0.00    -0.340 OA
BRANCH  26  29
ATOM     29  C   UNL     1       2.478   5.294  -6.993  0.00  0.00    +0.023 A 
ATOM     30  C   UNL     1       1.158   5.648  -6.720  0.00  0.00    +0.013 A 
ATOM     31  C   UNL     1       0.193   5.513  -7.697  0.00  0.00    +0.021 A 
ATOM     32  C   UNL     1       0.532   5.016  -8.944  0.00  0.00    +0.041 A 
ATOM     33  C   UNL     1       1.841   4.657  -9.218  0.00  0.00    +0.021 A 
ATOM     34  C   UNL     1       2.814   4.794  -8.249  0.00  0.00    +0.013 A 
ATOM     35 CL   UNL     1      -0.687   4.841 -10.167  0.00  0.00    -0.084 Cl
ENDBRANCH  26  29
ENDBRANCH  23  24
ENDBRANCH   5  23
TORSDOF 5
