REMARK  Name = ZINC21629039
REMARK  13 active torsions:
REMARK  status: ('A' for Active; 'I' for Inactive)
REMARK    1  A    between atoms: C_1  and  C_2
REMARK    2  A    between atoms: C_5  and  C_8
REMARK    3  A    between atoms: C_8  and  C_10
REMARK    4  A    between atoms: C_8  and  N_15
REMARK    5  A    between atoms: C_16  and  C_18
REMARK    6  A    between atoms: C_18  and  S_19
REMARK    7  A    between atoms: S_19  and  C_20
REMARK    8  A    between atoms: C_23  and  C_26
REMARK    9  A    between atoms: N_24  and  N_25
REMARK   10  A    between atoms: C_26  and  O_27
REMARK   11  A    between atoms: O_27  and  C_28
REMARK   12  A    between atoms: C_29  and  C_35
REMARK   13  A    between atoms: C_33  and  C_34
REMARK                            x       y       z     vdW  Elec       q    Type
REMARK                         _______ _______ _______ _____ _____    ______ ____
ROOT
ATOM      1  S   UNL     1       1.770  -2.114  -0.027  0.00  0.00    -0.075 S 
ENDROOT
BRANCH   1   2
ATOM      2  C   UNL     1       1.243  -0.433  -0.012  0.00  0.00    +0.209 A 
ATOM      3  N   UNL     1       0.002  -0.004   0.002  0.00  0.00    -0.121 NA
ATOM      4  N   UNL     1      -0.015   1.281   0.009  0.00  0.00    -0.128 NA
ATOM      5  C   UNL     1       1.202   1.745   0.000  0.00  0.00    +0.189 A 
ATOM      6  N   UNL     1       2.047   0.670  -0.014  0.00  0.00    -0.225 N 
BRANCH   6   7
ATOM      7  N   UNL     1       3.413   0.695  -0.028  0.00  0.00    -0.295 N 
ATOM      8  H   UNL     1       3.946   1.657  -0.027  0.00  0.00    +0.163 HD
ATOM      9  H   UNL     1       3.980  -0.248  -0.039  0.00  0.00    +0.163 HD
ENDBRANCH   6   7
BRANCH   5  10
ATOM     10  C   UNL     1       1.605   3.197   0.004  0.00  0.00    +0.306 C 
BRANCH  10  11
ATOM     11  O   UNL     1       1.745   3.649   1.352  0.00  0.00    -0.484 OA
BRANCH  11  12
ATOM     12  C   UNL     1       2.106   4.947   1.533  0.00  0.00    +0.127 A 
ATOM     13  C   UNL     1       3.448   5.289   1.618  0.00  0.00    -0.009 A 
ATOM     14  C   UNL     1       3.813   6.609   1.797  0.00  0.00    +0.007 A 
ATOM     15  C   UNL     1       2.842   7.588   1.902  0.00  0.00    +0.001 A 
ATOM     16  C   UNL     1       1.504   7.249   1.823  0.00  0.00    +0.007 A 
ATOM     17  C   UNL     1       1.134   5.931   1.639  0.00  0.00    -0.009 A 
ATOM     18  C   UNL     1      -0.325   5.562   1.552  0.00  0.00    +0.047 C 
ATOM     19  C   UNL     1       4.507   4.222   1.510  0.00  0.00    +0.047 C 
ENDBRANCH  11  12
ENDBRANCH  10  11
ENDBRANCH   5  10
ENDBRANCH   1   2
BRANCH   1  20
ATOM     20  C   UNL     1       0.163  -2.948  -0.016  0.00  0.00    +0.173 C 
BRANCH  20  22
ATOM     21  N   UNL     1      -0.692  -5.269  -0.020  0.00  0.00    -0.303 N 
ATOM     22  C   UNL     1       0.371  -4.440  -0.026  0.00  0.00    +0.224 C 
ATOM     23  O   UNL     1       1.495  -4.896  -0.040  0.00  0.00    -0.275 OA
ATOM     24  H   UNL     1      -1.712  -4.856  -0.008  0.00  0.00    +0.150 HD
BRANCH  21  25
ATOM     25  C   UNL     1      -0.490  -6.720  -0.030  0.00  0.00    +0.140 C 
BRANCH  25  30
ATOM     26  C   UNL     1      -5.137  -9.296  -2.301  0.00  0.00    +0.044 C 
ATOM     27  C   UNL     1      -3.925  -8.625  -1.709  0.00  0.00    -0.050 A 
ATOM     28  C   UNL     1      -2.659  -9.086  -2.017  0.00  0.00    +0.004 A 
ATOM     29  C   UNL     1      -1.547  -8.470  -1.474  0.00  0.00    +0.006 A 
ATOM     30  C   UNL     1      -1.702  -7.392  -0.623  0.00  0.00    -0.022 A 
ATOM     31  C   UNL     1      -2.968  -6.933  -0.310  0.00  0.00    +0.006 A 
ATOM     32  C   UNL     1      -4.080  -7.547  -0.857  0.00  0.00    +0.004 A 
ENDBRANCH  25  30
BRANCH  25  33
ATOM     33  C   UNL     1      -0.284  -7.208   1.381  0.00  0.00    +0.014 A 
ATOM     34  C   UNL     1       0.575  -8.150   1.841  0.00  0.00    +0.013 A 
ATOM     35  C   UNL     1       0.594  -8.436   3.193  0.00  0.00    +0.008 A 
ATOM     36  C   UNL     1      -0.254  -7.774   4.017  0.00  0.00    +0.045 A 
ATOM     37  S   UNL     1      -1.114  -6.702   2.878  0.00  0.00    -0.099 S 
ENDBRANCH  25  33
ENDBRANCH  21  25
ENDBRANCH  20  22
ENDBRANCH   1  20
TORSDOF 10
