REMARK  Name = ZINC64165781
REMARK  9 active torsions:
REMARK  status: ('A' for Active; 'I' for Inactive)
REMARK    1  A    between atoms: C_1  and  O_2
REMARK    2  A    between atoms: O_2  and  C_3
REMARK    3  A    between atoms: C_6  and  C_18
REMARK    4  A    between atoms: C_8  and  C_9
REMARK    5  A    between atoms: C_9  and  N_10
REMARK    6  A    between atoms: C_12  and  N_15
REMARK    7  A    between atoms: C_25  and  O_30
REMARK    8  A    between atoms: O_30  and  C_31
REMARK    9  A    between atoms: C_31  and  C_32
REMARK                            x       y       z     vdW  Elec       q    Type
REMARK                         _______ _______ _______ _____ _____    ______ ____
ROOT
ATOM      1  C   UNL     1       2.506  -2.503  -4.381  0.00  0.00    +0.111 C 
ATOM      2  C   UNL     1       1.518  -2.615  -5.545  0.00  0.00    +0.128 C 
ATOM      3  C   UNL     1       1.226  -1.187  -5.994  0.00  0.00    -0.035 C 
ATOM      4  C   UNL     1      -0.091  -1.048  -5.969  0.00  0.00    +0.003 A 
ATOM      5  C   UNL     1      -0.972   0.060  -6.371  0.00  0.00    +0.055 A 
ATOM      6  C   UNL     1      -2.309  -0.128  -6.194  0.00  0.00    +0.122 A 
ATOM      7  C   UNL     1      -2.873  -1.296  -5.661  0.00  0.00    +0.048 A 
ATOM      8  C   UNL     1      -2.156  -2.378  -5.264  0.00  0.00    +0.029 A 
ATOM      9  C   UNL     1      -0.697  -2.297  -5.412  0.00  0.00    +0.043 A 
ATOM     10  N   UNL     1       0.235  -3.189  -5.140  0.00  0.00    -0.376 N 
ATOM     11  C   UNL     1       2.336  -0.205  -6.280  0.00  0.00    +0.048 C 
ATOM     12  C   UNL     1       3.307  -0.295  -5.088  0.00  0.00    +0.086 C 
ATOM     13  N   UNL     1       3.653  -1.696  -4.823  0.00  0.00    -0.307 NA
ATOM     14  H   UNL     1       4.417  -1.762  -4.167  0.00  0.00    +0.123 HD
ATOM     15  H   UNL     1       0.104  -4.064  -4.742  0.00  0.00    +0.160 HD
ENDROOT
BRANCH   1  19
ATOM     16  C   UNL     1       0.606  -0.607  -1.056  0.00  0.00    +0.125 A 
ATOM     17  C   UNL     1       0.603   0.006  -2.300  0.00  0.00    +0.046 A 
ATOM     18  C   UNL     1       1.218  -0.608  -3.373  0.00  0.00    +0.009 A 
ATOM     19  C   UNL     1       1.836  -1.835  -3.208  0.00  0.00    -0.028 A 
ATOM     20  C   UNL     1       1.839  -2.448  -1.970  0.00  0.00    +0.013 A 
ATOM     21  C   UNL     1       1.230  -1.835  -0.892  0.00  0.00    +0.010 A 
BRANCH  16  23
ATOM     22  C   UNL     1      -0.621   1.259  -0.241  0.00  0.00    +0.277 C 
ATOM     23  O   UNL     1       0.002  -0.004   0.002  0.00  0.00    -0.495 OA
ENDBRANCH  16  23
BRANCH  21  24
ATOM     24  C   UNL     1       1.240  -2.501   0.460  0.00  0.00    +0.144 C 
BRANCH  24  25
ATOM     25  N   UNL     1       2.204  -1.820   1.335  0.00  0.00    -0.219 NA
ATOM     26  C   UNL     1       2.287  -2.486   2.650  0.00  0.00    +0.167 C 
ATOM     27  C   UNL     1       1.896  -1.408   3.639  0.00  0.00    +0.134 C 
ATOM     28  C   UNL     1       1.643  -0.322   2.938  0.00  0.00    +0.114 C 
ATOM     29  N   UNL     1       1.815  -0.535   1.584  0.00  0.00    -0.282 N 
ATOM     30  H   UNL     1       1.678   0.140   0.901  0.00  0.00    +0.166 HD
BRANCH  27  31
ATOM     31  N   UNL     1       1.815  -1.548   5.110  0.00  0.00    +0.055 N 
ATOM     32  O   UNL     1       1.488  -0.603   5.790  0.00  0.00    -0.126 OA
ATOM     33  O   UNL     1       2.075  -2.607   5.632  0.00  0.00    -0.126 OA
ENDBRANCH  27  31
ENDBRANCH  24  25
ENDBRANCH  21  24
ENDBRANCH   1  19
BRANCH   6  34
ATOM     34  O   UNL     1      -3.148   0.879  -6.556  0.00  0.00    -0.487 OA
BRANCH  34  35
ATOM     35  C   UNL     1      -4.546   0.660  -6.361  0.00  0.00    +0.264 C 
BRANCH  35  36
ATOM     36  C   UNL     1      -5.313   1.875  -6.816  0.00  0.00    -0.010 A 
ATOM     37  C   UNL     1      -5.580   2.897  -5.925  0.00  0.00    +0.007 A 
ATOM     38  C   UNL     1      -6.283   4.012  -6.341  0.00  0.00    +0.000 A 
ATOM     39  C   UNL     1      -6.720   4.104  -7.649  0.00  0.00    +0.000 A 
ATOM     40  C   UNL     1      -6.453   3.082  -8.541  0.00  0.00    +0.000 A 
ATOM     41  C   UNL     1      -5.746   1.969  -8.125  0.00  0.00    +0.007 A 
ENDBRANCH  35  36
ENDBRANCH  34  35
ENDBRANCH   6  34
TORSDOF 8
