REMARK  Name = ZINC09407783
REMARK  10 active torsions:
REMARK  status: ('A' for Active; 'I' for Inactive)
REMARK    1  A    between atoms: C_1  and  C_2
REMARK    2  A    between atoms: C_2  and  C_3
REMARK    3  A    between atoms: C_3  and  C_5
REMARK    4  A    between atoms: C_3  and  N_55
REMARK    5  A    between atoms: C_6  and  C_7
REMARK    6  A    between atoms: C_6  and  N_55
REMARK    7  A    between atoms: C_7  and  N_8
REMARK    8  A    between atoms: C_9  and  C_11
REMARK    9  A    between atoms: C_25  and  C_26
REMARK   10  A    between atoms: C_25  and  N_55
REMARK                            x       y       z     vdW  Elec       q    Type
REMARK                         _______ _______ _______ _____ _____    ______ ____
ROOT
ATOM      1  N   UNL     1       0.280  -3.954   2.354  0.00  0.00    -0.313 N 
ATOM      2  C   UNL     1      -0.034  -4.776   3.375  0.00  0.00    +0.251 C 
ATOM      3  O   UNL     1      -0.490  -4.318   4.407  0.00  0.00    -0.270 OA
ATOM      4  H   UNL     1       0.643  -4.319   1.532  0.00  0.00    +0.149 HD
ENDROOT
BRANCH   2   5
ATOM      5  C   UNL     1       0.173  -6.219   3.244  0.00  0.00    +0.075 A 
ATOM      6  C   UNL     1      -0.076  -7.222   4.165  0.00  0.00    +0.025 A 
ATOM      7  C   UNL     1       0.189  -8.534   3.837  0.00  0.00    -0.022 A 
ATOM      8  C   UNL     1       0.714  -8.760   2.568  0.00  0.00    +0.025 A 
ATOM      9  S   UNL     1       0.819  -7.139   1.856  0.00  0.00    -0.083 S 
ATOM     10  C   UNL     1       1.088 -10.040   1.972  0.00  0.00    +0.002 A 
ATOM     11  C   UNL     1       1.976 -10.108   0.897  0.00  0.00    +0.011 A 
ATOM     12  C   UNL     1       2.316 -11.333   0.363  0.00  0.00    +0.020 A 
ATOM     13  C   UNL     1       1.782 -12.500   0.886  0.00  0.00    +0.042 A 
ATOM     14  C   UNL     1       0.899 -12.449   1.949  0.00  0.00    +0.035 A 
ATOM     15  C   UNL     1       0.543 -11.226   2.496  0.00  0.00    +0.018 A 
ATOM     16  S   UNL     1      -0.589 -11.145   3.842  0.00  0.00    -0.120 S 
ATOM     17  C   UNL     1      -0.062  -9.695   4.794  0.00  0.00    +0.110 C 
ATOM     18 CL   UNL     1       2.225 -14.034   0.205  0.00  0.00    -0.084 Cl
ENDBRANCH   2   5
BRANCH   1  19
ATOM     19  C   UNL     1       0.072  -2.510   2.486  0.00  0.00    +0.086 C 
BRANCH  19  20
ATOM     20  C   UNL     1       0.506  -1.813   1.195  0.00  0.00    -0.059 C 
BRANCH  20  21
ATOM     21  N   UNL     1       0.151  -0.381   1.285  0.00  0.00    +0.387 N 
ATOM     22  H   UNL     1      -0.818  -0.298   1.615  0.00  0.00    -0.081 HD
BRANCH  21  23
ATOM     23  C   UNL     1       1.044   0.302   2.244  0.00  0.00    -0.071 C 
ATOM     24  C   UNL     1       2.402  -0.401   2.300  0.00  0.00    -0.013 C 
BRANCH  23  26
ATOM     25  C   UNL     1      -0.898   1.084   3.607  0.00  0.00    +0.002 C 
ATOM     26  C   UNL     1       0.393   0.263   3.628  0.00  0.00    -0.019 C 
ENDBRANCH  23  26
ENDBRANCH  21  23
BRANCH  21  27
ATOM     27  C   UNL     1       0.261   0.252  -0.046  0.00  0.00    -0.003 C 
BRANCH  27  28
ATOM     28  C   UNL     1      -0.456   1.577  -0.012  0.00  0.00    +0.089 A 
ATOM     29  C   UNL     1       0.107   2.770   0.253  0.00  0.00    +0.042 A 
ATOM     30  C   UNL     1      -0.923   3.735   0.179  0.00  0.00    +0.041 A 
ATOM     31  C   UNL     1      -2.054   3.075  -0.128  0.00  0.00    +0.195 A 
ATOM     32  O   UNL     1      -1.764   1.769  -0.248  0.00  0.00    -0.470 OA
ENDBRANCH  27  28
ENDBRANCH  21  27
ENDBRANCH  20  21
ENDBRANCH  19  20
ENDBRANCH   1  19
TORSDOF 8
