REMARK  Name = ZINC13250046
REMARK  12 active torsions:
REMARK  status: ('A' for Active; 'I' for Inactive)
REMARK    1  A    between atoms: C_1  and  C_2
REMARK    2  A    between atoms: C_2  and  C_3
REMARK    3  A    between atoms: C_2  and  C_4
REMARK    4  A    between atoms: C_2  and  N_5
REMARK    5  A    between atoms: N_5  and  C_6
REMARK    6  A    between atoms: N_5  and  S_17
REMARK    7  A    between atoms: C_6  and  C_7
REMARK    8  A    between atoms: C_10  and  O_13
REMARK    9  A    between atoms: O_13  and  C_14
REMARK   10  A    between atoms: C_14  and  C_15
REMARK   11  A    between atoms: S_17  and  C_20
REMARK   12  A    between atoms: C_24  and  C_26
REMARK                            x       y       z     vdW  Elec       q    Type
REMARK                         _______ _______ _______ _____ _____    ______ ____
ROOT
ATOM      1  N   UNL     1       0.874   4.272   1.032  0.00  0.00    -0.167 NA
ENDROOT
BRANCH   1   3
ATOM      2  C   UNL     1      -0.404   2.922   2.622  0.00  0.00    +0.029 C 
ATOM      3  C   UNL     1      -0.343   4.240   1.847  0.00  0.00    +0.035 C 
ATOM      4  C   UNL     1      -0.327   5.411   2.833  0.00  0.00    +0.029 C 
ATOM      5  C   UNL     1      -1.568   4.355   0.939  0.00  0.00    +0.029 C 
ENDBRANCH   1   3
BRANCH   1   6
ATOM      6  S   UNL     1       2.250   4.978   1.626  0.00  0.00    +0.062 S 
ATOM      7  O   UNL     1       2.226   4.793   3.035  0.00  0.00    -0.153 OA
ATOM      8  O   UNL     1       3.324   4.519   0.816  0.00  0.00    -0.153 OA
BRANCH   6   9
ATOM      9  C   UNL     1       2.111   6.711   1.342  0.00  0.00    +0.106 A 
ATOM     10  C   UNL     1       2.472   7.241   0.116  0.00  0.00    +0.029 A 
ATOM     11  C   UNL     1       2.361   8.600  -0.118  0.00  0.00    +0.018 A 
ATOM     12  C   UNL     1       1.898   9.439   0.877  0.00  0.00    +0.032 A 
ATOM     13  C   UNL     1       1.537   8.911   2.119  0.00  0.00    +0.079 A 
ATOM     14  C   UNL     1       1.647   7.537   2.345  0.00  0.00    +0.044 A 
ATOM     15 BR   UNL     1       1.753  11.297   0.558  0.00  0.00    -0.049 Br
BRANCH  13  16
ATOM     16  C   UNL     1       1.041   9.801   3.188  0.00  0.00    +0.388 C 
ATOM     17  O   UNL     1       0.947  10.995   2.988  0.00  0.00    -0.241 OA
ATOM     18  O   UNL     1       0.694   9.288   4.384  0.00  0.00    -0.241 OA
ENDBRANCH  13  16
ENDBRANCH   6   9
ENDBRANCH   1   6
BRANCH   1  19
ATOM     19  C   UNL     1       0.874   3.680  -0.307  0.00  0.00    +0.145 C 
BRANCH  19  20
ATOM     20  C   UNL     1       1.172   2.206  -0.205  0.00  0.00    -0.031 A 
ATOM     21  C   UNL     1       0.135   1.292  -0.178  0.00  0.00    +0.008 A 
ATOM     22  C   UNL     1       0.406  -0.059  -0.085  0.00  0.00    +0.046 A 
ATOM     23  C   UNL     1       1.720  -0.499  -0.018  0.00  0.00    +0.121 A 
ATOM     24  C   UNL     1       2.759   0.420  -0.045  0.00  0.00    +0.046 A 
ATOM     25  C   UNL     1       2.483   1.770  -0.139  0.00  0.00    +0.008 A 
BRANCH  23  26
ATOM     26  O   UNL     1       1.989  -1.828   0.075  0.00  0.00    -0.488 OA
BRANCH  26  27
ATOM     27  C   UNL     1       3.365  -2.208   0.140  0.00  0.00    +0.256 C 
BRANCH  27  28
ATOM     28  C   UNL     1       3.467  -3.709   0.238  0.00  0.00    +0.006 C 
ATOM     29  C   UNL     1       4.335  -4.356  -0.499  0.00  0.00    +0.007 C 
ENDBRANCH  27  28
ENDBRANCH  26  27
ENDBRANCH  23  26
ENDBRANCH  19  20
ENDBRANCH   1  19
TORSDOF 9
