REMARK  Name = ZINC28003485
REMARK  11 active torsions:
REMARK  status: ('A' for Active; 'I' for Inactive)
REMARK    1  A    between atoms: C_1  and  C_2
REMARK    2  A    between atoms: C_5  and  S_8
REMARK    3  A    between atoms: S_8  and  N_11
REMARK    4  A    between atoms: N_11  and  C_12
REMARK    5  A    between atoms: C_12  and  C_13
REMARK    6  A    between atoms: C_13  and  N_14
REMARK    7  A    between atoms: C_15  and  C_17
REMARK    8  A    between atoms: C_17  and  C_18
REMARK    9  A    between atoms: C_18  and  C_19
REMARK   10  A    between atoms: C_19  and  C_20
REMARK   11  A    between atoms: C_20  and  C_21
REMARK                            x       y       z     vdW  Elec       q    Type
REMARK                         _______ _______ _______ _____ _____    ______ ____
ROOT
ATOM      1  N   UNL     1       4.647  -5.240   2.174  0.00  0.00    -0.314 N 
ATOM      2  C   UNL     1       5.832  -5.867   2.310  0.00  0.00    +0.213 C 
ATOM      3  O   UNL     1       6.186  -6.681   1.483  0.00  0.00    -0.276 OA
ATOM      4  H   UNL     1       4.364  -4.590   2.836  0.00  0.00    +0.149 HD
ENDROOT
BRANCH   1   5
ATOM      5  C   UNL     1       3.787  -5.540   1.028  0.00  0.00    +0.121 C 
BRANCH   5   6
ATOM      6  C   UNL     1       2.512  -4.699   1.113  0.00  0.00    +0.124 C 
BRANCH   6   7
ATOM      7  N   UNL     1       1.651  -4.999  -0.034  0.00  0.00    -0.188 NA
ATOM      8  H   UNL     1       2.011  -5.473  -0.800  0.00  0.00    +0.148 HD
BRANCH   7   9
ATOM      9  S   UNL     1       0.063  -4.530  -0.023  0.00  0.00    +0.058 S 
ATOM     10  O   UNL     1      -0.476  -4.950   1.223  0.00  0.00    -0.153 OA
ATOM     11  O   UNL     1      -0.490  -4.937  -1.267  0.00  0.00    -0.153 OA
BRANCH   9  16
ATOM     12  C   UNL     1      -0.018   1.503   0.010  0.00  0.00    +0.044 C 
ATOM     13  C   UNL     1       0.002  -0.004   0.002  0.00  0.00    -0.050 A 
ATOM     14  C   UNL     1       0.006  -0.689  -1.199  0.00  0.00    +0.005 A 
ATOM     15  C   UNL     1       0.025  -2.071  -1.206  0.00  0.00    +0.029 A 
ATOM     16  C   UNL     1       0.040  -2.768  -0.013  0.00  0.00    +0.105 A 
ATOM     17  C   UNL     1       0.037  -2.084   1.188  0.00  0.00    +0.029 A 
ATOM     18  C   UNL     1       0.023  -0.702   1.195  0.00  0.00    +0.005 A 
ENDBRANCH   9  16
ENDBRANCH   7   9
ENDBRANCH   6   7
ENDBRANCH   5   6
ENDBRANCH   1   5
BRANCH   2  19
ATOM     19  C   UNL     1       6.718  -5.558   3.490  0.00  0.00    +0.096 C 
BRANCH  19  20
ATOM     20  C   UNL     1       7.993  -6.400   3.405  0.00  0.00    +0.009 C 
BRANCH  20  21
ATOM     21  C   UNL     1       8.892  -6.086   4.602  0.00  0.00    +0.002 C 
BRANCH  21  22
ATOM     22  C   UNL     1      10.167  -6.928   4.517  0.00  0.00    +0.016 C 
BRANCH  22  23
ATOM     23  C   UNL     1      11.066  -6.614   5.715  0.00  0.00    +0.069 C 
ATOM     24  C   UNL     1      12.346  -7.476   5.688  0.00  0.00    +0.108 C 
ATOM     25  C   UNL     1      13.609  -6.716   6.103  0.00  0.00    +0.105 C 
ATOM     26  C   UNL     1      13.353  -5.235   6.457  0.00  0.00    +0.093 C 
ATOM     27  S   UNL     1      11.769  -4.912   5.588  0.00  0.00    -0.154 S 
ATOM     28  N   UNL     1      14.470  -6.776   4.911  0.00  0.00    -0.294 N 
ATOM     29  C   UNL     1      13.834  -7.455   3.947  0.00  0.00    +0.300 C 
ATOM     30  O   UNL     1      14.316  -7.657   2.849  0.00  0.00    -0.253 OA
ATOM     31  N   UNL     1      12.623  -7.882   4.301  0.00  0.00    -0.294 N 
ATOM     32  H   UNL     1      15.355  -6.386   4.835  0.00  0.00    +0.151 HD
ATOM     33  H   UNL     1      12.021  -8.386   3.731  0.00  0.00    +0.151 HD
ENDBRANCH  22  23
ENDBRANCH  21  22
ENDBRANCH  20  21
ENDBRANCH  19  20
ENDBRANCH   2  19
TORSDOF 10
