REMARK  Name = ZINC39226243
REMARK  8 active torsions:
REMARK  status: ('A' for Active; 'I' for Inactive)
REMARK    1  A    between atoms: C_1  and  C_2
REMARK    2  A    between atoms: C_9  and  C_10
REMARK    3  A    between atoms: C_9  and  C_11
REMARK    4  A    between atoms: C_13  and  N_15
REMARK    5  A    between atoms: C_16  and  C_18
REMARK    6  A    between atoms: C_21  and  C_24
REMARK    7  A    between atoms: C_30  and  O_41
REMARK    8  A    between atoms: N_37  and  C_40
REMARK                            x       y       z     vdW  Elec       q    Type
REMARK                         _______ _______ _______ _____ _____    ______ ____
ROOT
ATOM      1  C   UNL     1       4.579  -0.655   1.147  0.00  0.00    +0.037 A 
ATOM      2  C   UNL     1       4.874  -0.830  -0.207  0.00  0.00    +0.013 A 
ATOM      3  C   UNL     1       6.183  -0.950  -0.616  0.00  0.00    +0.009 A 
ATOM      4  C   UNL     1       7.215  -0.897   0.322  0.00  0.00    -0.018 A 
ATOM      5  C   UNL     1       6.921  -0.722   1.675  0.00  0.00    +0.009 A 
ATOM      6  C   UNL     1       5.613  -0.596   2.085  0.00  0.00    +0.013 A 
ENDROOT
BRANCH   4   7
ATOM      7  C   UNL     1       8.624  -1.027  -0.120  0.00  0.00    -0.017 A 
ATOM      8  C   UNL     1       8.921  -1.196  -1.472  0.00  0.00    +0.012 A 
ATOM      9  C   UNL     1      10.232  -1.314  -1.875  0.00  0.00    +0.046 A 
ATOM     10  C   UNL     1      11.264  -1.265  -0.940  0.00  0.00    +0.127 A 
ATOM     11  C   UNL     1      10.971  -1.101   0.404  0.00  0.00    +0.023 A 
ATOM     12  C   UNL     1       9.656  -0.974   0.814  0.00  0.00    +0.018 A 
ATOM     13  C   UNL     1      12.060  -1.056   1.446  0.00  0.00    +0.152 C 
ATOM     14  C   UNL     1      13.403  -0.758   0.775  0.00  0.00    +0.084 C 
ATOM     15  C   UNL     1      13.557  -1.690  -0.431  0.00  0.00    +0.110 C 
ATOM     16  O   UNL     1      12.543  -1.377  -1.384  0.00  0.00    -0.485 OA
ATOM     17  C   UNL     1      14.938  -1.487  -1.060  0.00  0.00    +0.029 C 
ATOM     18  C   UNL     1      15.118  -2.476  -2.214  0.00  0.00    -0.075 C 
ATOM     19  N   UNL     1      15.002  -3.849  -1.708  0.00  0.00    +0.378 N 
ATOM     20  C   UNL     1      13.654  -4.071  -1.172  0.00  0.00    -0.075 C 
ATOM     21  C   UNL     1      13.416  -3.144   0.022  0.00  0.00    +0.029 C 
ATOM     22  C   UNL     1      15.255  -4.796  -2.802  0.00  0.00    -0.096 C 
ATOM     23  H   UNL     1      15.682  -3.994  -0.976  0.00  0.00    -0.082 HD
BRANCH  13  24
ATOM     24  O   UNL     1      11.767  -0.031   2.397  0.00  0.00    -0.387 OA
ATOM     25  H   UNL     1      10.929  -0.156   2.864  0.00  0.00    +0.210 HD
ENDBRANCH  13  24
ENDBRANCH   4   7
BRANCH   1  27
ATOM     26  N   UNL     1       2.178  -0.582   0.682  0.00  0.00    -0.308 N 
ATOM     27  C   UNL     1       3.175  -0.525   1.587  0.00  0.00    +0.244 C 
ATOM     28  O   UNL     1       2.919  -0.368   2.765  0.00  0.00    -0.270 OA
ATOM     29  H   UNL     1       2.382  -0.707  -0.258  0.00  0.00    +0.149 HD
BRANCH  26  39
ATOM     30  C   UNL     1      -0.124   1.596  -0.024  0.00  0.00    +0.009 C 
ATOM     31  C   UNL     1      -0.058   0.066  -0.044  0.00  0.00    +0.010 C 
ATOM     32  C   UNL     1      -1.462  -0.537  -0.067  0.00  0.00    -0.000 C 
ATOM     33  C   UNL     1      -1.358  -2.070  -0.269  0.00  0.00    +0.008 C 
ATOM     34  C   UNL     1      -1.155  -2.101   1.261  0.00  0.00    -0.003 C 
ATOM     35  C   UNL     1      -2.070  -0.869   1.297  0.00  0.00    -0.029 C 
ATOM     36  C   UNL     1      -1.803   0.112   2.435  0.00  0.00    +0.011 C 
ATOM     37  C   UNL     1      -3.567  -1.229   1.224  0.00  0.00    +0.011 C 
ATOM     38  C   UNL     1       0.296  -1.805   1.636  0.00  0.00    +0.026 C 
ATOM     39  C   UNL     1       0.774  -0.452   1.122  0.00  0.00    +0.077 C 
ENDBRANCH  26  39
ENDBRANCH   1  27
TORSDOF 4
