REMARK  Name = ZINC63541329
REMARK  9 active torsions:
REMARK  status: ('A' for Active; 'I' for Inactive)
REMARK    1  A    between atoms: C_1  and  C_2
REMARK    2  A    between atoms: C_4  and  C_36
REMARK    3  A    between atoms: C_6  and  N_8
REMARK    4  A    between atoms: C_9  and  C_11
REMARK    5  A    between atoms: C_11  and  S_12
REMARK    6  A    between atoms: S_12  and  C_13
REMARK    7  A    between atoms: N_24  and  C_25
REMARK    8  A    between atoms: C_25  and  C_26
REMARK    9  A    between atoms: C_26  and  C_27
REMARK                            x       y       z     vdW  Elec       q    Type
REMARK                         _______ _______ _______ _____ _____    ______ ____
ROOT
ATOM      1  C   UNL     1       0.541  -2.801   7.699  0.00  0.00    +0.223 C 
ATOM      2  N   UNL     1      -0.646  -3.657   7.798  0.00  0.00    -0.300 N 
ATOM      3  C   UNL     1      -0.754  -4.752   6.957  0.00  0.00    +0.151 A 
ATOM      4  C   UNL     1       0.430  -5.376   6.521  0.00  0.00    +0.165 A 
ATOM      5  N   UNL     1       0.363  -6.442   5.736  0.00  0.00    -0.246 NA
ATOM      6  C   UNL     1      -0.814  -6.901   5.358  0.00  0.00    +0.131 A 
ATOM      7  C   UNL     1      -1.981  -6.277   5.776  0.00  0.00    +0.132 A 
ATOM      8  N   UNL     1      -1.929  -5.217   6.566  0.00  0.00    -0.237 NA
ATOM      9  C   UNL     1       1.725  -4.807   6.946  0.00  0.00    +0.270 C 
ATOM     10  O   UNL     1       2.760  -5.405   6.725  0.00  0.00    -0.268 OA
ATOM     11  N   UNL     1       1.746  -3.621   7.578  0.00  0.00    -0.268 N 
ATOM     12  H   UNL     1      -1.344  -3.460   8.443  0.00  0.00    +0.150 HD
ENDROOT
BRANCH   1  13
ATOM     13  S   UNL     1       0.391  -1.734   6.239  0.00  0.00    -0.110 S 
BRANCH  13  14
ATOM     14  C   UNL     1       0.280  -2.900   4.854  0.00  0.00    +0.168 C 
BRANCH  14  16
ATOM     15  N   UNL     1       0.052  -2.797   2.393  0.00  0.00    -0.285 N 
ATOM     16  C   UNL     1       0.150  -2.134   3.562  0.00  0.00    +0.227 C 
ATOM     17  O   UNL     1       0.134  -0.922   3.575  0.00  0.00    -0.275 OA
ATOM     18  H   UNL     1      -0.012  -3.765   2.388  0.00  0.00    +0.155 HD
BRANCH  15  24
ATOM     19  C   UNL     1      -1.512  -2.365  -2.248  0.00  0.00    +0.044 C 
ATOM     20  C   UNL     1      -0.707  -1.857  -1.080  0.00  0.00    -0.048 A 
ATOM     21  C   UNL     1       0.025  -0.690  -1.201  0.00  0.00    +0.006 A 
ATOM     22  C   UNL     1       0.765  -0.220  -0.131  0.00  0.00    -0.048 A 
ATOM     23  C   UNL     1       0.776  -0.917   1.061  0.00  0.00    +0.026 A 
ATOM     24  C   UNL     1       0.043  -2.089   1.186  0.00  0.00    +0.034 A 
ATOM     25  C   UNL     1      -0.704  -2.555   0.112  0.00  0.00    +0.026 A 
ATOM     26  C   UNL     1       1.561   1.052  -0.268  0.00  0.00    +0.044 C 
ENDBRANCH  15  24
ENDBRANCH  14  16
ENDBRANCH  13  14
ENDBRANCH   1  13
BRANCH  11  27
ATOM     27  C   UNL     1       3.004  -3.141   8.156  0.00  0.00    +0.115 C 
BRANCH  27  28
ATOM     28  C   UNL     1       3.121  -3.630   9.601  0.00  0.00    +0.052 C 
BRANCH  28  29
ATOM     29  C   UNL     1       4.415  -3.136  10.195  0.00  0.00    -0.040 C 
ATOM     30  C   UNL     1       4.595  -2.024  10.943  0.00  0.00    -0.001 A 
ATOM     31  C   UNL     1       3.674  -0.980  11.409  0.00  0.00    +0.010 A 
ATOM     32  C   UNL     1       4.159   0.035  12.160  0.00  0.00    +0.001 A 
ATOM     33  C   UNL     1       5.516   0.114  12.504  0.00  0.00    +0.002 A 
ATOM     34  C   UNL     1       6.422  -0.807  12.113  0.00  0.00    +0.026 A 
ATOM     35  C   UNL     1       6.022  -1.917  11.320  0.00  0.00    +0.043 A 
ATOM     36  N   UNL     1       6.699  -2.925  10.824  0.00  0.00    -0.380 N 
ATOM     37  C   UNL     1       5.775  -3.788  10.081  0.00  0.00    +0.144 C 
ATOM     38  H   UNL     1       7.651  -3.076  10.934  0.00  0.00    +0.160 HD
ENDBRANCH  28  29
ENDBRANCH  27  28
ENDBRANCH  11  27
TORSDOF 7
