REMARK  Name = ZINC14994628
REMARK  8 active torsions:
REMARK  status: ('A' for Active; 'I' for Inactive)
REMARK    1  A    between atoms: C_1  and  C_2
REMARK    2  A    between atoms: C_10  and  C_11
REMARK    3  A    between atoms: C_16  and  N_74
REMARK    4  A    between atoms: C_22  and  C_25
REMARK    5  A    between atoms: C_25  and  O_26
REMARK    6  A    between atoms: N_27  and  C_28
REMARK    7  A    between atoms: C_28  and  C_29
REMARK    8  A    between atoms: C_29  and  C_30
REMARK                            x       y       z     vdW  Elec       q    Type
REMARK                         _______ _______ _______ _____ _____    ______ ____
ROOT
ATOM      1  C   UNL     1      -1.894   5.104  -6.913  0.00  0.00    +0.046 C 
ATOM      2  C   UNL     1      -0.866   6.191  -7.095  0.00  0.00    -0.019 A 
ATOM      3  C   UNL     1       0.400   6.066  -6.507  0.00  0.00    +0.051 A 
ATOM      4  C   UNL     1       0.918   5.014  -5.695  0.00  0.00    +0.130 A 
ATOM      5  N   UNL     1       2.154   5.105  -5.232  0.00  0.00    -0.220 NA
ATOM      6  C   UNL     1       2.930   6.142  -5.492  0.00  0.00    +0.224 A 
ATOM      7  N   UNL     1       2.508   7.150  -6.232  0.00  0.00    -0.228 NA
ATOM      8  C   UNL     1       1.290   7.144  -6.734  0.00  0.00    +0.114 A 
ATOM      9  S   UNL     1       0.342   8.250  -7.747  0.00  0.00    -0.064 S 
ATOM     10  C   UNL     1      -1.163   7.294  -7.836  0.00  0.00    +0.080 A 
ATOM     11  N   UNL     1       0.142   3.911  -5.400  0.00  0.00    -0.328 N 
ATOM     12  H   UNL     1      -0.731   3.809  -5.810  0.00  0.00    +0.147 HD
ENDROOT
BRANCH  10  13
ATOM     13  C   UNL     1      -2.412   7.617  -8.536  0.00  0.00    +0.254 C 
ATOM     14  O   UNL     1      -3.477   7.241  -8.083  0.00  0.00    -0.269 OA
ATOM     15  N   UNL     1      -2.380   8.330  -9.679  0.00  0.00    -0.297 N 
ATOM     16  C   UNL     1      -1.097   8.701 -10.293  0.00  0.00    +0.106 C 
ATOM     17  C   UNL     1      -1.103   8.232 -11.756  0.00  0.00    +0.004 C 
ATOM     18  C   UNL     1      -2.330   8.808 -12.466  0.00  0.00    -0.066 C 
ATOM     19  C   UNL     1      -3.602   8.292 -11.790  0.00  0.00    +0.004 C 
ATOM     20  C   UNL     1      -3.625   8.757 -10.331  0.00  0.00    +0.106 C 
BRANCH  18  26
ATOM     21  C   UNL     1      -3.585   8.740 -14.535  0.00  0.00    -0.078 C 
ATOM     22  C   UNL     1      -3.597   8.164 -15.953  0.00  0.00    -0.018 C 
ATOM     23  C   UNL     1      -2.415   8.735 -16.740  0.00  0.00    +0.002 C 
ATOM     24  C   UNL     1      -1.113   8.400 -16.006  0.00  0.00    -0.002 C 
ATOM     25  C   UNL     1      -1.173   8.969 -14.586  0.00  0.00    -0.073 C 
ATOM     26  N   UNL     1      -2.318   8.361 -13.874  0.00  0.00    +0.382 N 
ATOM     27  H   UNL     1      -2.221   7.340 -13.899  0.00  0.00    -0.081 HD
BRANCH  24  28
ATOM     28  C   UNL     1       0.070   9.017 -16.754  0.00  0.00    +0.157 C 
BRANCH  28  29
ATOM     29  O   UNL     1       0.196   8.401 -18.038  0.00  0.00    -0.395 OA
ATOM     30  H   UNL     1       0.927   8.745 -18.569  0.00  0.00    +0.209 HD
ENDBRANCH  28  29
ENDBRANCH  24  28
ENDBRANCH  18  26
ENDBRANCH  10  13
BRANCH  11  31
ATOM     31  C   UNL     1       0.636   2.896  -4.467  0.00  0.00    +0.107 C 
BRANCH  31  32
ATOM     32  C   UNL     1      -0.410   1.789  -4.317  0.00  0.00    +0.049 C 
BRANCH  32  33
ATOM     33  C   UNL     1       0.098   0.744  -3.358  0.00  0.00    -0.072 C 
ATOM     34  C   UNL     1      -0.255   0.837  -2.116  0.00  0.00    -0.028 C 
ATOM     35  C   UNL     1       0.179  -0.120  -1.044  0.00  0.00    +0.027 C 
ATOM     36  C   UNL     1       0.717  -1.408  -1.669  0.00  0.00    +0.004 C 
ATOM     37  C   UNL     1       1.729  -1.033  -2.760  0.00  0.00    +0.005 C 
ATOM     38  C   UNL     1       0.983  -0.340  -3.901  0.00  0.00    +0.030 C 
ENDBRANCH  32  33
ENDBRANCH  31  32
ENDBRANCH  11  31
TORSDOF 7
