REMARK  Name = ZINC35641059
REMARK  15 active torsions:
REMARK  status: ('A' for Active; 'I' for Inactive)
REMARK    1  A    between atoms: C_1  and  C_2
REMARK    2  A    between atoms: C_2  and  N_3
REMARK    3  A    between atoms: C_4  and  C_26
REMARK    4  A    between atoms: C_5  and  C_21
REMARK    5  A    between atoms: C_6  and  C_11
REMARK    6  A    between atoms: C_14  and  O_19
REMARK    7  A    between atoms: C_15  and  O_17
REMARK    8  A    between atoms: O_17  and  C_18
REMARK    9  A    between atoms: O_19  and  C_20
REMARK   10  A    between atoms: C_21  and  O_23
REMARK   11  A    between atoms: O_23  and  C_24
REMARK   12  A    between atoms: C_24  and  C_25
REMARK   13  A    between atoms: C_26  and  N_27
REMARK   14  A    between atoms: N_27  and  C_28
REMARK   15  A    between atoms: N_27  and  C_29
REMARK                            x       y       z     vdW  Elec       q    Type
REMARK                         _______ _______ _______ _____ _____    ______ ____
ROOT
ATOM      1  N   UNL     1       1.338   0.326  -1.103  0.00  0.00    -0.261 N 
ATOM      2  C   UNL     1       0.272  -0.189  -1.784  0.00  0.00    +0.010 C 
ATOM      3  C   UNL     1       0.435  -1.176  -2.691  0.00  0.00    +0.076 C 
ATOM      4  C   UNL     1       1.840  -1.691  -2.928  0.00  0.00    +0.144 C 
ATOM      5  N   UNL     1       2.920  -1.069  -2.143  0.00  0.00    -0.288 N 
ATOM      6  C   UNL     1       2.600  -0.088  -1.276  0.00  0.00    +0.307 C 
ATOM      7  O   UNL     1       3.485   0.435  -0.627  0.00  0.00    -0.252 OA
ATOM      8  H   UNL     1       3.840  -1.356  -2.250  0.00  0.00    +0.151 HD
ENDROOT
BRANCH   4   9
ATOM      9  C   UNL     1       1.848  -3.170  -2.636  0.00  0.00    -0.019 A 
ATOM     10  C   UNL     1       1.993  -4.076  -3.670  0.00  0.00    +0.009 A 
ATOM     11  C   UNL     1       2.000  -5.433  -3.407  0.00  0.00    +0.050 A 
ATOM     12  C   UNL     1       1.863  -5.888  -2.105  0.00  0.00    +0.162 A 
ATOM     13  C   UNL     1       1.718  -4.976  -1.065  0.00  0.00    +0.162 A 
ATOM     14  C   UNL     1       1.716  -3.616  -1.334  0.00  0.00    +0.055 A 
BRANCH  13  15
ATOM     15  O   UNL     1       1.583  -5.417   0.215  0.00  0.00    -0.491 OA
ATOM     16  C   UNL     1       1.335  -4.431   1.218  0.00  0.00    +0.277 C 
ENDBRANCH  13  15
BRANCH  12  17
ATOM     17  O   UNL     1       1.870  -7.223  -1.845  0.00  0.00    -0.491 OA
ATOM     18  C   UNL     1       2.023  -8.101  -2.963  0.00  0.00    +0.277 C 
ENDBRANCH  12  17
ENDBRANCH   4   9
BRANCH   1  20
ATOM     19  C   UNL     1       1.237   2.754  -0.823  0.00  0.00    +0.025 C 
ATOM     20  C   UNL     1       1.089   1.396  -0.134  0.00  0.00    +0.111 C 
ENDBRANCH   1  20
BRANCH   3  21
ATOM     21  C   UNL     1      -0.668  -1.711  -3.396  0.00  0.00    +0.339 C 
ATOM     22  O   UNL     1      -1.799  -1.362  -3.111  0.00  0.00    -0.245 OA
BRANCH  21  23
ATOM     23  O   UNL     1      -0.468  -2.608  -4.383  0.00  0.00    -0.462 OA
BRANCH  23  24
ATOM     24  C   UNL     1      -1.617  -3.029  -5.121  0.00  0.00    +0.229 C 
ATOM     25  C   UNL     1      -1.213  -4.119  -6.116  0.00  0.00    +0.048 C 
ENDBRANCH  23  24
ENDBRANCH  21  23
ENDBRANCH   3  21
BRANCH   2  26
ATOM     26  C   UNL     1      -1.109   0.353  -1.518  0.00  0.00    -0.026 C 
BRANCH  26  27
ATOM     27  N   UNL     1      -1.821  -0.549  -0.603  0.00  0.00    +0.383 N 
ATOM     28  C   UNL     1      -1.130  -0.576   0.693  0.00  0.00    -0.095 C 
ATOM     29  H   UNL     1      -1.839  -1.479  -0.994  0.00  0.00    -0.081 HD
BRANCH  27  30
ATOM     30  C   UNL     1      -3.196  -0.069  -0.415  0.00  0.00    -0.068 C 
ATOM     31  C   UNL     1      -3.938  -1.009   0.538  0.00  0.00    -0.015 C 
ATOM     32  C   UNL     1      -5.371  -0.509   0.734  0.00  0.00    -0.002 C 
ATOM     33  C   UNL     1      -6.090  -0.480  -0.616  0.00  0.00    -0.000 C 
ATOM     34  C   UNL     1      -5.349   0.459  -1.569  0.00  0.00    -0.002 C 
ATOM     35  C   UNL     1      -3.916  -0.040  -1.765  0.00  0.00    -0.015 C 
ENDBRANCH  27  30
ENDBRANCH  26  27
ENDBRANCH   2  26
TORSDOF 10
