REMARK  Name = ZINC36145496
REMARK  15 active torsions:
REMARK  status: ('A' for Active; 'I' for Inactive)
REMARK    1  A    between atoms: C_1  and  C_2
REMARK    2  A    between atoms: C_5  and  C_8
REMARK    3  A    between atoms: C_8  and  N_9
REMARK    4  A    between atoms: N_9  and  C_10
REMARK    5  A    between atoms: N_9  and  C_34
REMARK    6  A    between atoms: C_10  and  C_11
REMARK    7  A    between atoms: C_14  and  C_16
REMARK    8  A    between atoms: C_16  and  C_17
REMARK    9  A    between atoms: C_16  and  C_25
REMARK   10  A    between atoms: C_16  and  O_33
REMARK   11  A    between atoms: C_20  and  O_23
REMARK   12  A    between atoms: O_23  and  C_24
REMARK   13  A    between atoms: C_28  and  O_31
REMARK   14  A    between atoms: O_31  and  C_32
REMARK   15  A    between atoms: C_34  and  C_35
REMARK                            x       y       z     vdW  Elec       q    Type
REMARK                         _______ _______ _______ _____ _____    ______ ____
ROOT
ATOM      1  C   UNL     1       2.933  -6.918  -0.049  0.00  0.00    +0.089 A 
ATOM      2  C   UNL     1       3.607  -7.500   0.959  0.00  0.00    +0.043 A 
ATOM      3  C   UNL     1       4.872  -7.871   0.446  0.00  0.00    +0.048 A 
ATOM      4  C   UNL     1       4.894  -7.494  -0.845  0.00  0.00    +0.146 A 
ATOM      5  O   UNL     1       3.716  -6.922  -1.141  0.00  0.00    -0.463 OA
ENDROOT
BRANCH   1   6
ATOM      6  C   UNL     1       1.535  -6.361   0.031  0.00  0.00    -0.003 C 
BRANCH   6   7
ATOM      7  N   UNL     1       1.597  -4.917   0.290  0.00  0.00    +0.389 N 
ATOM      8  H   UNL     1       2.175  -4.474  -0.409  0.00  0.00    -0.081 HD
BRANCH   7   9
ATOM      9  C   UNL     1       0.243  -4.351   0.235  0.00  0.00    -0.042 C 
BRANCH   9  14
ATOM     10  C   UNL     1       0.529   1.395   0.778  0.00  0.00    +0.044 C 
ATOM     11  C   UNL     1       0.455  -0.103   0.636  0.00  0.00    -0.050 A 
ATOM     12  C   UNL     1       0.653  -0.692  -0.599  0.00  0.00    +0.003 A 
ATOM     13  C   UNL     1       0.585  -2.066  -0.728  0.00  0.00    +0.002 A 
ATOM     14  C   UNL     1       0.318  -2.852   0.377  0.00  0.00    -0.064 A 
ATOM     15  C   UNL     1       0.121  -2.264   1.612  0.00  0.00    +0.002 A 
ATOM     16  C   UNL     1       0.193  -0.890   1.743  0.00  0.00    +0.003 A 
ENDBRANCH   9  14
ENDBRANCH   7   9
BRANCH   7  17
ATOM     17  C   UNL     1       2.173  -4.682   1.621  0.00  0.00    -0.046 C 
BRANCH  17  18
ATOM     18  C   UNL     1       1.401  -5.495   2.661  0.00  0.00    +0.102 C 
ATOM     19  C   UNL     1       2.060  -5.349   4.056  0.00  0.00    +0.032 C 
ATOM     20  C   UNL     1       0.854  -5.651   4.986  0.00  0.00    +0.030 C 
ATOM     21  C   UNL     1      -0.329  -5.059   4.190  0.00  0.00    +0.160 C 
ATOM     22  O   UNL     1       0.072  -4.973   2.817  0.00  0.00    -0.378 OA
ENDBRANCH  17  18
ENDBRANCH   7  17
ENDBRANCH   6   7
ENDBRANCH   1   6
BRANCH   4  23
ATOM     23  C   UNL     1       6.045  -7.685  -1.799  0.00  0.00    +0.174 C 
BRANCH  23  24
ATOM     24  C   UNL     1       5.515  -7.843  -3.200  0.00  0.00    -0.004 A 
ATOM     25  C   UNL     1       5.676  -9.044  -3.868  0.00  0.00    +0.011 A 
ATOM     26  C   UNL     1       5.191  -9.191  -5.153  0.00  0.00    +0.046 A 
ATOM     27  C   UNL     1       4.542  -8.134  -5.774  0.00  0.00    +0.120 A 
ATOM     28  C   UNL     1       4.381  -6.931  -5.102  0.00  0.00    +0.046 A 
ATOM     29  C   UNL     1       4.863  -6.790  -3.815  0.00  0.00    +0.011 A 
BRANCH  27  30
ATOM     30  O   UNL     1       4.064  -8.277  -7.038  0.00  0.00    -0.495 OA
ATOM     31  C   UNL     1       3.406  -7.147  -7.614  0.00  0.00    +0.277 C 
ENDBRANCH  27  30
ENDBRANCH  23  24
BRANCH  23  32
ATOM     32  C   UNL     1       6.953  -6.484  -1.738  0.00  0.00    -0.004 A 
ATOM     33  C   UNL     1       6.434  -5.242  -1.423  0.00  0.00    +0.011 A 
ATOM     34  C   UNL     1       7.264  -4.139  -1.368  0.00  0.00    +0.046 A 
ATOM     35  C   UNL     1       8.620  -4.279  -1.627  0.00  0.00    +0.120 A 
ATOM     36  C   UNL     1       9.138  -5.526  -1.942  0.00  0.00    +0.046 A 
ATOM     37  C   UNL     1       8.305  -6.627  -1.991  0.00  0.00    +0.011 A 
BRANCH  35  38
ATOM     38  O   UNL     1       9.438  -3.195  -1.573  0.00  0.00    -0.495 OA
ATOM     39  C   UNL     1      10.823  -3.414  -1.851  0.00  0.00    +0.277 C 
ENDBRANCH  35  38
ENDBRANCH  23  32
BRANCH  23  40
ATOM     40  O   UNL     1       6.778  -8.855  -1.432  0.00  0.00    -0.372 OA
ATOM     41  H   UNL     1       6.255  -9.669  -1.449  0.00  0.00    +0.212 HD
ENDBRANCH  23  40
ENDBRANCH   4  23
TORSDOF 12
