REMARK  Name = ZINC41154911
REMARK  5 active torsions:
REMARK  status: ('A' for Active; 'I' for Inactive)
REMARK    1  A    between atoms: C_1  and  C_2
REMARK    2  A    between atoms: C_5  and  C_8
REMARK    3  A    between atoms: C_10  and  C_13
REMARK    4  A    between atoms: C_13  and  N_21
REMARK    5  A    between atoms: C_17  and  C_20
REMARK                            x       y       z     vdW  Elec       q    Type
REMARK                         _______ _______ _______ _____ _____    ______ ____
ROOT
ATOM      1  C   UNL     1       0.058  -4.251  -0.021  0.00  0.00    +0.258 A 
ATOM      2  N   UNL     1       0.068  -5.029   1.038  0.00  0.00    -0.193 NA
ATOM      3  C   UNL     1       0.085  -6.310   0.662  0.00  0.00    +0.161 A 
ATOM      4  N   UNL     1       0.086  -6.373  -0.639  0.00  0.00    -0.062 NA
ATOM      5  O   UNL     1       0.062  -5.035  -1.113  0.00  0.00    -0.333 OA
ENDROOT
BRANCH   1  10
ATOM      6  C   UNL     1      -0.018   1.503   0.010  0.00  0.00    +0.044 C 
ATOM      7  C   UNL     1       0.002  -0.004   0.002  0.00  0.00    -0.050 A 
ATOM      8  C   UNL     1       0.006  -0.686  -1.202  0.00  0.00    +0.004 A 
ATOM      9  C   UNL     1       0.024  -2.066  -1.216  0.00  0.00    +0.013 A 
ATOM     10  C   UNL     1       0.039  -2.773  -0.013  0.00  0.00    +0.039 A 
ATOM     11  C   UNL     1       0.036  -2.079   1.198  0.00  0.00    +0.013 A 
ATOM     12  C   UNL     1       0.023  -0.699   1.198  0.00  0.00    +0.004 A 
ENDBRANCH   1  10
BRANCH   3  13
ATOM     13  C   UNL     1       0.100  -7.494   1.595  0.00  0.00    -0.006 C 
ATOM     14  C   UNL     1      -1.206  -7.534   2.389  0.00  0.00    -0.005 C 
ATOM     15  C   UNL     1      -1.191  -8.736   3.336  0.00  0.00    -0.001 C 
ATOM     16  C   UNL     1      -1.049 -10.024   2.523  0.00  0.00    +0.003 C 
ATOM     17  C   UNL     1       0.258  -9.984   1.728  0.00  0.00    -0.015 C 
ATOM     18  C   UNL     1       0.243  -8.782   0.781  0.00  0.00    -0.002 C 
ATOM     19  C   UNL     1       0.401 -11.272   0.915  0.00  0.00    +0.007 C 
BRANCH  13  20
ATOM     20  N   UNL     1       1.234  -7.372   2.522  0.00  0.00    +0.387 N 
ATOM     21  H   UNL     1       1.140  -6.523   3.058  0.00  0.00    -0.089 HD
ATOM     22  H   UNL     1       1.244  -8.165   3.146  0.00  0.00    -0.089 HD
ATOM     23  H   UNL     1       2.095  -7.346   1.998  0.00  0.00    -0.089 HD
ENDBRANCH  13  20
ENDBRANCH   3  13
TORSDOF 3
