REMARK  Name = ZINC02771723
REMARK  10 active torsions:
REMARK  status: ('A' for Active; 'I' for Inactive)
REMARK    1  A    between atoms: C_1  and  C_2
REMARK    2  A    between atoms: C_4  and  C_29
REMARK    3  A    between atoms: C_5  and  C_14
REMARK    4  A    between atoms: C_6  and  C_13
REMARK    5  A    between atoms: C_7  and  C_8
REMARK    6  A    between atoms: C_8  and  O_9
REMARK    7  A    between atoms: O_9  and  C_10
REMARK    8  A    between atoms: C_10  and  C_12
REMARK    9  A    between atoms: C_16  and  C_27
REMARK   10  A    between atoms: C_17  and  N_26
REMARK                            x       y       z     vdW  Elec       q    Type
REMARK                         _______ _______ _______ _____ _____    ______ ____
ROOT
ATOM      1  C   UNL     1       0.786   3.260  -0.135  0.00  0.00    +0.101 C 
ATOM      2  C   UNL     1       1.668   4.051   0.792  0.00  0.00    +0.098 C 
ATOM      3  C   UNL     1       2.977   3.731   0.931  0.00  0.00    +0.198 C 
ATOM      4  O   UNL     1       3.525   2.713   0.248  0.00  0.00    -0.445 OA
ATOM      5  C   UNL     1       2.740   1.734  -0.240  0.00  0.00    +0.115 C 
ATOM      6  C   UNL     1       1.425   1.928  -0.447  0.00  0.00    +0.046 C 
ATOM      7  C   UNL     1       0.605   0.903  -0.955  0.00  0.00    +0.163 C 
ATOM      8  O   UNL     1      -0.573   1.125  -1.155  0.00  0.00    -0.292 OA
ATOM      9  C   UNL     1       1.162  -0.461  -1.261  0.00  0.00    +0.080 C 
ATOM     10  C   UNL     1       2.364  -0.721  -0.347  0.00  0.00    +0.016 C 
ATOM     11  C   UNL     1       3.382   0.403  -0.555  0.00  0.00    +0.075 C 
ENDROOT
BRANCH   1  16
ATOM     12  C   UNL     1       0.025   6.215  -5.042  0.00  0.00    +0.044 C 
ATOM     13  C   UNL     1       0.223   5.444  -3.762  0.00  0.00    -0.044 A 
ATOM     14  C   UNL     1       1.490   5.031  -3.394  0.00  0.00    +0.007 A 
ATOM     15  C   UNL     1       1.672   4.324  -2.220  0.00  0.00    -0.046 A 
ATOM     16  C   UNL     1       0.588   4.031  -1.414  0.00  0.00    -0.028 A 
ATOM     17  C   UNL     1      -0.679   4.440  -1.785  0.00  0.00    -0.039 A 
ATOM     18  C   UNL     1      -0.861   5.151  -2.957  0.00  0.00    -0.004 A 
ATOM     19  C   UNL     1      -1.862   4.115  -0.910  0.00  0.00    +0.044 C 
ATOM     20  C   UNL     1       3.053   3.874  -1.819  0.00  0.00    +0.044 C 
BRANCH  18  21
ATOM     21  C   UNL     1      -2.242   5.600  -3.359  0.00  0.00    +0.268 C 
BRANCH  21  22
ATOM     22  O   UNL     1      -2.870   4.570  -4.167  0.00  0.00    -0.460 OA
BRANCH  22  23
ATOM     23  C   UNL     1      -4.114   4.816  -4.609  0.00  0.00    +0.304 C 
ATOM     24  O   UNL     1      -4.659   5.858  -4.331  0.00  0.00    -0.251 OA
ATOM     25  C   UNL     1      -4.830   3.794  -5.453  0.00  0.00    +0.136 C 
ENDBRANCH  22  23
ENDBRANCH  21  22
ENDBRANCH  18  21
ENDBRANCH   1  16
BRANCH   3  26
ATOM     26  N   UNL     1       3.760   4.464   1.788  0.00  0.00    -0.328 N 
ATOM     27  H   UNL     1       3.375   5.202   2.286  0.00  0.00    +0.145 HD
ATOM     28  H   UNL     1       4.699   4.244   1.895  0.00  0.00    +0.145 HD
ENDBRANCH   3  26
BRANCH   2  29
ATOM     29  C   UNL     1       1.120   5.147   1.532  0.00  0.00    +0.101 C 
ATOM     30  N   UNL     1       0.686   6.018   2.119  0.00  0.00    -0.191 NA
ENDBRANCH   2  29
TORSDOF 6
