REMARK  Name = ZINC02887472
REMARK  8 active torsions:
REMARK  status: ('A' for Active; 'I' for Inactive)
REMARK    1  A    between atoms: C_4  and  C_7
REMARK    2  A    between atoms: C_7  and  C_8
REMARK    3  A    between atoms: C_8  and  N_9
REMARK    4  A    between atoms: C_10  and  C_12
REMARK    5  A    between atoms: C_17  and  O_23
REMARK    6  A    between atoms: O_23  and  C_24
REMARK    7  A    between atoms: C_24  and  C_26
REMARK    8  A    between atoms: C_30  and  N_32
REMARK                            x       y       z     vdW  Elec       q    Type
REMARK                         _______ _______ _______ _____ _____    ______ ____
ROOT
ATOM      1  C   UNL     1       1.391  12.333   0.148  0.00  0.00    +0.122 A 
ATOM      2  C   UNL     1       0.290  11.493   0.195  0.00  0.00    +0.031 A 
ATOM      3  C   UNL     1       0.498  10.094   0.150  0.00  0.00    +0.019 A 
ATOM      4  C   UNL     1      -0.598   9.216   0.195  0.00  0.00    +0.015 A 
ATOM      5  C   UNL     1      -0.394   7.870   0.147  0.00  0.00    +0.047 A 
ATOM      6  C   UNL     1       0.899   7.355   0.064  0.00  0.00    +0.135 A 
ATOM      7  C   UNL     1       1.993   8.204   0.018  0.00  0.00    +0.093 A 
ATOM      8  C   UNL     1       1.805   9.579   0.061  0.00  0.00    +0.143 A 
ATOM      9  O   UNL     1       2.873  10.404   0.015  0.00  0.00    -0.422 OA
ATOM     10  C   UNL     1       2.729  11.739   0.054  0.00  0.00    +0.350 A 
ATOM     11  O   UNL     1       3.711  12.457   0.012  0.00  0.00    -0.244 OA
ENDROOT
BRANCH   1  13
ATOM     12  N   UNL     1      -0.013  14.327   0.277  0.00  0.00    -0.311 N 
ATOM     13  C   UNL     1       1.222  13.794   0.191  0.00  0.00    +0.251 C 
ATOM     14  O   UNL     1       2.196  14.521   0.149  0.00  0.00    -0.270 OA
ATOM     15  H   UNL     1      -0.894  13.670   0.315  0.00  0.00    +0.149 HD
BRANCH  12  16
ATOM     16  C   UNL     1      -0.181  15.782   0.320  0.00  0.00    +0.109 C 
BRANCH  16  17
ATOM     17  C   UNL     1      -1.671  16.120   0.417  0.00  0.00    +0.054 C 
BRANCH  17  21
ATOM     18  C   UNL     1      -2.163  20.361   0.542  0.00  0.00    +0.000 A 
ATOM     19  C   UNL     1      -2.155  19.702  -0.673  0.00  0.00    +0.000 A 
ATOM     20  C   UNL     1      -1.995  18.329  -0.714  0.00  0.00    +0.004 A 
ATOM     21  C   UNL     1      -1.844  17.616   0.461  0.00  0.00    -0.046 A 
ATOM     22  C   UNL     1      -1.857  18.275   1.676  0.00  0.00    +0.004 A 
ATOM     23  C   UNL     1      -2.012  19.648   1.716  0.00  0.00    +0.000 A 
ENDBRANCH  17  21
ENDBRANCH  16  17
ENDBRANCH  12  16
ENDBRANCH   1  13
BRANCH   6  24
ATOM     24  O   UNL     1       1.088   6.011   0.022  0.00  0.00    -0.422 OA
BRANCH  24  25
ATOM     25  C   UNL     1       1.507   5.416   1.156  0.00  0.00    +0.345 C 
ATOM     26  O   UNL     1       1.784   6.090   2.128  0.00  0.00    -0.245 OA
BRANCH  25  27
ATOM     27  C   UNL     1       1.629   3.946   1.216  0.00  0.00    +0.062 A 
ATOM     28  C   UNL     1       1.312   3.169   0.100  0.00  0.00    +0.015 A 
ATOM     29  C   UNL     1       1.428   1.796   0.164  0.00  0.00    +0.003 A 
ATOM     30  C   UNL     1       1.858   1.188   1.331  0.00  0.00    +0.033 A 
ATOM     31  C   UNL     1       2.169   1.951   2.442  0.00  0.00    +0.127 A 
ATOM     32  C   UNL     1       2.063   3.326   2.390  0.00  0.00    +0.047 A 
BRANCH  31  33
ATOM     33  N   UNL     1       2.622   1.292   3.687  0.00  0.00    +0.056 N 
ATOM     34  O   UNL     1       2.721   0.079   3.733  0.00  0.00    -0.126 OA
ATOM     35  O   UNL     1       2.896   1.963   4.666  0.00  0.00    -0.126 OA
ENDBRANCH  31  33
ENDBRANCH  25  27
ENDBRANCH  24  25
ENDBRANCH   6  24
TORSDOF 8
