REMARK  Name = ZINC01843730
REMARK  14 active torsions:
REMARK  status: ('A' for Active; 'I' for Inactive)
REMARK    1  A    between atoms: C_1  and  C_2
REMARK    2  A    between atoms: C_5  and  N_8
REMARK    3  A    between atoms: N_8  and  C_9
REMARK    4  A    between atoms: N_8  and  S_28
REMARK    5  A    between atoms: C_9  and  C_10
REMARK    6  A    between atoms: C_10  and  C_12
REMARK    7  A    between atoms: C_10  and  O_27
REMARK    8  A    between atoms: C_12  and  N_70
REMARK    9  A    between atoms: C_13  and  C_14
REMARK   10  A    between atoms: C_13  and  N_70
REMARK   11  A    between atoms: C_20  and  C_21
REMARK   12  A    between atoms: C_20  and  N_70
REMARK   13  A    between atoms: S_28  and  C_31
REMARK   14  A    between atoms: C_34  and  N_37
REMARK                            x       y       z     vdW  Elec       q    Type
REMARK                         _______ _______ _______ _____ _____    ______ ____
ROOT
ATOM      1  C   UNL     1       1.035   4.538  -0.150  0.00  0.00    +0.161 C 
ENDROOT
BRANCH   1   2
ATOM      2  N   UNL     1       0.012   4.077  -1.091  0.00  0.00    -0.201 N 
BRANCH   2   7
ATOM      3  C   UNL     1      -1.086  -1.464  -1.597  0.00  0.00    +0.044 C 
ATOM      4  C   UNL     1      -0.794   0.009  -1.463  0.00  0.00    -0.050 A 
ATOM      5  C   UNL     1      -0.283   0.712  -2.538  0.00  0.00    +0.005 A 
ATOM      6  C   UNL     1      -0.014   2.061  -2.419  0.00  0.00    +0.025 A 
ATOM      7  C   UNL     1      -0.258   2.712  -1.216  0.00  0.00    +0.051 A 
ATOM      8  C   UNL     1      -0.773   2.003  -0.138  0.00  0.00    +0.025 A 
ATOM      9  C   UNL     1      -1.038   0.654  -0.265  0.00  0.00    +0.005 A 
ENDBRANCH   2   7
BRANCH   2  10
ATOM     10  S   UNL     1      -0.824   5.174  -2.008  0.00  0.00    +0.075 S 
ATOM     11  O   UNL     1       0.043   6.282  -2.206  0.00  0.00    -0.150 OA
ATOM     12  O   UNL     1      -1.394   4.449  -3.090  0.00  0.00    -0.150 OA
BRANCH  10  13
ATOM     13  C   UNL     1      -2.168   5.755  -1.028  0.00  0.00    +0.109 A 
ATOM     14  C   UNL     1      -3.354   5.045  -0.990  0.00  0.00    +0.031 A 
ATOM     15  C   UNL     1      -4.407   5.498  -0.218  0.00  0.00    +0.034 A 
ATOM     16  C   UNL     1      -4.277   6.667   0.509  0.00  0.00    +0.126 A 
ATOM     17  C   UNL     1      -3.093   7.379   0.468  0.00  0.00    +0.034 A 
ATOM     18  C   UNL     1      -2.039   6.924  -0.301  0.00  0.00    +0.031 A 
BRANCH  16  19
ATOM     19  N   UNL     1      -5.406   7.155   1.333  0.00  0.00    +0.056 N 
ATOM     20  O   UNL     1      -5.292   8.184   1.974  0.00  0.00    -0.126 OA
ATOM     21  O   UNL     1      -6.449   6.527   1.369  0.00  0.00    -0.126 OA
ENDBRANCH  16  19
ENDBRANCH  10  13
ENDBRANCH   2  10
ENDBRANCH   1   2
BRANCH   1  22
ATOM     22  C   UNL     1       2.413   4.443  -0.808  0.00  0.00    +0.117 C 
BRANCH  22  23
ATOM     23  O   UNL     1       2.728   3.072  -1.060  0.00  0.00    -0.392 OA
ATOM     24  H   UNL     1       2.683   2.507  -0.277  0.00  0.00    +0.210 HD
ENDBRANCH  22  23
BRANCH  22  25
ATOM     25  C   UNL     1       3.466   5.044   0.126  0.00  0.00    -0.045 C 
BRANCH  25  26
ATOM     26  N   UNL     1       4.774   5.036  -0.563  0.00  0.00    +0.387 N 
ATOM     27  H   UNL     1       4.958   4.091  -0.919  0.00  0.00    -0.081 HD
BRANCH  26  28
ATOM     28  C   UNL     1       4.753   5.981  -1.699  0.00  0.00    -0.042 C 
BRANCH  28  29
ATOM     29  C   UNL     1       5.935   5.696  -2.589  0.00  0.00    -0.064 A 
ATOM     30  C   UNL     1       7.092   6.442  -2.462  0.00  0.00    +0.002 A 
ATOM     31  C   UNL     1       8.178   6.177  -3.275  0.00  0.00    +0.000 A 
ATOM     32  C   UNL     1       8.104   5.173  -4.222  0.00  0.00    +0.000 A 
ATOM     33  C   UNL     1       6.945   4.430  -4.352  0.00  0.00    +0.000 A 
ATOM     34  C   UNL     1       5.861   4.692  -3.536  0.00  0.00    +0.002 A 
ENDBRANCH  28  29
ENDBRANCH  26  28
BRANCH  26  35
ATOM     35  C   UNL     1       5.846   5.408   0.384  0.00  0.00    -0.042 C 
BRANCH  35  36
ATOM     36  C   UNL     1       6.143   4.225   1.268  0.00  0.00    -0.064 A 
ATOM     37  C   UNL     1       5.508   4.098   2.490  0.00  0.00    +0.002 A 
ATOM     38  C   UNL     1       5.776   3.010   3.298  0.00  0.00    +0.000 A 
ATOM     39  C   UNL     1       6.686   2.053   2.890  0.00  0.00    +0.000 A 
ATOM     40  C   UNL     1       7.325   2.182   1.671  0.00  0.00    +0.000 A 
ATOM     41  C   UNL     1       7.053   3.268   0.860  0.00  0.00    +0.002 A 
ENDBRANCH  35  36
ENDBRANCH  26  35
ENDBRANCH  25  26
ENDBRANCH  22  25
ENDBRANCH   1  22
TORSDOF 13
