REMARK  Name = ZINC13982336
REMARK  8 active torsions:
REMARK  status: ('A' for Active; 'I' for Inactive)
REMARK    1  A    between atoms: C_1  and  C_2
REMARK    2  A    between atoms: C_2  and  C_3
REMARK    3  A    between atoms: C_2  and  C_4
REMARK    4  A    between atoms: C_6  and  N_12
REMARK    5  A    between atoms: C_7  and  O_11
REMARK    6  A    between atoms: N_13  and  C_14
REMARK    7  A    between atoms: C_17  and  S_20
REMARK    8  A    between atoms: S_20  and  N_23
REMARK                            x       y       z     vdW  Elec       q    Type
REMARK                         _______ _______ _______ _____ _____    ______ ____
ROOT
ATOM      1  C   UNL     1       5.186  -3.592  -0.893  0.00  0.00    +0.086 A 
ATOM      2  C   UNL     1       5.844  -4.038  -2.042  0.00  0.00    +0.031 A 
ATOM      3  C   UNL     1       6.973  -4.821  -1.926  0.00  0.00    +0.030 A 
ATOM      4  C   UNL     1       7.456  -5.164  -0.676  0.00  0.00    +0.106 A 
ATOM      5  C   UNL     1       6.810  -4.725   0.467  0.00  0.00    +0.030 A 
ATOM      6  C   UNL     1       5.683  -3.938   0.367  0.00  0.00    +0.031 A 
ENDROOT
BRANCH   4   7
ATOM      7  S   UNL     1       8.900  -6.165  -0.537  0.00  0.00    +0.061 S 
ATOM      8  O   UNL     1       8.835  -6.798   0.733  0.00  0.00    -0.153 OA
ATOM      9  O   UNL     1       9.004  -6.898  -1.750  0.00  0.00    -0.153 OA
BRANCH   7  10
ATOM     10  N   UNL     1      10.202  -5.142  -0.490  0.00  0.00    -0.172 NA
ATOM     11  C   UNL     1      10.879  -4.720  -1.726  0.00  0.00    +0.137 C 
ATOM     12  C   UNL     1      11.003  -3.192  -1.712  0.00  0.00    +0.177 C 
ATOM     13  O   UNL     1      11.608  -2.780  -0.484  0.00  0.00    -0.377 OA
ATOM     14  C   UNL     1      10.847  -3.105   0.682  0.00  0.00    +0.177 C 
ATOM     15  C   UNL     1      10.712  -4.624   0.790  0.00  0.00    +0.137 C 
ENDBRANCH   7  10
ENDBRANCH   4   7
BRANCH   1  17
ATOM     16  N   UNL     1       3.610  -2.499  -2.165  0.00  0.00    -0.146 NA
ATOM     17  N   UNL     1       4.066  -2.816  -1.000  0.00  0.00    -0.149 NA
BRANCH  16  20
ATOM     18  C   UNL     1       0.707  -0.490  -1.238  0.00  0.00    -0.041 A 
ATOM     19  C   UNL     1       1.837  -1.272  -1.123  0.00  0.00    +0.037 A 
ATOM     20  C   UNL     1       2.491  -1.724  -2.272  0.00  0.00    +0.129 A 
ATOM     21  C   UNL     1       1.992  -1.377  -3.536  0.00  0.00    +0.158 A 
ATOM     22  C   UNL     1       0.856  -0.589  -3.633  0.00  0.00    +0.062 A 
ATOM     23  C   UNL     1       0.215  -0.153  -2.488  0.00  0.00    +0.023 A 
ATOM     24 BR   UNL     1       0.177  -0.116  -5.333  0.00  0.00    -0.046 Br
BRANCH  18  26
ATOM     25  C   UNL     1      -0.019   1.526   0.010  0.00  0.00    +0.012 C 
ATOM     26  C   UNL     1       0.002  -0.004   0.002  0.00  0.00    +0.013 C 
ATOM     27  C   UNL     1      -1.433  -0.534   0.013  0.00  0.00    +0.012 C 
ENDBRANCH  18  26
BRANCH  21  28
ATOM     28  O   UNL     1       2.620  -1.809  -4.660  0.00  0.00    -0.504 OA
ATOM     29  H   UNL     1       2.299  -2.660  -4.987  0.00  0.00    +0.292 HD
ENDBRANCH  21  28
ENDBRANCH  16  20
ENDBRANCH   1  17
TORSDOF 6
