REMARK  Name = ZINC39449104
REMARK  5 active torsions:
REMARK  status: ('A' for Active; 'I' for Inactive)
REMARK    1  A    between atoms: C_4  and  C_7
REMARK    2  A    between atoms: C_7  and  C_8
REMARK    3  A    between atoms: C_18  and  S_21
REMARK    4  A    between atoms: S_21  and  O_24
REMARK    5  A    between atoms: O_24  and  C_25
REMARK                            x       y       z     vdW  Elec       q    Type
REMARK                         _______ _______ _______ _____ _____    ______ ____
ROOT
ATOM      1  C   UNL     1       4.171  -0.963   1.399  0.00  0.00    +0.082 C 
ATOM      2  C   UNL     1       5.452  -1.806   1.389  0.00  0.00    +0.104 C 
ATOM      3  C   UNL     1       6.585  -0.987   0.829  0.00  0.00    +0.187 C 
ATOM      4  O   UNL     1       7.491  -1.538   0.237  0.00  0.00    -0.290 OA
ATOM      5  C   UNL     1       6.603   0.419   0.985  0.00  0.00    +0.154 A 
ATOM      6  C   UNL     1       5.545   1.054   1.606  0.00  0.00    +0.085 A 
ATOM      7  C   UNL     1       5.568   2.514   1.775  0.00  0.00    +0.099 A 
ATOM      8  C   UNL     1       6.682   3.225   1.280  0.00  0.00    +0.072 A 
ATOM      9  C   UNL     1       6.726   4.612   1.427  0.00  0.00    +0.047 A 
ATOM     10  C   UNL     1       5.663   5.232   2.060  0.00  0.00    +0.147 A 
ATOM     11  C   UNL     1       4.600   4.468   2.522  0.00  0.00    +0.142 A 
ATOM     12  N   UNL     1       4.576   3.161   2.373  0.00  0.00    -0.251 NA
ATOM     13  C   UNL     1       7.765   2.480   0.623  0.00  0.00    +0.297 A 
ATOM     14  O   UNL     1       8.735   3.074   0.187  0.00  0.00    -0.264 OA
ATOM     15  N   UNL     1       7.686   1.142   0.503  0.00  0.00    -0.088 N 
ATOM     16  O   UNL     1       8.743   0.449  -0.136  0.00  0.00    -0.160 OA
ATOM     17  N   UNL     1       4.467   0.317   2.061  0.00  0.00    -0.337 N 
ATOM     18  H   UNL     1       3.921   0.634   2.797  0.00  0.00    +0.146 HD
ENDROOT
BRANCH  10  19
ATOM     19  S   UNL     1       5.658   6.980   2.278  0.00  0.00    +0.152 S 
ATOM     20  O   UNL     1       4.806   7.249   3.383  0.00  0.00    -0.131 OA
ATOM     21  O   UNL     1       7.016   7.397   2.245  0.00  0.00    -0.131 OA
BRANCH  19  22
ATOM     22  O   UNL     1       4.987   7.585   1.053  0.00  0.00    -0.342 OA
BRANCH  22  23
ATOM     23  C   UNL     1       3.636   7.439   1.035  0.00  0.00    +0.157 A 
ATOM     24  C   UNL     1       3.067   6.318   0.449  0.00  0.00    +0.048 A 
ATOM     25  C   UNL     1       1.693   6.172   0.431  0.00  0.00    +0.004 A 
ATOM     26  C   UNL     1       0.886   7.142   0.997  0.00  0.00    +0.000 A 
ATOM     27  C   UNL     1       1.452   8.260   1.581  0.00  0.00    +0.004 A 
ATOM     28  C   UNL     1       2.825   8.408   1.606  0.00  0.00    +0.048 A 
ENDBRANCH  22  23
ENDBRANCH  19  22
ENDBRANCH  10  19
BRANCH   1  29
ATOM     29  C   UNL     1       3.711  -0.707  -0.038  0.00  0.00    +0.057 C 
BRANCH  29  33
ATOM     30  C   UNL     1      -0.017   1.378   0.010  0.00  0.00    +0.000 A 
ATOM     31  C   UNL     1       1.171   2.086   0.002  0.00  0.00    +0.000 A 
ATOM     32  C   UNL     1       2.377   1.411  -0.013  0.00  0.00    +0.004 A 
ATOM     33  C   UNL     1       2.396   0.029  -0.020  0.00  0.00    -0.046 A 
ATOM     34  C   UNL     1       1.208  -0.679  -0.012  0.00  0.00    +0.004 A 
ATOM     35  C   UNL     1       0.002  -0.004   0.002  0.00  0.00    +0.000 A 
ENDBRANCH  29  33
ENDBRANCH   1  29
TORSDOF 5
