REMARK  Name = ZINC39325209
REMARK  10 active torsions:
REMARK  status: ('A' for Active; 'I' for Inactive)
REMARK    1  A    between atoms: C_1  and  C_2
REMARK    2  A    between atoms: C_6  and  C_8
REMARK    3  A    between atoms: C_8  and  C_9
REMARK    4  A    between atoms: C_9  and  N_10
REMARK    5  A    between atoms: N_10  and  C_11
REMARK    6  A    between atoms: N_10  and  S_26
REMARK    7  A    between atoms: C_11  and  C_12
REMARK    8  A    between atoms: C_17  and  C_25
REMARK    9  A    between atoms: C_18  and  C_24
REMARK   10  A    between atoms: S_26  and  C_29
REMARK                            x       y       z     vdW  Elec       q    Type
REMARK                         _______ _______ _______ _____ _____    ______ ____
ROOT
ATOM      1  N   UNL     1       1.391  -3.694   3.877  0.00  0.00    -0.175 NA
ENDROOT
BRANCH   1   2
ATOM      2  S   UNL     1       1.456  -2.791   5.264  0.00  0.00    +0.061 S 
ATOM      3  O   UNL     1       2.103  -3.594   6.242  0.00  0.00    -0.153 OA
ATOM      4  O   UNL     1       1.938  -1.507   4.891  0.00  0.00    -0.153 OA
BRANCH   2   5
ATOM      5  C   UNL     1      -0.202  -2.564   5.816  0.00  0.00    +0.106 A 
ATOM      6  C   UNL     1      -0.933  -1.476   5.378  0.00  0.00    +0.031 A 
ATOM      7  C   UNL     1      -2.234  -1.297   5.810  0.00  0.00    +0.040 A 
ATOM      8  C   UNL     1      -2.805  -2.209   6.681  0.00  0.00    +0.124 A 
ATOM      9  C   UNL     1      -2.072  -3.299   7.119  0.00  0.00    +0.040 A 
ATOM     10  C   UNL     1      -0.773  -3.479   6.682  0.00  0.00    +0.031 A 
ATOM     11  F   UNL     1      -4.076  -2.036   7.104  0.00  0.00    -0.205 F 
ENDBRANCH   2   5
ENDBRANCH   1   2
BRANCH   1  12
ATOM     12  C   UNL     1       1.372  -3.030   2.571  0.00  0.00    +0.114 C 
BRANCH  12  13
ATOM     13  C   UNL     1      -0.077  -2.846   2.115  0.00  0.00    +0.052 C 
BRANCH  13  19
ATOM     14  C   UNL     1      -0.213   1.347  -0.615  0.00  0.00    +0.044 C 
ATOM     15  C   UNL     1      -0.163  -0.158  -0.534  0.00  0.00    -0.050 A 
ATOM     16  C   UNL     1      -0.136  -0.911  -1.693  0.00  0.00    +0.003 A 
ATOM     17  C   UNL     1      -0.091  -2.291  -1.619  0.00  0.00    +0.001 A 
ATOM     18  C   UNL     1      -0.071  -2.917  -0.387  0.00  0.00    +0.004 A 
ATOM     19  C   UNL     1      -0.098  -2.163   0.772  0.00  0.00    -0.046 A 
ATOM     20  C   UNL     1      -0.139  -0.783   0.698  0.00  0.00    +0.007 A 
ENDBRANCH  13  19
ENDBRANCH  12  13
ENDBRANCH   1  12
BRANCH   1  21
ATOM     21  C   UNL     1       1.354  -5.156   3.957  0.00  0.00    +0.126 C 
BRANCH  21  22
ATOM     22  C   UNL     1       2.778  -5.708   3.861  0.00  0.00    +0.114 C 
ATOM     23  C   UNL     1       3.390  -5.196   2.572  0.00  0.00    -0.003 C 
ATOM     24  C   UNL     1       3.832  -6.124   1.677  0.00  0.00    -0.007 A 
ATOM     25  C   UNL     1       4.436  -5.716   0.408  0.00  0.00    +0.013 A 
ATOM     26  C   UNL     1       4.862  -6.676  -0.453  0.00  0.00    -0.047 A 
ATOM     27  C   UNL     1       4.735  -8.032  -0.150  0.00  0.00    -0.046 A 
ATOM     28  C   UNL     1       4.183  -8.475   1.010  0.00  0.00    +0.027 A 
ATOM     29  C   UNL     1       3.710  -7.563   1.971  0.00  0.00    +0.041 A 
ATOM     30  N   UNL     1       3.172  -8.009   3.106  0.00  0.00    -0.284 N 
ATOM     31  C   UNL     1       2.708  -7.207   4.048  0.00  0.00    +0.225 C 
ATOM     32  O   UNL     1       2.226  -7.674   5.063  0.00  0.00    -0.275 OA
ATOM     33  C   UNL     1       5.228  -9.046  -1.150  0.00  0.00    +0.044 C 
ATOM     34  C   UNL     1       5.485  -6.268  -1.763  0.00  0.00    +0.044 C 
ATOM     35  H   UNL     1       3.118  -8.967   3.246  0.00  0.00    +0.155 HD
ENDBRANCH  21  22
ENDBRANCH   1  21
TORSDOF 7
