REMARK  Name = ZINC13064459
REMARK  10 active torsions:
REMARK  status: ('A' for Active; 'I' for Inactive)
REMARK    1  A    between atoms: C_1  and  C_2
REMARK    2  A    between atoms: C_2  and  C_3
REMARK    3  A    between atoms: C_3  and  C_5
REMARK    4  A    between atoms: C_3  and  N_66
REMARK    5  A    between atoms: N_9  and  C_10
REMARK    6  A    between atoms: C_10  and  C_11
REMARK    7  A    between atoms: C_16  and  C_17
REMARK    8  A    between atoms: C_16  and  N_66
REMARK    9  A    between atoms: C_23  and  C_24
REMARK   10  A    between atoms: C_23  and  N_66
REMARK                            x       y       z     vdW  Elec       q    Type
REMARK                         _______ _______ _______ _____ _____    ______ ____
ROOT
ATOM      1  N   UNL     1       4.126  -1.013  -1.557  0.00  0.00    +0.392 N 
ATOM      2  H   UNL     1       4.308  -0.072  -1.925  0.00  0.00    -0.080 HD
ENDROOT
BRANCH   1   3
ATOM      3  C   UNL     1       3.031  -1.629  -2.336  0.00  0.00    +0.003 C 
BRANCH   3   4
ATOM      4  C   UNL     1       2.865  -3.078  -1.957  0.00  0.00    +0.139 A 
ATOM      5  N   UNL     1       3.823  -3.943  -1.730  0.00  0.00    -0.115 NA
ATOM      6  N   UNL     1       3.278  -5.073  -1.435  0.00  0.00    -0.023 NA
ATOM      7  N   UNL     1       1.997  -4.951  -1.466  0.00  0.00    -0.044 NA
ATOM      8  N   UNL     1       1.702  -3.734  -1.779  0.00  0.00    -0.223 N 
BRANCH   8   9
ATOM      9  C   UNL     1       0.356  -3.173  -1.919  0.00  0.00    +0.221 C 
BRANCH   9  10
ATOM     10  C   UNL     1      -0.148  -3.418  -3.318  0.00  0.00    +0.126 A 
ATOM     11  C   UNL     1      -0.836  -4.499  -3.728  0.00  0.00    +0.046 A 
ATOM     12  C   UNL     1      -1.106  -4.315  -5.103  0.00  0.00    +0.041 A 
ATOM     13  C   UNL     1      -0.560  -3.136  -5.453  0.00  0.00    +0.195 A 
ATOM     14  O   UNL     1       0.019  -2.598  -4.368  0.00  0.00    -0.466 OA
ENDBRANCH   9  10
ENDBRANCH   8   9
ENDBRANCH   3   4
BRANCH   3  16
ATOM     15  C   UNL     1       3.398  -0.055  -4.241  0.00  0.00    +0.002 C 
ATOM     16  C   UNL     1       3.366  -1.527  -3.825  0.00  0.00    -0.011 C 
ENDBRANCH   3  16
ENDBRANCH   1   3
BRANCH   1  17
ATOM     17  C   UNL     1       3.737  -0.906  -0.136  0.00  0.00    -0.042 C 
BRANCH  17  18
ATOM     18  C   UNL     1       2.740   0.215   0.010  0.00  0.00    -0.064 A 
ATOM     19  C   UNL     1       1.386  -0.064   0.035  0.00  0.00    +0.002 A 
ATOM     20  C   UNL     1       0.471   0.964   0.169  0.00  0.00    +0.000 A 
ATOM     21  C   UNL     1       0.911   2.270   0.278  0.00  0.00    +0.000 A 
ATOM     22  C   UNL     1       2.265   2.549   0.254  0.00  0.00    +0.000 A 
ATOM     23  C   UNL     1       3.179   1.521   0.120  0.00  0.00    +0.002 A 
ENDBRANCH  17  18
ENDBRANCH   1  17
BRANCH   1  24
ATOM     24  C   UNL     1       5.355  -1.824  -1.685  0.00  0.00    -0.036 C 
BRANCH  24  25
ATOM     25  C   UNL     1       6.539  -0.968  -1.314  0.00  0.00    +0.001 A 
ATOM     26  C   UNL     1       7.035  -1.012  -0.051  0.00  0.00    +0.017 A 
ATOM     27  C   UNL     1       8.184  -0.169   0.278  0.00  0.00    +0.002 A 
ATOM     28  C   UNL     1       8.738  -0.172   1.564  0.00  0.00    +0.059 A 
ATOM     29  C   UNL     1       9.820   0.635   1.846  0.00  0.00    +0.163 A 
ATOM     30  C   UNL     1      10.365   1.453   0.852  0.00  0.00    +0.164 A 
ATOM     31  C   UNL     1       9.825   1.462  -0.423  0.00  0.00    +0.075 A 
ATOM     32  C   UNL     1       8.735   0.656  -0.722  0.00  0.00    +0.053 A 
ATOM     33  N   UNL     1       8.183   0.653  -1.987  0.00  0.00    -0.322 N 
ATOM     34  H   UNL     1       8.563   1.221  -2.676  0.00  0.00    +0.169 HD
ATOM     35  C   UNL     1       7.129  -0.129  -2.281  0.00  0.00    +0.251 A 
ATOM     36  O   UNL     1       6.670  -0.109  -3.410  0.00  0.00    -0.268 OA
ATOM     37  O   UNL     1      11.435   2.250   1.121  0.00  0.00    -0.485 OA
ATOM     38  C   UNL     1      11.720   2.502   2.501  0.00  0.00    +0.270 C 
ATOM     39  C   UNL     1      11.660   1.167   3.256  0.00  0.00    +0.270 C 
ATOM     40  O   UNL     1      10.344   0.625   3.103  0.00  0.00    -0.485 OA
ENDBRANCH  24  25
ENDBRANCH   1  24
TORSDOF 9
