REMARK  Name = ZINC19578993
REMARK  5 active torsions:
REMARK  status: ('A' for Active; 'I' for Inactive)
REMARK    1  A    between atoms: C_1  and  C_2
REMARK    2  A    between atoms: C_3  and  C_9
REMARK    3  A    between atoms: C_4  and  C_8
REMARK    4  A    between atoms: C_9  and  C_10
REMARK    5  A    between atoms: C_10  and  C_11
REMARK                            x       y       z     vdW  Elec       q    Type
REMARK                         _______ _______ _______ _____ _____    ______ ____
ROOT
ATOM      1  C   UNL     1       2.386   0.092  -0.020  0.00  0.00    +0.050 A 
ATOM      2  C   UNL     1       1.229  -0.665  -0.013  0.00  0.00    +0.093 A 
ATOM      3  C   UNL     1       0.002  -0.004   0.002  0.00  0.00    +0.253 A 
ATOM      4  N   UNL     1      -0.016   1.323   0.008  0.00  0.00    -0.295 N 
ATOM      5  C   UNL     1       1.114   2.014   0.001  0.00  0.00    +0.198 A 
ATOM      6  N   UNL     1       2.295   1.413  -0.013  0.00  0.00    -0.221 NA
ATOM      7  N   UNL     1       1.060   3.397   0.009  0.00  0.00    -0.301 N 
ATOM      8  C   UNL     1       1.913   3.955   1.082  0.00  0.00    +0.108 C 
ATOM      9  C   UNL     1       1.681   5.424   1.307  0.00  0.00    +0.019 C 
ATOM     10  C   UNL     1       0.639   5.588   2.433  0.00  0.00    +0.002 C 
ATOM     11  C   UNL     1      -0.723   5.364   1.961  0.00  0.00    +0.002 C 
ATOM     12  C   UNL     1      -0.921   3.936   1.411  0.00  0.00    +0.019 C 
ATOM     13  C   UNL     1      -0.341   3.873   0.025  0.00  0.00    +0.108 C 
ATOM     14  O   UNL     1      -1.157  -0.707   0.009  0.00  0.00    -0.268 OA
ATOM     15  H   UNL     1      -0.982   1.849   0.020  0.00  0.00    +0.172 HD
ENDROOT
BRANCH   1  16
ATOM     16  C   UNL     1       3.736  -0.579  -0.036  0.00  0.00    +0.060 C 
BRANCH  16  17
ATOM     17  C   UNL     1       4.550  -0.059  -1.223  0.00  0.00    +0.045 C 
BRANCH  17  20
ATOM     18  C   UNL     1       5.263  -2.726  -2.693  0.00  0.00    +0.065 C 
ATOM     19  C   UNL     1       6.207  -1.883  -1.875  0.00  0.00    +0.036 A 
ATOM     20  C   UNL     1       5.899  -0.729  -1.239  0.00  0.00    -0.004 A 
ATOM     21  C   UNL     1       7.056  -0.266  -0.604  0.00  0.00    +0.063 A 
ATOM     22  N   UNL     1       8.021  -1.117  -0.842  0.00  0.00    -0.179 NA
ATOM     23  N   UNL     1       7.511  -2.144  -1.646  0.00  0.00    -0.281 N 
ATOM     24  H   UNL     1       7.976  -3.044  -2.074  0.00  0.00    +0.189 HD
ATOM     25  C   UNL     1       7.169   0.993   0.217  0.00  0.00    +0.068 C 
ENDBRANCH  17  20
ENDBRANCH  16  17
ENDBRANCH   1  16
TORSDOF 3
