REMARK  Name = ZINC54201906
REMARK  5 active torsions:
REMARK  status: ('A' for Active; 'I' for Inactive)
REMARK    1  A    between atoms: C_3  and  N_10
REMARK    2  A    between atoms: C_6  and  C_7
REMARK    3  A    between atoms: C_11  and  C_13
REMARK    4  A    between atoms: C_13  and  N_14
REMARK    5  A    between atoms: C_26  and  N_28
REMARK                            x       y       z     vdW  Elec       q    Type
REMARK                         _______ _______ _______ _____ _____    ______ ____
ROOT
ATOM      1  N   UNL     1       7.168   1.325   0.250  0.00  0.00    -0.258 N 
ATOM      2  C   UNL     1       7.679   0.814   1.439  0.00  0.00    +0.045 A 
ATOM      3  C   UNL     1       7.311   1.016   2.764  0.00  0.00    +0.025 A 
ATOM      4  C   UNL     1       7.995   0.378   3.779  0.00  0.00    +0.017 A 
ATOM      5  C   UNL     1       9.054  -0.469   3.493  0.00  0.00    +0.019 A 
ATOM      6  C   UNL     1       9.435  -0.683   2.183  0.00  0.00    +0.025 A 
ATOM      7  C   UNL     1       8.751  -0.044   1.153  0.00  0.00    +0.011 A 
ATOM      8  C   UNL     1       8.899  -0.053  -0.318  0.00  0.00    +0.065 C 
ATOM      9  C   UNL     1       9.821  -0.754  -1.063  0.00  0.00    +0.092 C 
ATOM     10  C   UNL     1      10.021  -0.798  -2.542  0.00  0.00    +0.277 C 
ATOM     11  O   UNL     1       9.322  -0.158  -3.308  0.00  0.00    -0.267 OA
ATOM     12  N   UNL     1      10.997  -1.567  -2.970  0.00  0.00    -0.153 NA
ATOM     13  C   UNL     1      11.764  -2.268  -2.148  0.00  0.00    +0.168 C 
ATOM     14  S   UNL     1      11.121  -1.861  -0.532  0.00  0.00    -0.050 S 
ATOM     15  C   UNL     1       7.836   0.850  -0.815  0.00  0.00    +0.253 C 
ATOM     16  O   UNL     1       7.609   1.116  -1.980  0.00  0.00    -0.270 OA
ATOM     17 BR   UNL     1       9.978  -1.333   4.899  0.00  0.00    -0.050 Br
ENDROOT
BRANCH  13  18
ATOM     18  N   UNL     1      12.801  -3.098  -2.462  0.00  0.00    -0.245 NA
ATOM     19  H   UNL     1      13.053  -3.231  -3.389  0.00  0.00    +0.172 HD
ENDBRANCH  13  18
BRANCH   1  20
ATOM     20  C   UNL     1       6.040   2.256   0.169  0.00  0.00    +0.210 C 
BRANCH  20  22
ATOM     21  N   UNL     1       3.577   2.133  -0.022  0.00  0.00    -0.284 N 
ATOM     22  C   UNL     1       4.753   1.480   0.065  0.00  0.00    +0.235 C 
ATOM     23  O   UNL     1       4.775   0.267   0.058  0.00  0.00    -0.274 OA
ATOM     24  H   UNL     1       3.563   3.100  -0.094  0.00  0.00    +0.155 HD
BRANCH  21  27
ATOM     25  C   UNL     1       0.109   1.169  -0.735  0.00  0.00    +0.017 A 
ATOM     26  C   UNL     1       1.292   1.873  -0.746  0.00  0.00    +0.024 A 
ATOM     27  C   UNL     1       2.381   1.418  -0.008  0.00  0.00    +0.033 A 
ATOM     28  C   UNL     1       2.278   0.252   0.745  0.00  0.00    +0.024 A 
ATOM     29  C   UNL     1       1.099  -0.457   0.761  0.00  0.00    +0.017 A 
ATOM     30  C   UNL     1       0.002  -0.004   0.020  0.00  0.00    +0.063 A 
BRANCH  30  31
ATOM     31  C   UNL     1      -1.262  -0.759   0.035  0.00  0.00    +0.387 C 
ATOM     32  O   UNL     1      -2.220  -0.361  -0.614  0.00  0.00    -0.241 OA
ATOM     33  O   UNL     1      -1.354  -1.784   0.696  0.00  0.00    -0.241 OA
ENDBRANCH  30  31
ENDBRANCH  21  27
ENDBRANCH  20  22
ENDBRANCH   1  20
TORSDOF 5
