REMARK  Name = ZINC19703179
REMARK  8 active torsions:
REMARK  status: ('A' for Active; 'I' for Inactive)
REMARK    1  A    between atoms: C_1  and  C_2
REMARK    2  A    between atoms: C_2  and  C_3
REMARK    3  A    between atoms: C_5  and  C_15
REMARK    4  A    between atoms: C_6  and  O_14
REMARK    5  A    between atoms: C_8  and  O_9
REMARK    6  A    between atoms: O_9  and  C_10
REMARK    7  A    between atoms: C_10  and  C_11
REMARK    8  A    between atoms: C_16  and  C_21
REMARK                            x       y       z     vdW  Elec       q    Type
REMARK                         _______ _______ _______ _____ _____    ______ ____
ROOT
ATOM      1  C   UNL     1      -0.314  -1.680  -4.611  0.00  0.00    +0.077 A 
ATOM      2  C   UNL     1      -0.189  -2.855  -5.342  0.00  0.00    +0.027 A 
ATOM      3  C   UNL     1      -0.887  -2.673  -6.549  0.00  0.00    +0.143 A 
ATOM      4  N   UNL     1      -1.402  -1.472  -6.554  0.00  0.00    -0.181 NA
ATOM      5  H   UNL     1      -1.329   0.074  -5.106  0.00  0.00    +0.189 HD
ATOM      6  N   UNL     1      -1.069  -0.826  -5.358  0.00  0.00    -0.276 N 
ENDROOT
BRANCH   2   7
ATOM      7  C   UNL     1       0.545  -4.074  -4.926  0.00  0.00    -0.011 A 
ATOM      8  C   UNL     1       1.888  -3.992  -4.562  0.00  0.00    +0.012 A 
ATOM      9  C   UNL     1       2.569  -5.128  -4.177  0.00  0.00    +0.050 A 
ATOM     10  C   UNL     1       1.921  -6.355  -4.149  0.00  0.00    +0.162 A 
ATOM     11  C   UNL     1       0.581  -6.443  -4.509  0.00  0.00    +0.163 A 
ATOM     12  C   UNL     1      -0.108  -5.305  -4.892  0.00  0.00    +0.058 A 
ATOM     13  O   UNL     1      -0.071  -7.638  -4.479  0.00  0.00    -0.485 OA
ATOM     14  C   UNL     1       0.743  -8.815  -4.444  0.00  0.00    +0.270 C 
ATOM     15  C   UNL     1       1.841  -8.608  -3.392  0.00  0.00    +0.270 C 
ATOM     16  O   UNL     1       2.614  -7.465  -3.770  0.00  0.00    -0.485 OA
ENDBRANCH   2   7
BRANCH   1  19
ATOM     17  C   UNL     1       1.778  -0.191  -1.874  0.00  0.00    -0.005 A 
ATOM     18  C   UNL     1       1.248  -0.440  -3.122  0.00  0.00    +0.020 A 
ATOM     19  C   UNL     1       0.256  -1.411  -3.277  0.00  0.00    +0.042 A 
ATOM     20  C   UNL     1      -0.196  -2.128  -2.160  0.00  0.00    +0.129 A 
ATOM     21  C   UNL     1       0.344  -1.869  -0.913  0.00  0.00    +0.092 A 
ATOM     22  C   UNL     1       1.333  -0.907  -0.769  0.00  0.00    +0.128 A 
BRANCH  17  24
ATOM     23  C   UNL     1       4.225   0.193  -1.766  0.00  0.00    +0.009 C 
ATOM     24  C   UNL     1       2.848   0.857  -1.708  0.00  0.00    +0.035 C 
ENDBRANCH  17  24
BRANCH  20  25
ATOM     25  O   UNL     1      -1.160  -3.073  -2.303  0.00  0.00    -0.506 OA
ATOM     26  H   UNL     1      -0.819  -3.959  -2.486  0.00  0.00    +0.292 HD
ENDBRANCH  20  25
BRANCH  22  27
ATOM     27  O   UNL     1       1.864  -0.660   0.456  0.00  0.00    -0.480 OA
BRANCH  27  28
ATOM     28  C   UNL     1       1.361  -1.432   1.549  0.00  0.00    +0.353 C 
BRANCH  28  29
ATOM     29  C   UNL     1       2.063  -1.022   2.818  0.00  0.00    +0.393 C 
ATOM     30  O   UNL     1       2.915  -0.150   2.790  0.00  0.00    -0.243 OA
ATOM     31  O   UNL     1       1.779  -1.563   3.873  0.00  0.00    -0.243 OA
ENDBRANCH  28  29
ENDBRANCH  27  28
ENDBRANCH  22  27
ENDBRANCH   1  19
TORSDOF 7
