REMARK  Name = ZINC24224279
REMARK  11 active torsions:
REMARK  status: ('A' for Active; 'I' for Inactive)
REMARK    1  A    between atoms: C_1  and  C_2
REMARK    2  A    between atoms: C_2  and  C_4
REMARK    3  A    between atoms: C_2  and  O_18
REMARK    4  A    between atoms: N_6  and  C_7
REMARK    5  A    between atoms: C_8  and  C_15
REMARK    6  A    between atoms: O_18  and  C_19
REMARK    7  A    between atoms: C_19  and  C_21
REMARK    8  A    between atoms: C_21  and  O_22
REMARK    9  A    between atoms: O_22  and  C_23
REMARK   10  A    between atoms: C_30  and  C_32
REMARK   11  A    between atoms: C_30  and  C_33
REMARK                            x       y       z     vdW  Elec       q    Type
REMARK                         _______ _______ _______ _____ _____    ______ ____
ROOT
ATOM      1  C   UNL     1       3.133   5.926   1.313  0.00  0.00    +0.062 C 
ATOM      2  C   UNL     1       2.342   5.773   0.013  0.00  0.00    +0.259 C 
ENDROOT
BRANCH   2   3
ATOM      3  C   UNL     1       1.629   4.445   0.012  0.00  0.00    +0.258 C 
ATOM      4  O   UNL     1       0.416   4.408   0.024  0.00  0.00    -0.271 OA
ATOM      5  N   UNL     1       2.338   3.299  -0.002  0.00  0.00    -0.276 N 
ATOM      6  H   UNL     1       3.437   3.333  -0.013  0.00  0.00    +0.155 HD
BRANCH   5   7
ATOM      7  C   UNL     1       1.681   2.078  -0.003  0.00  0.00    +0.084 A 
ATOM      8  C   UNL     1       2.229   0.806  -0.015  0.00  0.00    +0.068 A 
ATOM      9  C   UNL     1       1.307  -0.329  -0.013  0.00  0.00    -0.023 A 
ATOM     10  C   UNL     1       0.002  -0.004   0.002  0.00  0.00    -0.004 A 
ATOM     11  S   UNL     1      -0.022   1.772   0.012  0.00  0.00    -0.077 S 
ATOM     12  C   UNL     1      -0.882  -1.222   0.007  0.00  0.00    +0.043 C 
ATOM     13  C   UNL     1       0.051  -2.378   0.429  0.00  0.00    +0.010 C 
ATOM     14  C   UNL     1       1.427  -1.853  -0.025  0.00  0.00    +0.037 C 
BRANCH   8  15
ATOM     15  C   UNL     1       3.682   0.606  -0.029  0.00  0.00    +0.244 C 
ATOM     16  O   UNL     1       4.275   0.528  -1.089  0.00  0.00    -0.270 OA
ATOM     17  N   UNL     1       4.360   0.506   1.131  0.00  0.00    -0.325 N 
ATOM     18  H   UNL     1       5.450   0.355   1.120  0.00  0.00    +0.145 HD
ATOM     19  H   UNL     1       3.824   0.576   2.089  0.00  0.00    +0.145 HD
ENDBRANCH   8  15
ENDBRANCH   5   7
ENDBRANCH   2   3
BRANCH   2  20
ATOM     20  O   UNL     1       1.369   6.845  -0.090  0.00  0.00    -0.450 OA
BRANCH  20  21
ATOM     21  C   UNL     1       1.765   7.971  -0.704  0.00  0.00    +0.346 C 
ATOM     22  O   UNL     1       2.889   8.058  -1.139  0.00  0.00    -0.247 OA
BRANCH  21  23
ATOM     23  C   UNL     1       0.810   9.128  -0.848  0.00  0.00    +0.349 C 
BRANCH  23  24
ATOM     24  O   UNL     1       1.461  10.202  -1.530  0.00  0.00    -0.477 OA
BRANCH  24  25
ATOM     25  C   UNL     1       0.732  11.330  -1.743  0.00  0.00    +0.163 A 
ATOM     26  C   UNL     1      -0.579  11.398  -1.305  0.00  0.00    +0.049 A 
ATOM     27  C   UNL     1      -1.327  12.540  -1.519  0.00  0.00    +0.004 A 
ATOM     28  C   UNL     1      -0.763  13.618  -2.177  0.00  0.00    +0.007 A 
ATOM     29  C   UNL     1       0.542  13.554  -2.616  0.00  0.00    +0.002 A 
ATOM     30  C   UNL     1       1.310  12.419  -2.398  0.00  0.00    +0.166 A 
ATOM     31  O   UNL     1       2.570  12.573  -2.894  0.00  0.00    -0.482 OA
ATOM     32  C   UNL     1       2.576  13.648  -3.849  0.00  0.00    +0.109 C 
ATOM     33  C   UNL     1       1.415  14.546  -3.360  0.00  0.00    +0.086 C 
ATOM     34  C   UNL     1       2.298  13.122  -5.258  0.00  0.00    +0.056 C 
ATOM     35  C   UNL     1       3.905  14.405  -3.803  0.00  0.00    +0.056 C 
ENDBRANCH  24  25
ENDBRANCH  23  24
ENDBRANCH  21  23
ENDBRANCH  20  21
ENDBRANCH   2  20
TORSDOF 8
