REMARK  Name = ZINC38621526
REMARK  13 active torsions:
REMARK  status: ('A' for Active; 'I' for Inactive)
REMARK    1  A    between atoms: C_1  and  C_2
REMARK    2  A    between atoms: C_3  and  C_31
REMARK    3  A    between atoms: C_4  and  C_30
REMARK    4  A    between atoms: C_5  and  S_10
REMARK    5  A    between atoms: C_6  and  C_9
REMARK    6  A    between atoms: C_7  and  C_8
REMARK    7  A    between atoms: S_10  and  N_13
REMARK    8  A    between atoms: N_13  and  C_14
REMARK    9  A    between atoms: C_14  and  C_15
REMARK   10  A    between atoms: C_15  and  C_17
REMARK   11  A    between atoms: C_15  and  N_27
REMARK   12  A    between atoms: N_27  and  C_28
REMARK   13  A    between atoms: N_27  and  C_29
REMARK                            x       y       z     vdW  Elec       q    Type
REMARK                         _______ _______ _______ _____ _____    ______ ____
ROOT
ATOM      1  N   UNL     1       0.895  -5.716   0.119  0.00  0.00    -0.191 NA
ATOM      2  H   UNL     1       0.966  -6.221  -0.706  0.00  0.00    +0.148 HD
ENDROOT
BRANCH   1   3
ATOM      3  S   UNL     1      -0.286  -4.568   0.288  0.00  0.00    +0.059 S 
ATOM      4  O   UNL     1      -0.919  -4.817   1.536  0.00  0.00    -0.153 OA
ATOM      5  O   UNL     1      -1.004  -4.539  -0.938  0.00  0.00    -0.153 OA
BRANCH   3  10
ATOM      6  C   UNL     1       2.481   0.770   0.792  0.00  0.00    +0.044 C 
ATOM      7  C   UNL     1       1.790  -0.563   0.666  0.00  0.00    -0.044 A 
ATOM      8  C   UNL     1       1.474  -1.288   1.801  0.00  0.00    -0.043 A 
ATOM      9  C   UNL     1       0.840  -2.510   1.685  0.00  0.00    -0.021 A 
ATOM     10  C   UNL     1       0.521  -3.008   0.436  0.00  0.00    +0.112 A 
ATOM     11  C   UNL     1       0.836  -2.283  -0.698  0.00  0.00    -0.021 A 
ATOM     12  C   UNL     1       1.466  -1.058  -0.583  0.00  0.00    -0.043 A 
ATOM     13  C   UNL     1       1.805  -0.266  -1.819  0.00  0.00    +0.044 C 
ATOM     14  C   UNL     1       0.489  -2.826  -2.061  0.00  0.00    +0.046 C 
ATOM     15  C   UNL     1       0.497  -3.301   2.921  0.00  0.00    +0.046 C 
ATOM     16  C   UNL     1       1.822  -0.745   3.163  0.00  0.00    +0.044 C 
ENDBRANCH   3  10
ENDBRANCH   1   3
BRANCH   1  17
ATOM     17  C   UNL     1       1.832  -5.971   1.216  0.00  0.00    +0.095 C 
BRANCH  17  18
ATOM     18  C   UNL     1       2.569  -7.287   0.963  0.00  0.00    -0.022 C 
BRANCH  18  19
ATOM     19  C   UNL     1       1.587  -8.430   1.010  0.00  0.00    -0.052 A 
ATOM     20  C   UNL     1       1.110  -8.970  -0.145  0.00  0.00    +0.002 A 
ATOM     21  C   UNL     1       0.202 -10.026  -0.121  0.00  0.00    +0.001 A 
ATOM     22  C   UNL     1      -0.234 -10.549   1.058  0.00  0.00    +0.008 A 
ATOM     23  C   UNL     1       0.236 -10.018   2.270  0.00  0.00    -0.018 A 
ATOM     24  C   UNL     1       1.165  -8.947   2.246  0.00  0.00    -0.016 A 
ATOM     25  C   UNL     1       1.640  -8.420   3.459  0.00  0.00    +0.009 A 
ATOM     26  C   UNL     1       1.209  -8.946   4.637  0.00  0.00    +0.001 A 
ATOM     27  C   UNL     1       0.301 -10.004   4.661  0.00  0.00    +0.001 A 
ATOM     28  C   UNL     1      -0.191 -10.531   3.507  0.00  0.00    +0.008 A 
ENDBRANCH  18  19
BRANCH  18  29
ATOM     29  N   UNL     1       3.207  -7.244  -0.360  0.00  0.00    +0.381 N 
ATOM     30  C   UNL     1       4.076  -6.063  -0.446  0.00  0.00    -0.096 C 
ATOM     31  C   UNL     1       4.010  -8.458  -0.556  0.00  0.00    -0.096 C 
ATOM     32  H   UNL     1       2.496  -7.192  -1.075  0.00  0.00    -0.082 HD
ENDBRANCH  18  29
ENDBRANCH  17  18
ENDBRANCH   1  17
TORSDOF 6
