REMARK  Name = ZINC16216743
REMARK  6 active torsions:
REMARK  status: ('A' for Active; 'I' for Inactive)
REMARK    1  A    between atoms: C_1  and  O_2
REMARK    2  A    between atoms: O_2  and  C_3
REMARK    3  A    between atoms: C_6  and  C_9
REMARK    4  A    between atoms: C_9  and  N_10
REMARK    5  A    between atoms: C_20  and  C_22
REMARK    6  A    between atoms: C_32  and  C_35
REMARK                            x       y       z     vdW  Elec       q    Type
REMARK                         _______ _______ _______ _____ _____    ______ ____
ROOT
ATOM      1  N   UNL     1       3.230   4.300   0.733  0.00  0.00    -0.313 N 
ATOM      2  C   UNL     1       2.670   3.096   1.146  0.00  0.00    +0.052 A 
ATOM      3  C   UNL     1       1.349   2.786   0.842  0.00  0.00    +0.025 A 
ATOM      4  C   UNL     1       0.827   1.569   1.240  0.00  0.00    +0.002 A 
ATOM      5  C   UNL     1       1.610   0.662   1.932  0.00  0.00    +0.002 A 
ATOM      6  C   UNL     1       2.920   0.976   2.251  0.00  0.00    +0.025 A 
ATOM      7  C   UNL     1       3.440   2.197   1.853  0.00  0.00    +0.052 A 
ATOM      8  N   UNL     1       4.744   2.574   2.163  0.00  0.00    -0.316 N 
ATOM      9  C   UNL     1       5.702   2.786   1.223  0.00  0.00    +0.017 C 
ATOM     10  C   UNL     1       5.494   3.475   0.088  0.00  0.00    +0.037 C 
ATOM     11  C   UNL     1       4.214   4.169  -0.316  0.00  0.00    +0.139 C 
ATOM     12  C   UNL     1       6.543   3.623  -0.851  0.00  0.00    +0.163 C 
ATOM     13  O   UNL     1       6.325   4.224  -1.885  0.00  0.00    -0.292 OA
ATOM     14  C   UNL     1       7.914   3.065  -0.613  0.00  0.00    +0.091 C 
ATOM     15  C   UNL     1       8.164   3.012   0.899  0.00  0.00    +0.068 C 
ATOM     16  C   UNL     1       7.054   2.168   1.525  0.00  0.00    +0.063 C 
ATOM     17  H   UNL     1       4.981   2.690   3.096  0.00  0.00    +0.152 HD
ENDROOT
BRANCH  11  18
ATOM     18  C   UNL     1       4.560   5.548  -0.816  0.00  0.00    -0.022 A 
ATOM     19  C   UNL     1       4.800   6.569   0.084  0.00  0.00    +0.007 A 
ATOM     20  C   UNL     1       5.123   7.833  -0.374  0.00  0.00    +0.020 A 
ATOM     21  C   UNL     1       5.195   8.078  -1.734  0.00  0.00    +0.041 A 
ATOM     22  C   UNL     1       4.949   7.057  -2.634  0.00  0.00    +0.020 A 
ATOM     23  C   UNL     1       4.631   5.793  -2.175  0.00  0.00    +0.007 A 
ATOM     24 CL   UNL     1       5.593   9.667  -2.310  0.00  0.00    -0.084 Cl
ENDBRANCH  11  18
BRANCH  15  25
ATOM     25  C   UNL     1       9.504   2.379   1.174  0.00  0.00    +0.109 A 
ATOM     26  C   UNL     1      10.535   2.963   1.810  0.00  0.00    +0.045 A 
ATOM     27  C   UNL     1      11.583   2.015   1.848  0.00  0.00    +0.041 A 
ATOM     28  C   UNL     1      11.133   0.911   1.226  0.00  0.00    +0.195 A 
ATOM     29  O   UNL     1       9.873   1.137   0.819  0.00  0.00    -0.468 OA
ENDBRANCH  15  25
BRANCH   1  30
ATOM     30  C   UNL     1       2.187   5.265   0.360  0.00  0.00    +0.141 C 
BRANCH  30  34
ATOM     31  C   UNL     1      -0.728   5.490   3.477  0.00  0.00    +0.120 A 
ATOM     32  C   UNL     1       0.622   5.438   3.791  0.00  0.00    +0.046 A 
ATOM     33  C   UNL     1       1.563   5.365   2.781  0.00  0.00    +0.009 A 
ATOM     34  C   UNL     1       1.159   5.344   1.459  0.00  0.00    -0.030 A 
ATOM     35  C   UNL     1      -0.186   5.402   1.143  0.00  0.00    +0.009 A 
ATOM     36  C   UNL     1      -1.130   5.469   2.149  0.00  0.00    +0.046 A 
BRANCH  31  38
ATOM     37  C   UNL     1      -3.027   5.614   4.070  0.00  0.00    +0.277 C 
ATOM     38  O   UNL     1      -1.655   5.563   4.468  0.00  0.00    -0.495 OA
ENDBRANCH  31  38
ENDBRANCH  30  34
ENDBRANCH   1  30
TORSDOF 5
