REMARK  Name = ZINC16569704
REMARK  7 active torsions:
REMARK  status: ('A' for Active; 'I' for Inactive)
REMARK    1  A    between atoms: C_1  and  C_2
REMARK    2  A    between atoms: C_2  and  C_3
REMARK    3  A    between atoms: C_7  and  N_9
REMARK    4  A    between atoms: N_12  and  C_13
REMARK    5  A    between atoms: N_12  and  C_35
REMARK    6  A    between atoms: C_13  and  C_14
REMARK    7  A    between atoms: C_28  and  C_30
REMARK                            x       y       z     vdW  Elec       q    Type
REMARK                         _______ _______ _______ _____ _____    ______ ____
ROOT
ATOM      1  C   UNL     1      -0.711  -3.759  -1.800  0.00  0.00    +0.238 C 
ATOM      2  O   UNL     1       0.429  -3.487  -2.110  0.00  0.00    -0.273 OA
ATOM      3  N   UNL     1      -1.450  -2.873  -1.103  0.00  0.00    -0.252 N 
ATOM      4  C   UNL     1      -0.874  -1.673  -0.666  0.00  0.00    +0.061 A 
ATOM      5  C   UNL     1       0.168  -1.094  -1.373  0.00  0.00    +0.025 A 
ATOM      6  C   UNL     1       0.735   0.085  -0.926  0.00  0.00    +0.002 A 
ATOM      7  C   UNL     1       0.269   0.693   0.226  0.00  0.00    +0.002 A 
ATOM      8  C   UNL     1      -0.773   0.125   0.938  0.00  0.00    +0.028 A 
ATOM      9  C   UNL     1      -1.346  -1.050   0.494  0.00  0.00    +0.068 A 
ATOM     10  N   UNL     1      -2.412  -1.658   1.175  0.00  0.00    -0.316 N 
ATOM     11  C   UNL     1      -2.903  -1.424   2.415  0.00  0.00    +0.092 A 
ATOM     12  C   UNL     1      -3.933  -2.273   2.627  0.00  0.00    +0.020 A 
ATOM     13  C   UNL     1      -4.082  -3.061   1.464  0.00  0.00    +0.025 A 
ATOM     14  C   UNL     1      -3.147  -2.668   0.593  0.00  0.00    +0.052 A 
ATOM     15  C   UNL     1      -2.861  -3.168  -0.802  0.00  0.00    +0.194 C 
ENDROOT
BRANCH  15  16
ATOM     16  C   UNL     1      -3.752  -2.462  -1.791  0.00  0.00    +0.131 A 
ATOM     17  C   UNL     1      -4.882  -2.959  -2.326  0.00  0.00    +0.047 A 
ATOM     18  C   UNL     1      -5.394  -1.968  -3.195  0.00  0.00    +0.041 A 
ATOM     19  C   UNL     1      -4.546  -0.926  -3.139  0.00  0.00    +0.195 A 
ATOM     20  O   UNL     1      -3.557  -1.228  -2.283  0.00  0.00    -0.466 OA
ENDBRANCH  15  16
BRANCH   1  21
ATOM     21  C   UNL     1      -1.303  -5.088  -2.194  0.00  0.00    +0.205 C 
BRANCH  21  25
ATOM     22  N   UNL     1       0.948  -6.543  -4.709  0.00  0.00    -0.269 N 
ATOM     23  C   UNL     1      -0.073  -5.864  -4.150  0.00  0.00    +0.307 C 
ATOM     24  O   UNL     1      -0.818  -5.203  -4.847  0.00  0.00    -0.252 OA
ATOM     25  N   UNL     1      -0.268  -5.918  -2.817  0.00  0.00    -0.274 N 
ATOM     26  H   UNL     1       1.474  -7.156  -4.172  0.00  0.00    +0.156 HD
BRANCH  22  31
ATOM     27  C   UNL     1       2.040  -7.244  -8.149  0.00  0.00    -0.046 A 
ATOM     28  C   UNL     1       1.841  -6.011  -8.743  0.00  0.00    +0.004 A 
ATOM     29  C   UNL     1       1.347  -4.954  -8.001  0.00  0.00    +0.002 A 
ATOM     30  C   UNL     1       1.045  -5.129  -6.664  0.00  0.00    +0.023 A 
ATOM     31  C   UNL     1       1.248  -6.364  -6.064  0.00  0.00    +0.035 A 
ATOM     32  C   UNL     1       1.745  -7.423  -6.812  0.00  0.00    +0.027 A 
BRANCH  27  34
ATOM     33  C   UNL     1       1.415  -9.166  -9.586  0.00  0.00    +0.009 C 
ATOM     34  C   UNL     1       2.578  -8.393  -8.963  0.00  0.00    +0.032 C 
ENDBRANCH  27  34
ENDBRANCH  22  31
BRANCH  25  35
ATOM     35  C   UNL     1       0.554  -6.806  -1.992  0.00  0.00    +0.078 C 
ATOM     36  C   UNL     1       0.104  -7.047  -0.549  0.00  0.00    +0.024 C 
ATOM     37  C   UNL     1       1.329  -6.176  -0.833  0.00  0.00    +0.024 C 
ENDBRANCH  25  35
ENDBRANCH  21  25
ENDBRANCH   1  21
TORSDOF 6
