REMARK  Name = ZINC35842739
REMARK  17 active torsions:
REMARK  status: ('A' for Active; 'I' for Inactive)
REMARK    1  A    between atoms: C_1  and  C_2
REMARK    2  A    between atoms: C_2  and  C_3
REMARK    3  A    between atoms: C_2  and  C_4
REMARK    4  A    between atoms: C_4  and  N_5
REMARK    5  A    between atoms: N_5  and  C_6
REMARK    6  A    between atoms: N_5  and  C_13
REMARK    7  A    between atoms: C_6  and  C_7
REMARK    8  A    between atoms: C_13  and  C_14
REMARK    9  A    between atoms: N_16  and  C_17
REMARK   10  A    between atoms: N_16  and  C_29
REMARK   11  A    between atoms: C_17  and  C_18
REMARK   12  A    between atoms: C_18  and  C_19
REMARK   13  A    between atoms: C_29  and  C_30
REMARK   14  A    between atoms: C_33  and  C_36
REMARK   15  A    between atoms: C_36  and  C_37
REMARK   16  A    between atoms: C_36  and  C_38
REMARK   17  A    between atoms: C_36  and  C_39
REMARK                            x       y       z     vdW  Elec       q    Type
REMARK                         _______ _______ _______ _____ _____    ______ ____
ROOT
ATOM      1  C   UNL     1      -3.195  -2.101  -2.283  0.00  0.00    +0.199 C 
ATOM      2  O   UNL     1      -2.274  -1.620  -2.908  0.00  0.00    -0.278 OA
ATOM      3  N   UNL     1      -4.431  -2.133  -2.821  0.00  0.00    -0.298 N 
ENDROOT
BRANCH   1   4
ATOM      4  C   UNL     1      -2.959  -2.661  -0.904  0.00  0.00    +0.019 C 
BRANCH   4   5
ATOM      5  N   UNL     1      -1.588  -2.351  -0.477  0.00  0.00    +0.388 N 
ATOM      6  H   UNL     1      -0.973  -2.378  -1.277  0.00  0.00    -0.081 HD
BRANCH   5   7
ATOM      7  C   UNL     1      -1.553  -1.011   0.123  0.00  0.00    -0.075 C 
BRANCH   7   9
ATOM      8  C   UNL     1      -1.960   1.416  -0.305  0.00  0.00    +0.005 C 
ATOM      9  C   UNL     1      -1.823   0.039  -0.957  0.00  0.00    -0.034 C 
ATOM     10  C   UNL     1      -0.661   0.058  -1.952  0.00  0.00    +0.005 C 
ENDBRANCH   7   9
ENDBRANCH   5   7
BRANCH   5  11
ATOM     11  C   UNL     1      -1.147  -3.343   0.512  0.00  0.00    -0.042 C 
BRANCH  11  12
ATOM     12  C   UNL     1       0.301  -3.101   0.855  0.00  0.00    -0.064 A 
ATOM     13  C   UNL     1       1.298  -3.624   0.053  0.00  0.00    +0.002 A 
ATOM     14  C   UNL     1       2.625  -3.402   0.368  0.00  0.00    +0.000 A 
ATOM     15  C   UNL     1       2.956  -2.657   1.484  0.00  0.00    +0.000 A 
ATOM     16  C   UNL     1       1.959  -2.134   2.286  0.00  0.00    +0.000 A 
ATOM     17  C   UNL     1       0.631  -2.352   1.969  0.00  0.00    +0.002 A 
ENDBRANCH  11  12
ENDBRANCH   5  11
ENDBRANCH   4   5
ENDBRANCH   1   4
BRANCH   3  18
ATOM     18  C   UNL     1      -4.638  -1.698  -4.204  0.00  0.00    +0.113 C 
BRANCH  18  19
ATOM     19  C   UNL     1      -4.476  -2.894  -5.144  0.00  0.00    +0.056 C 
BRANCH  19  20
ATOM     20  C   UNL     1      -4.690  -2.447  -6.568  0.00  0.00    -0.021 A 
ATOM     21  C   UNL     1      -5.839  -2.506  -7.259  0.00  0.00    +0.087 A 
ATOM     22  N   UNL     1      -5.651  -2.010  -8.520  0.00  0.00    -0.360 N 
ATOM     23  H   UNL     1      -6.337  -1.949  -9.203  0.00  0.00    +0.165 HD
ATOM     24  C   UNL     1      -4.343  -1.608  -8.675  0.00  0.00    +0.047 A 
ATOM     25  C   UNL     1      -3.685  -1.859  -7.457  0.00  0.00    +0.003 A 
ATOM     26  C   UNL     1      -2.333  -1.542  -7.317  0.00  0.00    +0.010 A 
ATOM     27  C   UNL     1      -1.654  -0.987  -8.366  0.00  0.00    +0.001 A 
ATOM     28  C   UNL     1      -2.300  -0.734  -9.568  0.00  0.00    +0.002 A 
ATOM     29  C   UNL     1      -3.632  -1.047  -9.730  0.00  0.00    +0.026 A 
ENDBRANCH  19  20
ENDBRANCH  18  19
ENDBRANCH   3  18
BRANCH   3  30
ATOM     30  C   UNL     1      -5.565  -2.603  -2.022  0.00  0.00    +0.142 C 
BRANCH  30  31
ATOM     31  C   UNL     1      -6.280  -1.420  -1.421  0.00  0.00    -0.030 A 
ATOM     32  C   UNL     1      -5.851  -0.891  -0.218  0.00  0.00    +0.005 A 
ATOM     33  C   UNL     1      -6.507   0.193   0.334  0.00  0.00    +0.004 A 
ATOM     34  C   UNL     1      -7.592   0.750  -0.318  0.00  0.00    -0.042 A 
ATOM     35  C   UNL     1      -8.020   0.222  -1.522  0.00  0.00    +0.004 A 
ATOM     36  C   UNL     1      -7.362  -0.861  -2.075  0.00  0.00    +0.005 A 
BRANCH  34  37
ATOM     37  C   UNL     1      -8.308   1.931   0.283  0.00  0.00    -0.013 C 
ATOM     38  C   UNL     1      -7.329   3.098   0.434  0.00  0.00    +0.015 C 
ATOM     39  C   UNL     1      -9.461   2.349  -0.631  0.00  0.00    +0.015 C 
ATOM     40  C   UNL     1      -8.859   1.548   1.658  0.00  0.00    +0.015 C 
ENDBRANCH  34  37
ENDBRANCH  30  31
ENDBRANCH   3  30
TORSDOF 12
