REMARK  Name = ZINC59472814
REMARK  12 active torsions:
REMARK  status: ('A' for Active; 'I' for Inactive)
REMARK    1  A    between atoms: C_1  and  C_2
REMARK    2  A    between atoms: C_5  and  N_8
REMARK    3  A    between atoms: N_8  and  C_9
REMARK    4  A    between atoms: N_8  and  S_24
REMARK    5  A    between atoms: C_9  and  C_10
REMARK    6  A    between atoms: N_12  and  N_13
REMARK    7  A    between atoms: C_17  and  C_20
REMARK    8  A    between atoms: C_20  and  C_21
REMARK    9  A    between atoms: C_20  and  C_22
REMARK   10  A    between atoms: C_20  and  C_23
REMARK   11  A    between atoms: S_24  and  C_27
REMARK   12  A    between atoms: C_30  and  C_33
REMARK                            x       y       z     vdW  Elec       q    Type
REMARK                         _______ _______ _______ _____ _____    ______ ____
ROOT
ATOM      1  N   UNL     1       0.098  -4.154  -0.010  0.00  0.00    -0.194 N 
ENDROOT
BRANCH   1   6
ATOM      2  C   UNL     1       0.203   1.516   0.025  0.00  0.00    +0.044 C 
ATOM      3  C   UNL     1       0.175   0.009   0.016  0.00  0.00    -0.050 A 
ATOM      4  C   UNL     1      -0.601  -0.661  -0.912  0.00  0.00    +0.005 A 
ATOM      5  C   UNL     1      -0.629  -2.042  -0.923  0.00  0.00    +0.025 A 
ATOM      6  C   UNL     1       0.124  -2.757  -0.002  0.00  0.00    +0.052 A 
ATOM      7  C   UNL     1       0.903  -2.081   0.929  0.00  0.00    +0.025 A 
ATOM      8  C   UNL     1       0.931  -0.701   0.931  0.00  0.00    +0.005 A 
ENDBRANCH   1   6
BRANCH   1   9
ATOM      9  S   UNL     1      -0.401  -4.981   1.335  0.00  0.00    +0.075 S 
ATOM     10  O   UNL     1       0.292  -6.222   1.329  0.00  0.00    -0.150 OA
ATOM     11  O   UNL     1      -0.324  -4.071   2.423  0.00  0.00    -0.150 OA
BRANCH   9  12
ATOM     12  C   UNL     1      -2.108  -5.356   1.112  0.00  0.00    +0.109 A 
ATOM     13  C   UNL     1      -3.074  -4.467   1.545  0.00  0.00    +0.029 A 
ATOM     14  C   UNL     1      -4.413  -4.761   1.370  0.00  0.00    +0.005 A 
ATOM     15  C   UNL     1      -4.787  -5.945   0.761  0.00  0.00    -0.050 A 
ATOM     16  C   UNL     1      -3.821  -6.834   0.327  0.00  0.00    +0.005 A 
ATOM     17  C   UNL     1      -2.482  -6.537   0.498  0.00  0.00    +0.029 A 
ATOM     18  C   UNL     1      -6.247  -6.266   0.572  0.00  0.00    +0.044 C 
ENDBRANCH   9  12
ENDBRANCH   1   9
BRANCH   1  19
ATOM     19  C   UNL     1       0.513  -4.887  -1.209  0.00  0.00    +0.228 C 
BRANCH  19  20
ATOM     20  C   UNL     1       2.010  -5.059  -1.200  0.00  0.00    +0.251 C 
ATOM     21  O   UNL     1       2.666  -4.613  -0.283  0.00  0.00    -0.272 OA
ATOM     22  N   UNL     1       2.620  -5.708  -2.212  0.00  0.00    -0.206 N 
ATOM     23  H   UNL     1       2.095  -6.065  -2.945  0.00  0.00    +0.177 HD
BRANCH  22  24
ATOM     24  N   UNL     1       4.011  -5.868  -2.204  0.00  0.00    -0.189 NA
ATOM     25  C   UNL     1       4.600  -6.407  -3.205  0.00  0.00    +0.037 C 
ATOM     26  C   UNL     1       3.803  -6.992  -4.350  0.00  0.00    +0.053 C 
ATOM     27  C   UNL     1       4.297  -8.419  -4.607  0.00  0.00    +0.010 C 
ATOM     28  C   UNL     1       5.809  -8.400  -4.837  0.00  0.00    -0.005 C 
ATOM     29  C   UNL     1       6.519  -7.920  -3.570  0.00  0.00    +0.010 C 
ATOM     30  C   UNL     1       6.109  -6.469  -3.276  0.00  0.00    +0.053 C 
BRANCH  28  31
ATOM     31  C   UNL     1       6.288  -9.811  -5.185  0.00  0.00    -0.035 C 
ATOM     32  C   UNL     1       5.585 -10.289  -6.457  0.00  0.00    +0.011 C 
ATOM     33  C   UNL     1       7.801  -9.793  -5.414  0.00  0.00    +0.011 C 
ATOM     34  C   UNL     1       5.958 -10.761  -4.032  0.00  0.00    +0.011 C 
ENDBRANCH  28  31
ENDBRANCH  22  24
ENDBRANCH  19  20
ENDBRANCH   1  19
TORSDOF 7
