REMARK  Name = ZINC12497658
REMARK  13 active torsions:
REMARK  status: ('A' for Active; 'I' for Inactive)
REMARK    1  A    between atoms: C_1  and  C_2
REMARK    2  A    between atoms: C_2  and  C_3
REMARK    3  A    between atoms: C_3  and  C_4
REMARK    4  A    between atoms: C_4  and  C_32
REMARK    5  A    between atoms: C_9  and  C_11
REMARK    6  A    between atoms: C_16  and  C_17
REMARK    7  A    between atoms: N_20  and  C_23
REMARK    8  A    between atoms: C_26  and  O_29
REMARK    9  A    between atoms: O_29  and  C_30
REMARK   10  A    between atoms: C_30  and  C_31
REMARK   11  A    between atoms: C_32  and  O_34
REMARK   12  A    between atoms: O_34  and  C_35
REMARK   13  A    between atoms: C_35  and  C_36
REMARK                            x       y       z     vdW  Elec       q    Type
REMARK                         _______ _______ _______ _____ _____    ______ ____
ROOT
ATOM      1  C   UNL     1      -8.490  -3.106   0.235  0.00  0.00    +0.044 C 
ATOM      2  C   UNL     1      -7.101  -2.936  -0.333  0.00  0.00    +0.086 C 
ATOM      3  C   UNL     1      -6.419  -4.163   0.392  0.00  0.00    +0.077 C 
ATOM      4  C   UNL     1      -7.391  -5.239   0.070  0.00  0.00    -0.026 C 
ATOM      5  C   UNL     1      -5.027  -3.918   0.022  0.00  0.00    +0.229 C 
ATOM      6  O   UNL     1      -4.175  -4.741  -0.234  0.00  0.00    -0.275 OA
ATOM      7  N   UNL     1      -4.897  -2.552   0.027  0.00  0.00    -0.210 N 
ATOM      8  C   UNL     1      -6.106  -1.908   0.051  0.00  0.00    +0.229 C 
ATOM      9  O   UNL     1      -6.316  -0.746   0.325  0.00  0.00    -0.275 OA
ATOM     10  N   UNL     1      -8.709  -4.576   0.085  0.00  0.00    +0.395 N 
ATOM     11  H   UNL     1      -9.203  -4.765  -0.795  0.00  0.00    -0.083 HD
ATOM     12  H   UNL     1      -9.266  -4.926   0.873  0.00  0.00    -0.083 HD
ENDROOT
BRANCH   4  13
ATOM     13  C   UNL     1      -7.117  -5.803  -1.300  0.00  0.00    -0.058 A 
ATOM     14  C   UNL     1      -7.810  -5.324  -2.396  0.00  0.00    +0.002 A 
ATOM     15  C   UNL     1      -7.555  -5.838  -3.654  0.00  0.00    +0.000 A 
ATOM     16  C   UNL     1      -6.614  -6.838  -3.813  0.00  0.00    +0.000 A 
ATOM     17  C   UNL     1      -5.924  -7.320  -2.717  0.00  0.00    +0.003 A 
ATOM     18  C   UNL     1      -6.176  -6.803  -1.460  0.00  0.00    -0.049 A 
ATOM     19  C   UNL     1      -5.425  -7.329  -0.264  0.00  0.00    +0.044 C 
ENDBRANCH   4  13
BRANCH   7  20
ATOM     20  C   UNL     1      -3.661  -1.888   0.016  0.00  0.00    +0.044 A 
ATOM     21  C   UNL     1      -2.480  -2.618  -0.002  0.00  0.00    +0.027 A 
ATOM     22  C   UNL     1      -1.264  -1.964  -0.014  0.00  0.00    +0.047 A 
ATOM     23  C   UNL     1      -1.222  -0.577  -0.007  0.00  0.00    +0.121 A 
ATOM     24  C   UNL     1      -2.402   0.153   0.016  0.00  0.00    +0.047 A 
ATOM     25  C   UNL     1      -3.618  -0.500   0.022  0.00  0.00    +0.027 A 
BRANCH  23  26
ATOM     26  O   UNL     1      -0.025   0.067  -0.018  0.00  0.00    -0.492 OA
BRANCH  26  27
ATOM     27  C   UNL     1      -0.056   1.495  -0.011  0.00  0.00    +0.225 C 
ATOM     28  C   UNL     1       1.375   2.037  -0.025  0.00  0.00    +0.048 C 
ENDBRANCH  26  27
ENDBRANCH  23  26
ENDBRANCH   7  20
BRANCH   1  29
ATOM     29  C   UNL     1      -9.496  -2.317  -0.563  0.00  0.00    +0.297 C 
ATOM     30  O   UNL     1      -9.141  -1.348  -1.193  0.00  0.00    -0.252 OA
BRANCH  29  31
ATOM     31  O   UNL     1     -10.785  -2.690  -0.575  0.00  0.00    -0.466 OA
BRANCH  31  32
ATOM     32  C   UNL     1     -11.697  -1.883  -1.366  0.00  0.00    +0.228 C 
ATOM     33  C   UNL     1     -13.111  -2.459  -1.257  0.00  0.00    +0.048 C 
ENDBRANCH  31  32
ENDBRANCH  29  31
ENDBRANCH   1  29
BRANCH   1  34
ATOM     34  C   UNL     1      -8.528  -2.698   1.709  0.00  0.00    -0.001 C 
BRANCH  34  36
ATOM     35  C   UNL     1      -9.988  -2.462   3.723  0.00  0.00    +0.004 C 
ATOM     36  C   UNL     1      -9.949  -2.870   2.249  0.00  0.00    -0.004 C 
ENDBRANCH  34  36
ENDBRANCH   1  34
TORSDOF 9
