REMARK  Name = ZINC35639843
REMARK  10 active torsions:
REMARK  status: ('A' for Active; 'I' for Inactive)
REMARK    1  A    between atoms: C_1  and  C_2
REMARK    2  A    between atoms: C_5  and  C_8
REMARK    3  A    between atoms: C_17  and  C_21
REMARK    4  A    between atoms: N_23  and  C_24
REMARK    5  A    between atoms: C_24  and  C_25
REMARK    6  A    between atoms: C_25  and  N_26
REMARK    7  A    between atoms: N_26  and  C_27
REMARK    8  A    between atoms: N_26  and  C_28
REMARK    9  A    between atoms: C_29  and  C_31
REMARK   10  A    between atoms: C_36  and  C_37
REMARK                            x       y       z     vdW  Elec       q    Type
REMARK                         _______ _______ _______ _____ _____    ______ ____
ROOT
ATOM      1  C   UNL     1       0.231  -3.176   0.901  0.00  0.00    +0.247 C 
ATOM      2  O   UNL     1       0.177  -3.542  -0.257  0.00  0.00    -0.270 OA
ATOM      3  N   UNL     1       0.295  -4.085   1.893  0.00  0.00    -0.297 N 
ATOM      4  C   UNL     1       0.273  -3.662   3.300  0.00  0.00    +0.112 C 
ATOM      5  C   UNL     1      -0.849  -4.413   4.024  0.00  0.00    +0.074 C 
ATOM      6  C   UNL     1      -0.665  -5.918   3.818  0.00  0.00    +0.142 C 
ATOM      7  C   UNL     1      -0.734  -6.255   2.328  0.00  0.00    +0.074 C 
ATOM      8  C   UNL     1       0.383  -5.520   1.589  0.00  0.00    +0.112 C 
ATOM      9  N   UNL     1       0.636  -6.336   4.361  0.00  0.00    -0.255 N 
ATOM     10  C   UNL     1       0.342  -7.350   5.398  0.00  0.00    +0.190 C 
ATOM     11  C   UNL     1      -1.075  -7.840   5.005  0.00  0.00    +0.194 C 
ATOM     12  O   UNL     1      -1.698  -6.628   4.520  0.00  0.00    -0.353 OA
ATOM     13  C   UNL     1       1.851  -5.888   3.987  0.00  0.00    +0.250 C 
ATOM     14  O   UNL     1       1.948  -5.052   3.110  0.00  0.00    -0.270 OA
ENDROOT
BRANCH   1  19
ATOM     15  C   UNL     1       0.206   2.443   2.144  0.00  0.00    +0.044 C 
ATOM     16  C   UNL     1       0.212   0.971   1.819  0.00  0.00    -0.050 A 
ATOM     17  C   UNL     1       1.029   0.112   2.532  0.00  0.00    +0.004 A 
ATOM     18  C   UNL     1       1.039  -1.236   2.239  0.00  0.00    +0.013 A 
ATOM     19  C   UNL     1       0.224  -1.732   1.221  0.00  0.00    +0.037 A 
ATOM     20  C   UNL     1      -0.597  -0.860   0.505  0.00  0.00    +0.013 A 
ATOM     21  C   UNL     1      -0.603   0.485   0.812  0.00  0.00    +0.004 A 
ENDBRANCH   1  19
BRANCH  13  22
ATOM     22  C   UNL     1       3.067  -6.412   4.646  0.00  0.00    +0.040 A 
ATOM     23  C   UNL     1       3.154  -6.439   6.039  0.00  0.00    +0.013 A 
ATOM     24  C   UNL     1       4.291  -6.930   6.646  0.00  0.00    +0.001 A 
ATOM     25  C   UNL     1       5.344  -7.396   5.878  0.00  0.00    +0.000 A 
ATOM     26  C   UNL     1       5.264  -7.372   4.497  0.00  0.00    +0.004 A 
ATOM     27  C   UNL     1       4.130  -6.889   3.877  0.00  0.00    -0.038 A 
ATOM     28  C   UNL     1       4.042  -6.870   2.373  0.00  0.00    +0.044 C 
ENDBRANCH  13  22
BRANCH  10  29
ATOM     29  C   UNL     1       1.337  -8.479   5.339  0.00  0.00    +0.236 C 
ATOM     30  O   UNL     1       2.041  -8.617   4.361  0.00  0.00    -0.274 OA
ATOM     31  N   UNL     1       1.446  -9.337   6.373  0.00  0.00    -0.315 N 
ATOM     32  H   UNL     1       0.883  -9.227   7.155  0.00  0.00    +0.149 HD
BRANCH  31  33
ATOM     33  C   UNL     1       2.414 -10.435   6.316  0.00  0.00    +0.085 C 
BRANCH  33  34
ATOM     34  C   UNL     1       2.334 -11.252   7.607  0.00  0.00    -0.061 C 
BRANCH  34  35
ATOM     35  N   UNL     1       3.305 -12.354   7.549  0.00  0.00    +0.377 N 
ATOM     36  C   UNL     1       4.667 -11.805   7.520  0.00  0.00    -0.097 C 
ATOM     37  C   UNL     1       3.147 -13.208   8.733  0.00  0.00    -0.097 C 
ATOM     38  H   UNL     1       3.145 -12.900   6.716  0.00  0.00    -0.083 HD
ENDBRANCH  34  35
ENDBRANCH  33  34
ENDBRANCH  31  33
ENDBRANCH  10  29
TORSDOF 6
