REMARK  Name = ZINC12349390
REMARK  8 active torsions:
REMARK  status: ('A' for Active; 'I' for Inactive)
REMARK    1  A    between atoms: C_1  and  C_2
REMARK    2  A    between atoms: N_5  and  C_7
REMARK    3  A    between atoms: C_16  and  C_18
REMARK    4  A    between atoms: C_28  and  C_31
REMARK    5  A    between atoms: C_34  and  O_39
REMARK    6  A    between atoms: C_35  and  O_37
REMARK    7  A    between atoms: O_37  and  C_38
REMARK    8  A    between atoms: O_39  and  C_40
REMARK                            x       y       z     vdW  Elec       q    Type
REMARK                         _______ _______ _______ _____ _____    ______ ____
ROOT
ATOM      1  C   UNL     1      -1.963   0.070   3.072  0.00  0.00    +0.068 C 
ATOM      2  C   UNL     1      -3.083   0.946   2.574  0.00  0.00    +0.066 A 
ATOM      3  C   UNL     1      -3.297   1.321   1.255  0.00  0.00    +0.027 A 
ATOM      4  C   UNL     1      -4.415   2.112   1.219  0.00  0.00    +0.131 A 
ATOM      5  N   UNL     1      -4.875   2.229   2.482  0.00  0.00    -0.218 N 
ATOM      6  N   UNL     1      -4.024   1.486   3.314  0.00  0.00    -0.170 NA
ATOM      7  N   UNL     1      -4.890   2.641   0.025  0.00  0.00    -0.302 N 
ATOM      8  C   UNL     1      -4.420   2.119  -1.154  0.00  0.00    +0.017 C 
ATOM      9  C   UNL     1      -3.317   1.341  -1.211  0.00  0.00    +0.024 C 
ATOM     10  C   UNL     1      -2.514   0.979   0.019  0.00  0.00    +0.089 C 
ATOM     11  C   UNL     1      -2.861   0.826  -2.438  0.00  0.00    +0.162 C 
ATOM     12  O   UNL     1      -1.871   0.121  -2.455  0.00  0.00    -0.292 OA
ATOM     13  C   UNL     1      -3.570   1.128  -3.728  0.00  0.00    +0.088 C 
ATOM     14  C   UNL     1      -4.257   2.493  -3.608  0.00  0.00    +0.032 C 
ATOM     15  C   UNL     1      -5.200   2.451  -2.405  0.00  0.00    +0.059 C 
ATOM     16  H   UNL     1      -5.539   3.362   0.025  0.00  0.00    +0.153 HD
ENDROOT
BRANCH  10  17
ATOM     17  C   UNL     1      -1.219   1.750   0.017  0.00  0.00    -0.035 A 
ATOM     18  C   UNL     1      -0.013   1.076   0.008  0.00  0.00    +0.006 A 
ATOM     19  C   UNL     1       1.175   1.783   0.000  0.00  0.00    +0.020 A 
ATOM     20  C   UNL     1       1.156   3.166   0.008  0.00  0.00    +0.041 A 
ATOM     21  C   UNL     1      -0.052   3.841   0.022  0.00  0.00    +0.020 A 
ATOM     22  C   UNL     1      -1.239   3.133   0.030  0.00  0.00    +0.006 A 
ATOM     23 CL   UNL     1       2.647   4.055  -0.001  0.00  0.00    -0.084 Cl
ENDBRANCH  10  17
BRANCH   5  24
ATOM     24  C   UNL     1      -6.000   2.960   2.888  0.00  0.00    +0.067 A 
ATOM     25  C   UNL     1      -6.321   4.153   2.254  0.00  0.00    +0.028 A 
ATOM     26  C   UNL     1      -7.434   4.867   2.653  0.00  0.00    +0.002 A 
ATOM     27  C   UNL     1      -8.220   4.402   3.691  0.00  0.00    +0.000 A 
ATOM     28  C   UNL     1      -7.899   3.218   4.329  0.00  0.00    +0.002 A 
ATOM     29  C   UNL     1      -6.792   2.496   3.930  0.00  0.00    +0.028 A 
ENDBRANCH   5  24
BRANCH  14  30
ATOM     30  C   UNL     1      -5.044   2.778  -4.861  0.00  0.00    -0.040 A 
ATOM     31  C   UNL     1      -6.059   1.923  -5.247  0.00  0.00    +0.008 A 
ATOM     32  C   UNL     1      -6.788   2.183  -6.393  0.00  0.00    +0.049 A 
ATOM     33  C   UNL     1      -6.493   3.296  -7.164  0.00  0.00    +0.161 A 
ATOM     34  C   UNL     1      -5.467   4.154  -6.778  0.00  0.00    +0.162 A 
ATOM     35  C   UNL     1      -4.744   3.890  -5.626  0.00  0.00    +0.053 A 
BRANCH  34  36
ATOM     36  O   UNL     1      -5.173   5.247  -7.532  0.00  0.00    -0.491 OA
ATOM     37  C   UNL     1      -4.107   6.082  -7.075  0.00  0.00    +0.277 C 
ENDBRANCH  34  36
BRANCH  33  38
ATOM     38  O   UNL     1      -7.205   3.551  -8.294  0.00  0.00    -0.491 OA
ATOM     39  C   UNL     1      -8.244   2.628  -8.628  0.00  0.00    +0.277 C 
ENDBRANCH  33  38
ENDBRANCH  14  30
TORSDOF 5
