REMARK  Name = ZINC12710245
REMARK  9 active torsions:
REMARK  status: ('A' for Active; 'I' for Inactive)
REMARK    1  A    between atoms: C_1  and  C_2
REMARK    2  A    between atoms: C_3  and  C_33
REMARK    3  A    between atoms: C_4  and  O_31
REMARK    4  A    between atoms: C_7  and  C_8
REMARK    5  A    between atoms: N_22  and  C_23
REMARK    6  A    between atoms: C_23  and  C_24
REMARK    7  A    between atoms: C_24  and  C_25
REMARK    8  A    between atoms: C_25  and  N_26
REMARK    9  A    between atoms: O_31  and  C_32
REMARK                            x       y       z     vdW  Elec       q    Type
REMARK                         _______ _______ _______ _____ _____    ______ ____
ROOT
ATOM      1  C   UNL     1       0.243   0.052   2.491  0.00  0.00    +0.011 C 
ATOM      2  C   UNL     1       1.630   0.636   2.618  0.00  0.00    +0.011 A 
ATOM      3  C   UNL     1       2.338   0.606   3.771  0.00  0.00    -0.022 A 
ATOM      4  C   UNL     1       3.606   1.248   3.511  0.00  0.00    +0.003 A 
ATOM      5  C   UNL     1       4.724   1.505   4.310  0.00  0.00    +0.010 A 
ATOM      6  C   UNL     1       5.778   2.152   3.715  0.00  0.00    +0.001 A 
ATOM      7  C   UNL     1       5.748   2.540   2.385  0.00  0.00    +0.002 A 
ATOM      8  C   UNL     1       4.655   2.300   1.571  0.00  0.00    +0.026 A 
ATOM      9  C   UNL     1       3.570   1.643   2.148  0.00  0.00    +0.047 A 
ATOM     10  N   UNL     1       2.361   1.257   1.643  0.00  0.00    -0.359 N 
ATOM     11  H   UNL     1       2.066   1.402   0.730  0.00  0.00    +0.166 HD
ATOM     12  C   UNL     1       1.814  -0.006   5.045  0.00  0.00    +0.019 C 
ATOM     13  C   UNL     1       0.298  -0.194   4.889  0.00  0.00    -0.073 C 
ATOM     14  N   UNL     1       0.013  -0.869   3.615  0.00  0.00    +0.388 N 
ATOM     15  H   UNL     1       0.619  -1.670   3.520  0.00  0.00    -0.080 HD
ENDROOT
BRANCH   1  22
ATOM     16  C   UNL     1      -0.525   1.450   0.084  0.00  0.00    +0.044 C 
ATOM     17  C   UNL     1      -0.241  -0.029   0.037  0.00  0.00    -0.042 A 
ATOM     18  C   UNL     1      -0.342  -0.715  -1.158  0.00  0.00    -0.006 A 
ATOM     19  C   UNL     1      -0.079  -2.076  -1.201  0.00  0.00    +0.123 A 
ATOM     20  C   UNL     1       0.284  -2.746  -0.042  0.00  0.00    +0.046 A 
ATOM     21  C   UNL     1       0.384  -2.057   1.151  0.00  0.00    +0.006 A 
ATOM     22  C   UNL     1       0.127  -0.699   1.190  0.00  0.00    -0.052 A 
ATOM     23  C   UNL     1      -0.738   0.017  -2.415  0.00  0.00    +0.048 C 
BRANCH  19  24
ATOM     24  O   UNL     1      -0.179  -2.752  -2.375  0.00  0.00    -0.495 OA
ATOM     25  C   UNL     1       0.106  -4.152  -2.344  0.00  0.00    +0.277 C 
ENDBRANCH  19  24
ENDBRANCH   1  22
BRANCH  14  26
ATOM     26  C   UNL     1      -1.387  -1.316   3.599  0.00  0.00    -0.076 C 
BRANCH  26  27
ATOM     27  C   UNL     1      -1.598  -2.368   4.689  0.00  0.00    +0.005 C 
BRANCH  27  28
ATOM     28  C   UNL     1      -3.056  -2.833   4.673  0.00  0.00    +0.141 C 
BRANCH  28  29
ATOM     29  N   UNL     1      -3.258  -3.841   5.717  0.00  0.00    -0.272 N 
ATOM     30  C   UNL     1      -4.186  -3.795   6.696  0.00  0.00    +0.108 A 
ATOM     31  C   UNL     1      -4.045  -4.909   7.451  0.00  0.00    +0.041 A 
ATOM     32  C   UNL     1      -2.996  -5.662   6.915  0.00  0.00    +0.134 A 
ATOM     33  N   UNL     1      -2.527  -5.026   5.872  0.00  0.00    -0.180 NA
ENDBRANCH  28  29
ENDBRANCH  27  28
ENDBRANCH  26  27
ENDBRANCH  14  26
TORSDOF 6
