REMARK  Name = ZINC35450407
REMARK  5 active torsions:
REMARK  status: ('A' for Active; 'I' for Inactive)
REMARK    1  A    between atoms: C_1  and  N_2
REMARK    2  A    between atoms: N_2  and  C_3
REMARK    3  A    between atoms: C_3  and  C_4
REMARK    4  A    between atoms: C_5  and  O_13
REMARK    5  A    between atoms: O_13  and  C_14
REMARK                            x       y       z     vdW  Elec       q    Type
REMARK                         _______ _______ _______ _____ _____    ______ ____
ROOT
ATOM      1  C   UNL     1       0.855  -2.005  -1.444  0.00  0.00    +0.070 A 
ATOM      2  C   UNL     1       1.824  -2.778  -0.894  0.00  0.00    +0.240 A 
ATOM      3  N   UNL     1       1.673  -4.029  -1.341  0.00  0.00    -0.193 NA
ATOM      4  C   UNL     1       0.632  -4.076  -2.163  0.00  0.00    +0.142 A 
ATOM      5  N   UNL     1       0.095  -2.818  -2.243  0.00  0.00    -0.302 N 
ATOM      6  C   UNL     1      -0.999  -2.582  -3.024  0.00  0.00    +0.093 A 
ATOM      7  C   UNL     1      -1.570  -3.583  -3.728  0.00  0.00    +0.018 A 
ATOM      8  C   UNL     1      -1.045  -4.883  -3.663  0.00  0.00    +0.005 A 
ATOM      9  C   UNL     1       0.050  -5.130  -2.893  0.00  0.00    +0.047 A 
ENDROOT
BRANCH   1  10
ATOM     10  C   UNL     1       0.649  -0.529  -1.215  0.00  0.00    -0.023 C 
BRANCH  10  12
ATOM     11  C   UNL     1      -0.445   1.106   0.158  0.00  0.00    -0.100 C 
ATOM     12  N   UNL     1      -0.244  -0.332  -0.066  0.00  0.00    +0.381 N 
ATOM     13  H   UNL     1       0.169  -0.746   0.756  0.00  0.00    -0.086 HD
ATOM     14  H   UNL     1      -1.134  -0.771  -0.253  0.00  0.00    -0.086 HD
ENDBRANCH  10  12
ENDBRANCH   1  10
BRANCH   2  15
ATOM     15  O   UNL     1       2.787  -2.353  -0.033  0.00  0.00    -0.436 OA
BRANCH  15  16
ATOM     16  C   UNL     1       3.592  -3.288   0.536  0.00  0.00    +0.131 A 
ATOM     17  C   UNL     1       3.324  -4.638   0.356  0.00  0.00    +0.046 A 
ATOM     18  C   UNL     1       4.144  -5.587   0.935  0.00  0.00    +0.005 A 
ATOM     19  C   UNL     1       5.231  -5.193   1.693  0.00  0.00    +0.014 A 
ATOM     20  C   UNL     1       5.501  -3.848   1.873  0.00  0.00    +0.017 A 
ATOM     21  C   UNL     1       4.687  -2.895   1.292  0.00  0.00    +0.060 A 
ATOM     22  I   UNL     1       7.149  -3.256   3.023  0.00  0.00    -0.044 I 
ENDBRANCH  15  16
ENDBRANCH   2  15
TORSDOF 4
