REMARK  Name = ZINC09634329
REMARK  5 active torsions:
REMARK  status: ('A' for Active; 'I' for Inactive)
REMARK    1  A    between atoms: C_1  and  C_2
REMARK    2  A    between atoms: C_2  and  C_4
REMARK    3  A    between atoms: C_2  and  O_15
REMARK    4  A    between atoms: O_15  and  C_16
REMARK    5  A    between atoms: C_16  and  C_18
REMARK                            x       y       z     vdW  Elec       q    Type
REMARK                         _______ _______ _______ _____ _____    ______ ____
ROOT
ATOM      1  O   UNL     1      -0.914   3.299  -1.464  0.00  0.00    -0.452 OA
ENDROOT
BRANCH   1   3
ATOM      2  C   UNL     1      -0.637   3.828  -3.824  0.00  0.00    +0.062 C 
ATOM      3  C   UNL     1      -1.629   3.675  -2.670  0.00  0.00    +0.259 C 
BRANCH   3   4
ATOM      4  C   UNL     1      -2.343   4.983  -2.445  0.00  0.00    +0.259 C 
ATOM      5  O   UNL     1      -2.185   5.589  -1.406  0.00  0.00    -0.271 OA
ATOM      6  N   UNL     1      -3.156   5.480  -3.397  0.00  0.00    -0.266 N 
ATOM      7  C   UNL     1      -3.817   6.691  -3.188  0.00  0.00    +0.144 A 
ATOM      8  C   UNL     1      -4.651   7.201  -4.178  0.00  0.00    +0.082 A 
ATOM      9  C   UNL     1      -5.305   8.401  -3.956  0.00  0.00    +0.045 A 
ATOM     10  C   UNL     1      -5.092   9.057  -2.750  0.00  0.00    +0.061 A 
ATOM     11  C   UNL     1      -4.245   8.495  -1.814  0.00  0.00    +0.133 A 
ATOM     12  N   UNL     1      -3.640   7.347  -2.053  0.00  0.00    -0.237 NA
ATOM     13 CL   UNL     1      -5.880  10.569  -2.423  0.00  0.00    -0.082 Cl
ATOM     14 CL   UNL     1      -4.874   6.341  -5.670  0.00  0.00    -0.080 Cl
ATOM     15  H   UNL     1      -3.283   4.996  -4.228  0.00  0.00    +0.156 HD
ENDBRANCH   3   4
ENDBRANCH   1   3
BRANCH   1  16
ATOM     16  C   UNL     1      -0.756   1.986  -1.232  0.00  0.00    +0.311 C 
ATOM     17  O   UNL     1      -1.201   1.178  -2.013  0.00  0.00    -0.251 OA
BRANCH  16  18
ATOM     18  C   UNL     1      -0.019   1.517   0.010  0.00  0.00    +0.098 C 
ATOM     19  C   UNL     1       1.369   2.140   0.001  0.00  0.00    +0.020 C 
ATOM     20  C   UNL     1       2.318   1.501   1.006  0.00  0.00    +0.016 C 
ATOM     21  C   UNL     1       1.902   1.810   2.441  0.00  0.00    +0.006 C 
ATOM     22  C   UNL     1       0.593   1.141   2.829  0.00  0.00    +0.001 C 
ATOM     23  C   UNL     1       0.519  -0.327   2.444  0.00  0.00    +0.006 C 
ATOM     24  C   UNL     1       0.980  -0.591   1.014  0.00  0.00    +0.016 C 
ATOM     25  C   UNL     1       0.002  -0.004   0.002  0.00  0.00    +0.020 C 
ATOM     26  C   UNL     1       2.362  -0.002   0.802  0.00  0.00    +0.068 C 
ATOM     27  S   UNL     1       3.002  -0.418  -0.861  0.00  0.00    -0.142 S 
ATOM     28  C   UNL     1       4.771  -0.785  -0.530  0.00  0.00    +0.081 C 
ATOM     29  C   UNL     1       4.778  -1.594   0.792  0.00  0.00    +0.081 C 
ATOM     30  S   UNL     1       3.583  -0.780   1.914  0.00  0.00    -0.142 S 
ENDBRANCH  16  18
ENDBRANCH   1  16
TORSDOF 4
