REMARK  Name = ZINC36595084
REMARK  15 active torsions:
REMARK  status: ('A' for Active; 'I' for Inactive)
REMARK    1  A    between atoms: C_1  and  C_2
REMARK    2  A    between atoms: C_2  and  C_3
REMARK    3  A    between atoms: C_3  and  C_4
REMARK    4  A    between atoms: C_4  and  N_5
REMARK    5  A    between atoms: C_6  and  C_8
REMARK    6  A    between atoms: C_8  and  C_10
REMARK    7  A    between atoms: C_8  and  N_19
REMARK    8  A    between atoms: C_10  and  C_12
REMARK    9  A    between atoms: C_10  and  C_13
REMARK   10  A    between atoms: N_19  and  C_20
REMARK   11  A    between atoms: C_20  and  C_21
REMARK   12  A    between atoms: C_24  and  C_26
REMARK   13  A    between atoms: C_27  and  C_29
REMARK   14  A    between atoms: C_31  and  N_38
REMARK   15  A    between atoms: C_33  and  N_35
REMARK                            x       y       z     vdW  Elec       q    Type
REMARK                         _______ _______ _______ _____ _____    ______ ____
ROOT
ATOM      1  N   UNL     1       3.983  -6.526   4.716  0.00  0.00    -0.278 N 
ATOM      2  C   UNL     1       4.481  -7.712   5.118  0.00  0.00    +0.248 C 
ATOM      3  O   UNL     1       3.866  -8.390   5.918  0.00  0.00    -0.270 OA
ENDROOT
BRANCH   2   4
ATOM      4  C   UNL     1       5.775  -8.189   4.585  0.00  0.00    +0.041 A 
ATOM      5  C   UNL     1       6.043  -8.108   3.218  0.00  0.00    +0.046 A 
ATOM      6  C   UNL     1       7.252  -8.554   2.727  0.00  0.00    +0.129 A 
ATOM      7  C   UNL     1       8.199  -9.083   3.587  0.00  0.00    +0.065 A 
ATOM      8  C   UNL     1       7.939  -9.167   4.943  0.00  0.00    +0.129 A 
ATOM      9  C   UNL     1       6.736  -8.718   5.448  0.00  0.00    +0.046 A 
BRANCH   8  10
ATOM     10  N   UNL     1       8.957  -9.733   5.856  0.00  0.00    +0.057 N 
ATOM     11  O   UNL     1      10.014 -10.123   5.416  0.00  0.00    -0.126 OA
ATOM     12  O   UNL     1       8.732  -9.807   7.042  0.00  0.00    -0.126 OA
ENDBRANCH   8  10
BRANCH   6  13
ATOM     13  N   UNL     1       7.538  -8.469   1.277  0.00  0.00    +0.057 N 
ATOM     14  O   UNL     1       6.712  -8.007   0.524  0.00  0.00    -0.126 OA
ATOM     15  O   UNL     1       8.598  -8.860   0.846  0.00  0.00    -0.126 OA
ENDBRANCH   6  13
ENDBRANCH   2   4
BRANCH   1  16
ATOM     16  C   UNL     1       2.805  -5.963   5.381  0.00  0.00    +0.170 C 
BRANCH  16  18
ATOM     17  N   UNL     1       0.386  -6.106   4.888  0.00  0.00    -0.314 N 
ATOM     18  C   UNL     1       1.642  -5.958   4.423  0.00  0.00    +0.234 C 
ATOM     19  O   UNL     1       1.837  -5.821   3.234  0.00  0.00    -0.274 OA
ATOM     20  H   UNL     1       0.223  -6.145   5.843  0.00  0.00    +0.149 HD
BRANCH  17  21
ATOM     21  C   UNL     1      -0.735  -6.210   3.950  0.00  0.00    +0.104 C 
BRANCH  21  22
ATOM     22  C   UNL     1      -2.041  -6.370   4.731  0.00  0.00    +0.018 C 
BRANCH  22  24
ATOM     23  C   UNL     1      -4.517  -6.638   4.532  0.00  0.00    +0.004 C 
ATOM     24  C   UNL     1      -3.211  -6.478   3.751  0.00  0.00    -0.002 C 
ENDBRANCH  22  24
ENDBRANCH  21  22
ENDBRANCH  17  21
ENDBRANCH  16  18
BRANCH  16  25
ATOM     25  C   UNL     1       3.106  -4.530   5.825  0.00  0.00    +0.045 C 
ATOM     26  C   UNL     1       1.885  -3.951   6.541  0.00  0.00    +0.015 C 
BRANCH  25  27
ATOM     27  C   UNL     1       4.285  -4.532   6.763  0.00  0.00    -0.042 A 
ATOM     28  C   UNL     1       4.261  -5.316   7.902  0.00  0.00    +0.004 A 
ATOM     29  C   UNL     1       5.343  -5.318   8.762  0.00  0.00    +0.000 A 
ATOM     30  C   UNL     1       6.448  -4.536   8.485  0.00  0.00    +0.000 A 
ATOM     31  C   UNL     1       6.473  -3.752   7.346  0.00  0.00    +0.000 A 
ATOM     32  C   UNL     1       5.393  -3.754   6.483  0.00  0.00    +0.004 A 
ENDBRANCH  25  27
ENDBRANCH  16  25
ENDBRANCH   1  16
BRANCH   1  33
ATOM     33  C   UNL     1       4.620  -5.799   3.615  0.00  0.00    +0.183 C 
BRANCH  33  34
ATOM     34  C   UNL     1       3.893  -6.098   2.329  0.00  0.00    +0.122 A 
ATOM     35  C   UNL     1       3.698  -5.234   1.317  0.00  0.00    +0.046 A 
ATOM     36  C   UNL     1       2.975  -5.928   0.319  0.00  0.00    +0.045 A 
ATOM     37  C   UNL     1       2.772  -7.175   0.782  0.00  0.00    +0.102 A 
ATOM     38  O   UNL     1       3.335  -7.274   1.997  0.00  0.00    -0.463 OA
ATOM     39  C   UNL     1       2.041  -8.276   0.057  0.00  0.00    +0.086 C 
ENDBRANCH  33  34
ENDBRANCH   1  33
TORSDOF 12
