REMARK  Name = ZINC20082420
REMARK  14 active torsions:
REMARK  status: ('A' for Active; 'I' for Inactive)
REMARK    1  A    between atoms: C_1  and  C_2
REMARK    2  A    between atoms: C_2  and  C_3
REMARK    3  A    between atoms: C_10  and  C_15
REMARK    4  A    between atoms: C_15  and  C_17
REMARK    5  A    between atoms: C_15  and  N_27
REMARK    6  A    between atoms: N_21  and  C_22
REMARK    7  A    between atoms: C_22  and  C_23
REMARK    8  A    between atoms: C_22  and  C_24
REMARK    9  A    between atoms: C_22  and  C_25
REMARK   10  A    between atoms: C_25  and  C_26
REMARK   11  A    between atoms: N_27  and  C_28
REMARK   12  A    between atoms: N_27  and  C_35
REMARK   13  A    between atoms: C_28  and  C_29
REMARK   14  A    between atoms: C_35  and  C_36
REMARK                            x       y       z     vdW  Elec       q    Type
REMARK                         _______ _______ _______ _____ _____    ______ ____
ROOT
ATOM      1  C   UNL     1       5.347  -1.768  -2.111  0.00  0.00    +0.163 C 
ENDROOT
BRANCH   1   9
ATOM      2  C   UNL     1       6.645  -4.452  -7.533  0.00  0.00    -0.047 A 
ATOM      3  C   UNL     1       7.270  -3.353  -8.106  0.00  0.00    +0.005 A 
ATOM      4  C   UNL     1       7.397  -2.172  -7.406  0.00  0.00    +0.026 A 
ATOM      5  C   UNL     1       6.894  -2.080  -6.112  0.00  0.00    +0.049 A 
ATOM      6  C   UNL     1       6.261  -3.196  -5.535  0.00  0.00    -0.001 A 
ATOM      7  C   UNL     1       6.143  -4.384  -6.265  0.00  0.00    +0.013 A 
ATOM      8  C   UNL     1       5.735  -3.089  -4.173  0.00  0.00    +0.021 A 
ATOM      9  C   UNL     1       5.877  -1.912  -3.515  0.00  0.00    +0.042 A 
ATOM     10  C   UNL     1       6.516  -0.820  -4.141  0.00  0.00    +0.254 A 
ATOM     11  O   UNL     1       6.629   0.230  -3.533  0.00  0.00    -0.268 OA
ATOM     12  N   UNL     1       7.007  -0.911  -5.389  0.00  0.00    -0.322 N 
ATOM     13  H   UNL     1       7.504  -0.036  -5.832  0.00  0.00    +0.169 HD
BRANCH   2  15
ATOM     14  C   UNL     1       5.208  -5.718  -9.109  0.00  0.00    +0.009 C 
ATOM     15  C   UNL     1       6.518  -5.732  -8.319  0.00  0.00    +0.032 C 
ENDBRANCH   2  15
ENDBRANCH   1   9
BRANCH   1  16
ATOM     16  C   UNL     1       6.491  -1.508  -1.166  0.00  0.00    +0.174 A 
ATOM     17  N   UNL     1       7.170  -0.393  -1.047  0.00  0.00    -0.111 NA
ATOM     18  N   UNL     1       8.062  -0.566  -0.134  0.00  0.00    -0.023 NA
ATOM     19  N   UNL     1       7.975  -1.765   0.328  0.00  0.00    -0.043 NA
ATOM     20  N   UNL     1       7.018  -2.377  -0.283  0.00  0.00    -0.222 N 
BRANCH  20  21
ATOM     21  C   UNL     1       6.585  -3.759  -0.059  0.00  0.00    +0.062 C 
ATOM     22  C   UNL     1       5.148  -3.764   0.468  0.00  0.00    +0.036 C 
ATOM     23  C   UNL     1       6.647  -4.534  -1.376  0.00  0.00    +0.036 C 
BRANCH  21  24
ATOM     24  C   UNL     1       7.506  -4.421   0.967  0.00  0.00    +0.026 C 
ATOM     25  C   UNL     1       7.054  -5.864   1.202  0.00  0.00    +0.006 C 
ENDBRANCH  21  24
ENDBRANCH  20  21
ENDBRANCH   1  16
BRANCH   1  26
ATOM     26  N   UNL     1       4.402  -0.644  -2.058  0.00  0.00    -0.277 NA
BRANCH  26  27
ATOM     27  C   UNL     1       3.384  -0.761  -3.111  0.00  0.00    +0.121 C 
BRANCH  27  28
ATOM     28  C   UNL     1       2.589   0.516  -3.185  0.00  0.00    -0.033 A 
ATOM     29  C   UNL     1       3.001   1.539  -4.019  0.00  0.00    +0.005 A 
ATOM     30  C   UNL     1       2.271   2.711  -4.087  0.00  0.00    +0.000 A 
ATOM     31  C   UNL     1       1.130   2.861  -3.321  0.00  0.00    +0.000 A 
ATOM     32  C   UNL     1       0.718   1.838  -2.488  0.00  0.00    +0.000 A 
ATOM     33  C   UNL     1       1.448   0.666  -2.420  0.00  0.00    +0.005 A 
ENDBRANCH  27  28
ENDBRANCH  26  27
BRANCH  26  34
ATOM     34  C   UNL     1       3.779  -0.542  -0.732  0.00  0.00    +0.160 C 
BRANCH  34  35
ATOM     35  C   UNL     1       4.774   0.022   0.249  0.00  0.00    +0.119 A 
ATOM     36  C   UNL     1       5.038   1.327   0.439  0.00  0.00    +0.046 A 
ATOM     37  C   UNL     1       6.029   1.403   1.445  0.00  0.00    +0.041 A 
ATOM     38  C   UNL     1       6.311   0.139   1.809  0.00  0.00    +0.195 A 
ATOM     39  O   UNL     1       5.545  -0.693   1.085  0.00  0.00    -0.467 OA
ENDBRANCH  34  35
ENDBRANCH  26  34
ENDBRANCH   1  26
TORSDOF 10
