REMARK  Name = ZINC13051922
REMARK  12 active torsions:
REMARK  status: ('A' for Active; 'I' for Inactive)
REMARK    1  A    between atoms: C_1  and  C_2
REMARK    2  A    between atoms: C_2  and  C_4
REMARK    3  A    between atoms: C_2  and  O_30
REMARK    4  A    between atoms: C_4  and  N_5
REMARK    5  A    between atoms: C_11  and  C_28
REMARK    6  A    between atoms: C_15  and  S_16
REMARK    7  A    between atoms: S_16  and  C_17
REMARK    8  A    between atoms: C_17  and  C_18
REMARK    9  A    between atoms: N_23  and  C_24
REMARK   10  A    between atoms: C_24  and  C_25
REMARK   11  A    between atoms: C_25  and  O_26
REMARK   12  A    between atoms: O_26  and  C_27
REMARK                            x       y       z     vdW  Elec       q    Type
REMARK                         _______ _______ _______ _____ _____    ______ ____
ROOT
ATOM      1  N   UNL     1      -0.020   1.094   2.454  0.00  0.00    -0.285 N 
ATOM      2  C   UNL     1      -0.365  -0.094   3.002  0.00  0.00    +0.262 A 
ATOM      3  O   UNL     1      -1.257  -0.773   2.527  0.00  0.00    -0.267 OA
ATOM      4  C   UNL     1       0.382  -0.538   4.190  0.00  0.00    +0.065 A 
ATOM      5  C   UNL     1       0.101  -1.750   4.820  0.00  0.00    +0.016 A 
ATOM      6  C   UNL     1       0.812  -2.123   5.924  0.00  0.00    +0.016 A 
ATOM      7  C   UNL     1       1.825  -1.300   6.432  0.00  0.00    +0.065 A 
ATOM      8  C   UNL     1       2.122  -0.089   5.820  0.00  0.00    +0.043 A 
ATOM      9  C   UNL     1       1.400   0.304   4.689  0.00  0.00    +0.080 A 
ATOM     10  N   UNL     1       1.654   1.476   4.061  0.00  0.00    -0.223 NA
ATOM     11  C   UNL     1       0.979   1.847   3.001  0.00  0.00    +0.173 A 
ENDROOT
BRANCH   7  12
ATOM     12  C   UNL     1       2.585  -1.723   7.629  0.00  0.00    +0.387 C 
ATOM     13  O   UNL     1       3.464  -1.012   8.073  0.00  0.00    -0.241 OA
ATOM     14  O   UNL     1       2.301  -2.897   8.226  0.00  0.00    -0.241 OA
ENDBRANCH   7  12
BRANCH   1  15
ATOM     15  C   UNL     1      -0.729   1.579   1.267  0.00  0.00    +0.158 C 
BRANCH  15  17
ATOM     16  C   UNL     1      -0.753   1.593  -1.232  0.00  0.00    +0.039 C 
ATOM     17  C   UNL     1      -0.013   1.086   0.008  0.00  0.00    +0.131 C 
BRANCH  17  18
ATOM     18  O   UNL     1       1.328   1.580  -0.002  0.00  0.00    -0.390 OA
ATOM     19  H   UNL     1       1.391   2.545   0.002  0.00  0.00    +0.210 HD
ENDBRANCH  17  18
ENDBRANCH  15  17
ENDBRANCH   1  15
BRANCH  11  20
ATOM     20  S   UNL     1       1.377   3.389   2.248  0.00  0.00    -0.078 S 
BRANCH  20  21
ATOM     21  C   UNL     1       2.713   3.936   3.340  0.00  0.00    +0.173 C 
BRANCH  21  22
ATOM     22  C   UNL     1       3.225   5.275   2.875  0.00  0.00    +0.231 C 
ATOM     23  O   UNL     1       2.735   5.807   1.902  0.00  0.00    -0.274 OA
ATOM     24  N   UNL     1       4.228   5.882   3.541  0.00  0.00    -0.240 N 
ATOM     25  C   UNL     1       4.686   7.079   3.126  0.00  0.00    +0.306 C 
ATOM     26  O   UNL     1       4.195   7.612   2.150  0.00  0.00    -0.252 OA
ATOM     27  N   UNL     1       5.688   7.686   3.792  0.00  0.00    -0.297 N 
ATOM     28  H   UNL     1       4.619   5.456   4.320  0.00  0.00    +0.159 HD
ATOM     29  H   UNL     1       6.080   7.260   4.571  0.00  0.00    +0.150 HD
BRANCH  27  30
ATOM     30  C   UNL     1       6.186   8.987   3.340  0.00  0.00    +0.133 C 
BRANCH  30  31
ATOM     31  C   UNL     1       7.315   9.450   4.263  0.00  0.00    +0.178 C 
BRANCH  31  32
ATOM     32  O   UNL     1       8.425   8.558   4.142  0.00  0.00    -0.381 OA
ATOM     33  C   UNL     1       9.540   8.902   4.967  0.00  0.00    +0.194 C 
ENDBRANCH  31  32
ENDBRANCH  30  31
ENDBRANCH  27  30
ENDBRANCH  21  22
ENDBRANCH  20  21
ENDBRANCH  11  20
TORSDOF 10
