REMARK  Name = ZINC03830449
REMARK  9 active torsions:
REMARK  status: ('A' for Active; 'I' for Inactive)
REMARK    1  A    between atoms: C_1  and  O_2
REMARK    2  A    between atoms: O_2  and  C_3
REMARK    3  A    between atoms: C_3  and  N_21
REMARK    4  A    between atoms: C_9  and  C_18
REMARK    5  A    between atoms: C_10  and  C_13
REMARK    6  A    between atoms: C_13  and  O_14
REMARK    7  A    between atoms: O_14  and  C_15
REMARK    8  A    between atoms: C_22  and  C_24
REMARK    9  A    between atoms: C_24  and  C_25
REMARK                            x       y       z     vdW  Elec       q    Type
REMARK                         _______ _______ _______ _____ _____    ______ ____
ROOT
ATOM      1  C   UNL     1      -1.266  -0.587  -0.072  0.00  0.00    +0.242 C 
ATOM      2  C   UNL     1      -1.236  -2.100   0.059  0.00  0.00    +0.199 C 
ATOM      3  N   UNL     1      -2.080  -2.043  -1.171  0.00  0.00    -0.244 N 
ATOM      4  C   UNL     1      -1.894  -0.741  -1.439  0.00  0.00    +0.275 C 
ATOM      5  O   UNL     1      -2.128  -0.005  -2.374  0.00  0.00    -0.270 OA
ATOM      6  C   UNL     1      -2.894  -3.082  -1.669  0.00  0.00    +0.130 C 
ATOM      7  C   UNL     1      -3.275  -4.074  -0.878  0.00  0.00    +0.006 C 
ATOM      8  C   UNL     1      -2.917  -4.311   0.553  0.00  0.00    +0.107 C 
ATOM      9  S   UNL     1      -2.290  -2.796   1.376  0.00  0.00    -0.128 S 
ENDROOT
BRANCH   1  10
ATOM     10  N   UNL     1      -2.149   0.064   0.900  0.00  0.00    -0.278 N 
ATOM     11  C   UNL     1      -3.462  -0.239   0.925  0.00  0.00    +0.220 C 
ATOM     12  O   UNL     1      -3.913  -1.049   0.144  0.00  0.00    -0.275 OA
ATOM     13  H   UNL     1      -1.789   0.712   1.525  0.00  0.00    +0.152 HD
BRANCH  11  14
ATOM     14  C   UNL     1      -4.371   0.430   1.925  0.00  0.00    +0.138 C 
BRANCH  14  15
ATOM     15  C   UNL     1      -5.777  -0.079   1.745  0.00  0.00    -0.001 A 
ATOM     16  C   UNL     1      -6.385  -1.136   2.337  0.00  0.00    +0.011 A 
ATOM     17  C   UNL     1      -7.699  -1.420   2.017  0.00  0.00    +0.008 A 
ATOM     18  C   UNL     1      -8.342  -0.633   1.119  0.00  0.00    +0.045 A 
ATOM     19  S   UNL     1      -7.079   0.558   0.702  0.00  0.00    -0.101 S 
ENDBRANCH  14  15
ENDBRANCH  11  14
ENDBRANCH   1  10
BRANCH   6  20
ATOM     20  C   UNL     1      -3.322  -3.065  -3.077  0.00  0.00    +0.401 C 
ATOM     21  O   UNL     1      -3.938  -4.015  -3.541  0.00  0.00    -0.239 OA
ATOM     22  O   UNL     1      -3.063  -2.100  -3.783  0.00  0.00    -0.239 OA
ENDBRANCH   6  20
BRANCH   1  24
ATOM     23  C   UNL     1       0.025   1.431  -0.141  0.00  0.00    +0.197 C 
ATOM     24  O   UNL     1       0.035   0.003  -0.111  0.00  0.00    -0.349 OA
ENDBRANCH   1  24
BRANCH   7  25
ATOM     25  C   UNL     1      -4.189  -5.096  -1.502  0.00  0.00    +0.268 C 
BRANCH  25  26
ATOM     26  O   UNL     1      -4.605  -6.033  -0.508  0.00  0.00    -0.446 OA
BRANCH  26  27
ATOM     27  C   UNL     1      -5.348  -7.077  -0.924  0.00  0.00    +0.398 C 
ATOM     28  O   UNL     1      -5.634  -7.188  -2.100  0.00  0.00    -0.227 OA
ATOM     29  N   UNL     1      -5.773  -7.998  -0.037  0.00  0.00    -0.295 N 
ATOM     30  H   UNL     1      -5.544  -7.909   0.902  0.00  0.00    +0.148 HD
ATOM     31  H   UNL     1      -6.308  -8.750  -0.337  0.00  0.00    +0.148 HD
ENDBRANCH  26  27
ENDBRANCH  25  26
ENDBRANCH   7  25
TORSDOF 8
